
#######################################################################
#
#                 Cambridge Crystallographic Data Centre
#                                CCDC 
#
#######################################################################
#
# If this CIF has been generated from an entry in the Cambridge 
# Structural Database, then it will include bibliographic, chemical, 
# crystal, experimental, refinement or atomic coordinate data resulting 
# from the CCDC's data processing and validation procedures.
#
#######################################################################

data_MAKXAZ
_chemical_formula_moiety         '(C40 H28 N2 O8 Zn2)n,2n(C3 H7 N1 O1)'
_chemical_name_systematic        
"catena-(bis(\m~3~-biphenyl-4,4'-dicarboxylato)-(\m~2~-4,4'-ethane-1,2-diyldipyridine)-di-zinc N,N-dimethylformamide)"
_symmetry_cell_setting           monoclinic
_symmetry_space_group_name_H-M   'C 2/c'
_symmetry_Int_Tables_number      15
_space_group_name_Hall           '-C 2yc'
loop_
_symmetry_equiv_pos_site_id
_symmetry_equiv_pos_as_xyz
1 x,y,z
2 -x,y,1/2-z
3 1/2+x,1/2+y,z
4 1/2-x,1/2+y,1/2-z
5 -x,-y,-z
6 x,-y,1/2+z
7 1/2-x,1/2-y,-z
8 1/2+x,1/2-y,1/2+z
_cell_length_a                   26.4310(18)
_cell_length_b                   6.6400(5)
_cell_length_c                   24.9341(17)
_cell_angle_alpha                90
_cell_angle_beta                 108.464(1)
_cell_angle_gamma                90
_cell_volume                     4150.72
_exptl_crystal_colour            colorless
_exptl_crystal_description       plate
_cell_formula_units_Z            4
loop_
_atom_site_label
_atom_site_type_symbol
_atom_site_fract_x
_atom_site_fract_y
_atom_site_fract_z
Zn1 Zn 0.064203(11) -0.12573(4) 0.030880(12)
O1 O 0.08366(8) 0.0486(3) 0.09671(8)
O2 O 0.08847(8) -0.2429(3) 0.14247(8)
O3 O 0.00287(7) 0.7374(3) 0.47596(7)
O4 O 0.06388(8) 0.9549(3) 0.46624(8)
C1 C 0.08680(10) -0.0578(4) 0.14108(11)
C2 C 0.08785(9) 0.0601(4) 0.19270(10)
C3 C 0.10064(10) 0.2642(4) 0.19763(11)
H1 H 0.1114 0.3287 0.1690
C4 C 0.09783(11) 0.3738(4) 0.24362(11)
H2 H 0.1075 0.5121 0.2467
C5 C 0.08086(10) 0.2844(4) 0.28589(10)
C6 C 0.06860(10) 0.0797(4) 0.28090(10)
H3 H 0.0575 0.0151 0.3093
C7 C 0.07229(10) -0.0310(4) 0.23516(11)
H4 H 0.0641 -0.1707 0.2328
C8 C 0.07335(10) 0.4067(4) 0.33262(10)
C9 C 0.10289(11) 0.5819(4) 0.35137(11)
H5 H 0.1306 0.6180 0.3365
C10 C 0.09209(11) 0.7033(4) 0.39152(11)
H6 H 0.1124 0.8224 0.4038
C11 C 0.05185(10) 0.6534(4) 0.41429(10)
C12 C 0.02393(10) 0.4753(4) 0.39738(11)
H7 H -0.0027 0.4364 0.4135
C13 C 0.03463(10) 0.3539(4) 0.35710(11)
H8 H 0.0152 0.2323 0.3460
C14 C 0.03846(10) 0.7904(4) 0.45490(10)
N1 N 0.1165(3) -0.3403(13) 0.0237(5)
C15 C 0.1281(3) -0.5180(14) 0.0547(4)
H9 H 0.1058 -0.5618 0.0757
C16 C 0.1723(2) -0.6316(10) 0.0549(2)
H10 H 0.1803 -0.7530 0.0761
C17 C 0.2050(2) -0.5676(9) 0.0242(2)
C18 C 0.1934(2) -0.3899(8) -0.0068(2)
H11 H 0.2157 -0.3461 -0.0278
C19 C 0.1492(3) -0.2763(8) -0.0070(3)
H12 H 0.1413 -0.1549 -0.0282
C20 C 0.2532(3) -0.6921(11) 0.0256(2)
H13 H 0.2843 -0.6012 0.0318
H14 H 0.2612 -0.7857 0.0581
Zn1A Zn -0.064203(11) -1.12573(4) 0.469120(12)
Zn1A_2 Zn -0.064203(11) 0.87427(4) 0.469120(12)
Zn1E Zn 0.064203(11) 1.12573(4) 0.530880(12)
Zn1F Zn 0.435797(11) -1.37427(4) -0.030880(12)
Zn1D Zn -0.064203(11) 0.12573(4) -0.030880(12)
O1A O -0.08366(8) -0.9514(3) 0.40329(8)
O2A O -0.08847(8) -1.2429(3) 0.35753(8)
O3A O -0.00287(7) -0.2626(3) 0.02404(7)
O3_2 O 0.00287(7) -1.2626(3) 0.47596(7)
O4A O -0.06388(8) -0.0451(3) 0.03376(8)
O4E O 0.06388(8) 0.0451(3) -0.03376(8)
O4D O -0.06388(8) -0.9549(3) 0.53376(8)
C1A C -0.08680(10) -1.0578(4) 0.35892(11)
C2A C -0.08785(9) -0.9399(4) 0.30730(10)
C3A C -0.10064(10) -0.7358(4) 0.30237(11)
H1A H -0.1114 -0.6713 0.3310
C4A C -0.09783(11) -0.6262(4) 0.25638(11)
H2A H -0.1075 -0.4879 0.2533
C5A C -0.08086(10) -0.7156(4) 0.21411(10)
C6A C -0.06860(10) -0.9203(4) 0.21910(10)
H3A H -0.0575 -0.9849 0.1907
C7A C -0.07229(10) -1.0310(4) 0.26484(11)
H4A H -0.0641 -1.1707 0.2672
C8A C -0.07335(10) -0.5933(4) 0.16738(10)
C9A C -0.10289(11) -0.4181(4) 0.14863(11)
H5A H -0.1306 -0.3820 0.1635
C10A C -0.09209(11) -0.2967(4) 0.10848(11)
H6A H -0.1124 -0.1776 0.0962
C11A C -0.05185(10) -0.3466(4) 0.08571(10)
C12A C -0.02393(10) -0.5247(4) 0.10262(11)
H7A H 0.0027 -0.5636 0.0865
C13A C -0.03463(10) -0.6461(4) 0.14290(11)
H8A H -0.0152 -0.7677 0.1540
C14A C -0.03846(10) -0.2096(4) 0.04510(10)
N1F N 0.3835(3) -1.1597(13) -0.0237(5)
N1A N -0.1165(3) -1.3403(13) 0.4763(5)
C15F C 0.3719(3) -0.9820(14) -0.0547(4)
H9F H 0.3942 -0.9382 -0.0757
C16F C 0.3277(2) -0.8684(10) -0.0549(2)
H10F H 0.3197 -0.7470 -0.0761
C17F C 0.2950(2) -0.9324(9) -0.0242(2)
C18F C 0.3066(2) -1.1101(8) 0.0068(2)
H11F H 0.2843 -1.1539 0.0278
C19F C 0.3508(3) -1.2237(8) 0.0070(3)
H12F H 0.3587 -1.3451 0.0282
C20F C 0.2468(3) -0.8079(11) -0.0256(2)
H13F H 0.2157 -0.8988 -0.0318
H14F H 0.2388 -0.7143 -0.0581
N2 N 0.24311(10) 0.6725(5) 0.16903(13)
O5 O 0.24681(12) 0.9385(5) 0.11314(13)
C21 C 0.22613(14) 0.8451(6) 0.14240(15)
H15 H 0.1946 0.9009 0.1467
C22 C 0.28944(15) 0.5719(8) 0.16340(19)
H16 H 0.3042 0.6511 0.1387
H17 H 0.2793 0.4381 0.1469
H18 H 0.3163 0.5581 0.2007
C23 C 0.21536(17) 0.5772(8) 0.2037(2)
H19 H 0.1830 0.6539 0.2012
H20 H 0.2386 0.5737 0.2430
H21 H 0.2056 0.4395 0.1902
C24? C 0.1246(3) -0.4963(15) 0.0530(4)
C25? C 0.1582(2) -0.6468(10) 0.0452(3)
C26? C 0.1870(2) -0.6169(7) 0.0079(3)
C27? C 0.1822(3) -0.4365(8) -0.0215(3)
C28? C 0.1487(3) -0.2861(8) -0.0137(4)
C29? C 0.2234(3) -0.7776(10) -0.0020(4)
H22? H 0.1049 -0.5167 0.0785
H23? H 0.1614 -0.7700 0.0654
H24? H 0.2019 -0.4161 -0.0470
H25? H 0.1454 -0.1628 -0.0339
H26? H 0.2254 -0.8876 0.0253
H27? H 0.2063 -0.8338 -0.0403
N3? N 0.1199(4) -0.3160(13) 0.0235(5)
loop_
_geom_bond_atom_site_label_1
_geom_bond_atom_site_label_2
_geom_bond_site_symmetry_1
_geom_bond_site_symmetry_2
Zn1 O1 1_555 1_555
O1 C1 1_555 1_555
O2 C1 1_555 1_555
O3 C14 1_555 1_555
O4 C14 1_555 1_555
C1 C2 1_555 1_555
C2 C3 1_555 1_555
C3 H1 1_555 1_555
C4 C3 1_555 1_555
H2 C4 1_555 1_555
C5 C4 1_555 1_555
C6 C5 1_555 1_555
H3 C6 1_555 1_555
C7 C2 1_555 1_555
H4 C7 1_555 1_555
C8 C5 1_555 1_555
C9 C8 1_555 1_555
H5 C9 1_555 1_555
C10 C9 1_555 1_555
H6 C10 1_555 1_555
C11 C10 1_555 1_555
C12 C11 1_555 1_555
H7 C12 1_555 1_555
C13 C8 1_555 1_555
H8 C13 1_555 1_555
C14 C11 1_555 1_555
N1 Zn1 1_555 1_555
C15 N1 1_555 1_555
H9 C15 1_555 1_555
C16 C15 1_555 1_555
H10 C16 1_555 1_555
C17 C16 1_555 1_555
C18 C17 1_555 1_555
H11 C18 1_555 1_555
C19 N1 1_555 1_555
H12 C19 1_555 1_555
C20 C17 1_555 1_555
H13 C20 1_555 1_555
H14 C20 1_555 1_555
N2 C21 1_555 1_555
O5 C21 1_555 1_555
C21 H15 1_555 1_555
C22 N2 1_555 1_555
H16 C22 1_555 1_555
H17 C22 1_555 1_555
H18 C22 1_555 1_555
C23 N2 1_555 1_555
H19 C23 1_555 1_555
H20 C23 1_555 1_555
H21 C23 1_555 1_555
Zn1A O1A 1_555 1_555
Zn1A_2 O3 1_555 1_555
Zn1E O4 1_555 1_555
Zn1F N1F 1_555 1_555
Zn1D O4A 1_555 1_555
O1A C1A 1_555 1_555
O2A C1A 1_555 1_555
O3A Zn1 1_555 1_555
O3_2 Zn1A 1_555 1_555
O4A C14A 1_555 1_555
O4E Zn1 1_555 1_555
O4D Zn1A 1_555 1_555
C1A C2A 1_555 1_555
C2A C3A 1_555 1_555
C3A H1A 1_555 1_555
C4A C3A 1_555 1_555
H2A C4A 1_555 1_555
C5A C4A 1_555 1_555
C6A C5A 1_555 1_555
H3A C6A 1_555 1_555
C7A C2A 1_555 1_555
H4A C7A 1_555 1_555
C8A C5A 1_555 1_555
C9A C8A 1_555 1_555
H5A C9A 1_555 1_555
C10A C9A 1_555 1_555
H6A C10A 1_555 1_555
C11A C10A 1_555 1_555
C12A C11A 1_555 1_555
H7A C12A 1_555 1_555
C13A C8A 1_555 1_555
H8A C13A 1_555 1_555
C14A O3A 1_555 1_555
N1F C15F 1_555 1_555
N1A Zn1A 1_555 1_555
C15F H9F 1_555 1_555
C16F C15F 1_555 1_555
H10F C16F 1_555 1_555
C17F C16F 1_555 1_555
C18F C17F 1_555 1_555
H11F C18F 1_555 1_555
C19F N1F 1_555 1_555
H12F C19F 1_555 1_555
C20F C20 1_555 1_555
H13F C20F 1_555 1_555
H14F C20F 1_555 1_555
C6 C7 1_555 1_555
C12 C13 1_555 1_555
C18 C19 1_555 1_555
C6A C7A 1_555 1_555
C11A C14A 1_555 1_555
C12A C13A 1_555 1_555
C17F C20F 1_555 1_555
C18F C19F 1_555 1_555

#END
