
#######################################################################
#
#                 Cambridge Crystallographic Data Centre
#                                CCDC 
#
#######################################################################
#
# If this CIF has been generated from an entry in the Cambridge 
# Structural Database, then it will include bibliographic, chemical, 
# crystal, experimental, refinement or atomic coordinate data resulting 
# from the CCDC's data processing and validation procedures.
#
#######################################################################

data_HUCBOX01
_chemical_formula_moiety         '(C16 H8 Cu4 O16 S2)n'
_chemical_name_systematic        
catena-((\m~7~-5-sulfonatobenzene-1,3-dicarboxylato)-(\m~6~-5-sulfonatobenzene-1,3-dicarboxylato)-bis(\m~3~-hydroxo)-tetra-copper(ii))
_symmetry_cell_setting           monoclinic
_symmetry_space_group_name_H-M   'P 21/n'
_symmetry_Int_Tables_number      14
_space_group_name_Hall           '-P 2yn'
loop_
_symmetry_equiv_pos_site_id
_symmetry_equiv_pos_as_xyz
1 x,y,z
2 1/2-x,1/2+y,1/2-z
3 -x,-y,-z
4 1/2+x,1/2-y,1/2+z
_cell_length_a                   13.814(5)
_cell_length_b                   19.437(10)
_cell_length_c                   12.067(6)
_cell_angle_alpha                90
_cell_angle_beta                 139.21(2)
_cell_angle_gamma                90
_cell_volume                     2116.67
_exptl_crystal_colour            blue
_exptl_crystal_description       block
_cell_formula_units_Z            4
loop_
_atom_site_label
_atom_site_type_symbol
_atom_site_fract_x
_atom_site_fract_y
_atom_site_fract_z
Cu1 Cu 1.18379(15) 0.06506(5) 0.22365(19)
Cu2 Cu 1.78694(16) -0.04884(5) 0.2313(2)
Cu3 Cu 1.94587(16) 0.08250(5) 0.2314(2)
Cu4 Cu 0.57133(16) 0.55835(5) -0.1966(2)
S1 S 0.8006(3) 0.41557(11) 0.1096(4)
S2 S 1.2785(3) 0.10659(13) 0.0831(4)
O1 O 1.3358(8) 0.0947(3) 0.2445(10)
O2 O 1.1499(8) 0.1596(3) 0.2270(10)
O3 O 1.6457(8) 0.3583(3) 0.2198(10)
O4 O 1.4173(8) 0.3622(3) 0.0952(10)
O5 O 0.7896(8) 0.4823(3) 0.0470(11)
O6 O 0.8539(8) 0.4195(3) 0.2706(10)
O7 O 0.6654(7) 0.3753(3) -0.0147(10)
O8 O 1.8224(9) 0.1290(3) 0.2299(12)
O9 O 0.9276(8) 0.1606(3) 0.1190(10)
O10 O 1.3089(9) 0.3934(3) 0.1997(11)
O11 O 1.2596(10) 0.0430(4) 0.0060(12)
C1 C 1.4175(12) 0.1504(5) 0.1281(14)
O12 O 1.9746(7) -0.0047(3) 0.3399(9)
C2 C 1.5240(11) 0.2534(4) 0.1500(14)
C3 C 1.1430(12) 0.3028(4) 0.1998(15)
H1 H 1.2117 0.2801 0.2150
O13 O 1.1454(9) 0.1477(5) -0.0297(12)
C4 C 1.0417(12) 0.4082(4) 0.1838(15)
H2 H 1.0424 0.4559 0.1891
O14 O 1.0236(8) 0.0261(3) 0.1755(10)
C5 C 1.6257(12) 0.2157(4) 0.1767(14)
H3 H 1.6975 0.2375 0.1961
C6 C 1.0383(11) 0.2659(4) 0.1697(14)
C7 C 1.5177(12) 0.1121(5) 0.1560(15)
H4 H 1.5187 0.0644 0.1631
O15 O 1.6969(10) 0.0379(3) 0.1784(15)
O16 O 1.2829(11) 0.4742(3) 0.3049(14)
C8 C 1.4198(11) 0.2215(4) 0.1247(14)
H5 H 1.3516 0.2474 0.1055
C9 C 0.9392(11) 0.3712(4) 0.1531(14)
C10 C 0.9367(12) 0.2999(4) 0.1476(14)
H6 H 0.8677 0.2754 0.1293
C11 C 1.6166(12) 0.1449(4) 0.1734(15)
C12 C 1.1427(12) 0.3753(4) 0.2066(15)
C13 C 1.7225(12) 0.1008(4) 0.1978(15)
C14 C 1.0406(11) 0.1887(4) 0.1725(14)
C15 C 1.5300(12) 0.3316(4) 0.1552(15)
C16 C 1.2508(13) 0.4165(4) 0.2343(15)
Cu1A Cu 1.31621(15) 0.56506(5) 0.27635(19)
Cu2A Cu 1.71306(16) 0.45116(5) 0.2687(2)
Cu2A_2 Cu 0.71306(16) 0.45116(5) 0.2687(2)
Cu2B Cu 1.21306(16) 0.04884(5) -0.2313(2)
Cu3C Cu 0.44587(16) 0.41750(5) -0.2686(2)
Cu3_2 Cu 0.94587(16) 0.08250(5) 0.2314(2)
Cu4B Cu 1.42867(16) 0.44165(5) 0.1966(2)
Cu4C Cu 2.07133(16) -0.05835(5) 0.3034(2)
Cu4C_2 Cu 1.07133(16) -0.05835(5) 0.3034(2)
O3A O 1.8543(8) -0.1417(3) 0.2802(10)
O4B O 0.5827(8) 0.6378(3) -0.0952(10)
O6A O 1.6461(8) -0.0805(3) 0.2294(10)
O7C O 2.1654(7) 0.1247(3) 0.4853(10)
O9_2 O 1.9276(8) 0.1606(3) 0.1190(10)
O10B O 0.6911(9) 0.6066(3) -0.1997(11)
O11B O 1.7404(10) -0.0430(4) -0.0060(12)
O12C O 0.4746(7) 0.5047(3) -0.1601(9)
O14_2 O 2.0236(8) 0.0261(3) 0.1755(10)
O14C O 0.5236(8) 0.4739(3) -0.3245(10)
O16A O 1.2171(11) -0.0258(3) 0.1951(14)
loop_
_geom_bond_atom_site_label_1
_geom_bond_atom_site_label_2
_geom_bond_site_symmetry_1
_geom_bond_site_symmetry_2
Cu1 O1 1_555 1_555
Cu2 O12 1_555 1_555
Cu3 O8 1_555 1_555
Cu4 O5 1_555 1_555
S1 O5 1_555 1_555
S2 O1 1_555 1_555
O2 Cu1 1_555 1_555
O3 C15 1_555 1_555
O4 C15 1_555 1_555
O6 S1 1_555 1_555
O7 S1 1_555 1_555
O8 C13 1_555 1_555
O9 C14 1_555 1_555
O10 C16 1_555 1_555
O11 S2 1_555 1_555
C1 S2 1_555 1_555
O12 Cu3 1_555 1_555
C2 C5 1_555 1_555
C3 H1 1_555 1_555
O13 S2 1_555 1_555
C4 H2 1_555 1_555
O14 Cu1 1_555 1_555
C5 H3 1_555 1_555
C6 C3 1_555 1_555
C7 C1 1_555 1_555
H4 C7 1_555 1_555
O15 Cu2 1_555 1_555
O16 C16 1_555 1_555
C8 C1 1_555 1_555
H5 C8 1_555 1_555
C9 S1 1_555 1_555
C10 C6 1_555 1_555
H6 C10 1_555 1_555
C11 C5 1_555 1_555
C12 C3 1_555 1_555
C13 O15 1_555 1_555
C14 O2 1_555 1_555
C15 C2 1_555 1_555
C16 C12 1_555 1_555
Cu1A O16 1_555 1_555
Cu2A O3 1_555 1_555
Cu2A_2 O6 1_555 1_555
Cu2B O11 1_555 1_555
Cu3C O7 1_555 1_555
Cu3_2 O9 1_555 1_555
Cu4B O4 1_555 1_555
Cu4C O12 1_555 1_555
Cu4C_2 O14 1_555 1_555
O3A Cu2 1_555 1_555
O4B Cu4 1_555 1_555
O6A Cu2 1_555 1_555
O7C Cu3 1_555 1_555
O9_2 Cu3 1_555 1_555
O10B Cu4 1_555 1_555
O11B Cu2 1_555 1_555
O12C Cu4 1_555 1_555
O14_2 Cu3 1_555 1_555
O14C Cu4 1_555 1_555
O16A Cu1 1_555 1_555
O10 Cu4B 1_555 1_555
C2 C8 1_555 1_555
C4 C9 1_555 1_555
C4 C12 1_555 1_555
O14 Cu3_2 1_555 1_555
C6 C14 1_555 1_555
C7 C11 1_555 1_555
C9 C10 1_555 1_555
C11 C13 1_555 1_555
Cu3C O12C 1_555 1_555
Cu3C O14C 1_555 1_555
Cu4C O14_2 1_555 1_555

#END
