
#######################################################################
#
#                 Cambridge Crystallographic Data Centre
#                                CCDC 
#
#######################################################################
#
# If this CIF has been generated from an entry in the Cambridge 
# Structural Database, then it will include bibliographic, chemical, 
# crystal, experimental, refinement or atomic coordinate data resulting 
# from the CCDC's data processing and validation procedures.
#
#######################################################################

data_LUTCIN
_chemical_formula_moiety         '(C16 H12 Cu4 O18 S2)n,2.66n(H2 O1)'
_chemical_name_systematic        
'catena-(bis(\m~6~-5-sulfonatobenzene-1,3-dicarboxylato)-bis(\m~3~-hydroxo)-diaqua-tetra-copper(ii) hydrate)'
_symmetry_cell_setting           monoclinic
_symmetry_space_group_name_H-M   'P 21/n'
_symmetry_Int_Tables_number      14
_space_group_name_Hall           '-P 2yn'
loop_
_symmetry_equiv_pos_site_id
_symmetry_equiv_pos_as_xyz
1 x,y,z
2 1/2-x,1/2+y,1/2-z
3 -x,-y,-z
4 1/2+x,1/2-y,1/2+z
_cell_length_a                   7.252(8)
_cell_length_b                   18.068(19)
_cell_length_c                   10.230(10)
_cell_angle_alpha                90
_cell_angle_beta                 94.216(16)
_cell_angle_gamma                90
_cell_volume                     1336.8
_exptl_crystal_colour            blue
_exptl_crystal_description       block
_cell_formula_units_Z            2
loop_
_atom_site_label
_atom_site_type_symbol
_atom_site_fract_x
_atom_site_fract_y
_atom_site_fract_z
Cu1 Cu 0.13778(16) 0.09413(6) 0.78599(12)
Cu2 Cu -0.03628(17) 0.06851(6) 1.07042(12)
S1 S 0.1293(3) 0.43524(14) 1.3068(3)
O1 O 0.0593(10) 0.1671(4) 1.0844(7)
O2 O 0.1315(8) 0.0336(3) 0.9424(6)
O3 O 0.3438(10) 0.5136(4) 0.8368(7)
O4 O 0.1261(10) 0.1860(4) 0.8766(7)
O5 O 0.1499(17) 0.5125(5) 1.2974(9)
O6 O 0.3287(11) 0.4101(4) 0.7159(8)
O7 O 0.2777(11) 0.4002(5) 1.3881(9)
O8 O -0.0431(10) 0.4100(6) 1.3507(9)
C1 C 0.1475(13) 0.3961(5) 1.1508(10)
C2 C 0.2360(13) 0.4052(5) 0.9293(10)
C3 C 0.2021(13) 0.3307(5) 0.9148(11)
H1 H 0.2213 0.3085 0.8350
C4 C 0.1406(13) 0.2878(5) 1.0139(10)
C5 C 0.1047(13) 0.2075(5) 0.9920(11)
C6 C 0.1110(13) 0.3206(5) 1.1328(11)
H2 H 0.0671 0.2927 1.2003
C7 C 0.2076(12) 0.4378(5) 1.0496(10)
H3 H 0.2295 0.4882 1.0617
C8 C 0.3100(13) 0.4469(5) 0.8176(10)
O9 O 0.1245(12) 0.1548(4) 0.6262(8)
Cu1B Cu -0.13778(16) -0.09413(6) 1.21401(12)
Cu1A Cu 0.36222(16) -0.40587(6) 0.71401(12)
Cu1A_2 Cu 0.36222(16) 0.59413(6) 0.71401(12)
Cu1C Cu -0.36222(16) -0.59413(6) 1.28599(12)
Cu1C_2 Cu -0.36222(16) 0.40587(6) 1.28599(12)
Cu2B Cu 0.03628(17) -0.06851(6) 0.92958(12)
Cu2A Cu -0.46372(17) -0.43149(6) 0.42958(12)
Cu2A_2 Cu -0.46372(17) -0.43149(6) 1.42958(12)
Cu2C Cu 0.46372(17) 0.43149(6) 0.57042(12)
Cu2C_2 Cu 0.46372(17) 0.43149(6) 1.57042(12)
S1B S -0.1293(3) -0.43524(14) 0.6932(3)
O1B O -0.0593(10) -0.1671(4) 0.9156(7)
O2B O -0.1315(8) -0.0336(3) 1.0576(6)
O3B O -0.3438(10) -0.5136(4) 1.1632(7)
O3A O 0.1562(10) 0.0136(4) 0.6632(7)
O3C O -0.1562(10) -0.0136(4) 1.3368(7)
O4B O -0.1261(10) -0.1860(4) 1.1234(7)
O5B O -0.1499(17) -0.5125(5) 0.7026(9)
O6B O -0.3287(11) -0.4101(4) 1.2841(8)
O6A O 0.1713(11) -0.0899(4) 0.7841(8)
O6C O -0.1713(11) 0.0899(4) 1.2159(8)
O7B O -0.2777(11) -0.4002(5) 0.6119(9)
O7A O 0.2223(11) -0.0998(5) 1.1119(9)
O7C O -0.2223(11) 0.0998(5) 0.8881(9)
O8B O 0.0431(10) -0.4100(6) 0.6493(9)
O8A O -0.4569(10) -0.0900(6) 1.1493(9)
O8C O 0.4569(10) 0.0900(6) 0.8507(9)
C1B C -0.1475(13) -0.3961(5) 0.8492(10)
C2B C -0.2360(13) -0.4052(5) 1.0707(10)
C3B C -0.2021(13) -0.3307(5) 1.0852(11)
H1B H -0.2213 -0.3085 1.1650
C4B C -0.1406(13) -0.2878(5) 0.9861(10)
C5B C -0.1047(13) -0.2075(5) 1.0080(11)
C6B C -0.1110(13) -0.3206(5) 0.8672(11)
H2B H -0.0671 -0.2927 0.7997
C7B C -0.2076(12) -0.4378(5) 0.9504(10)
H3B H -0.2295 -0.4882 0.9383
C8B C -0.3100(13) -0.4469(5) 1.1824(10)
O9B O -0.1245(12) -0.1548(4) 1.3738(8)
O10 O 0.051(2) 0.3000(8) 0.5828(15)
O11 O 0.211(4) 0.136(2) 0.374(3)
loop_
_geom_bond_atom_site_label_1
_geom_bond_atom_site_label_2
_geom_bond_site_symmetry_1
_geom_bond_site_symmetry_2
Cu1 O2 1_555 1_555
Cu2 O1 1_555 1_555
S1 O5 1_555 1_555
O1 C5 1_555 1_555
O2 Cu2 1_555 1_555
O3 C8 1_555 1_555
O4 Cu1 1_555 1_555
O6 C8 1_555 1_555
O7 S1 1_555 1_555
O8 S1 1_555 1_555
C1 S1 1_555 1_555
C2 C3 1_555 1_555
C3 H1 1_555 1_555
C4 C3 1_555 1_555
C5 O4 1_555 1_555
C6 C1 1_555 1_555
H2 C6 1_555 1_555
C7 C1 1_555 1_555
H3 C7 1_555 1_555
C8 C2 1_555 1_555
O9 Cu1 1_555 1_555
Cu1B O2B 1_555 1_555
Cu1A O8B 1_555 1_555
Cu1A_2 O3 1_555 1_555
Cu1C O3B 1_555 1_555
Cu1C_2 O8 1_555 1_555
Cu2B O2 1_555 1_555
Cu2A O7B 1_555 1_555
Cu2A_2 O6B 1_555 1_555
Cu2C O6 1_555 1_555
Cu2C_2 O7 1_555 1_555
S1B O5B 1_555 1_555
O1B Cu2B 1_555 1_555
O2B Cu2 1_555 1_555
O3B C8B 1_555 1_555
O3A Cu1 1_555 1_555
O3C Cu1B 1_555 1_555
O4B Cu1B 1_555 1_555
O6B C8B 1_555 1_555
O6A Cu2B 1_555 1_555
O6C Cu2 1_555 1_555
O7B S1B 1_555 1_555
O7A Cu2B 1_555 1_555
O7C Cu2 1_555 1_555
O8B S1B 1_555 1_555
O8A Cu1B 1_555 1_555
O8C Cu1 1_555 1_555
C1B S1B 1_555 1_555
C2B C3B 1_555 1_555
C3B H1B 1_555 1_555
C4B C3B 1_555 1_555
C5B O1B 1_555 1_555
C6B C1B 1_555 1_555
H2B C6B 1_555 1_555
C7B C1B 1_555 1_555
H3B C7B 1_555 1_555
C8B C2B 1_555 1_555
O9B Cu1B 1_555 1_555
C2 C7 1_555 1_555
C4 C5 1_555 1_555
C4 C6 1_555 1_555
Cu2B O2B 1_555 1_555
O4B C5B 1_555 1_555
C2B C7B 1_555 1_555
C4B C5B 1_555 1_555
C4B C6B 1_555 1_555

#END
