
#######################################################################
#
#                 Cambridge Crystallographic Data Centre
#                                CCDC 
#
#######################################################################
#
# If this CIF has been generated from an entry in the Cambridge 
# Structural Database, then it will include bibliographic, chemical, 
# crystal, experimental, refinement or atomic coordinate data resulting 
# from the CCDC's data processing and validation procedures.
#
#######################################################################

data_KULWEV
_chemical_formula_moiety         '(C78 H74 N2 O21 Zn4)n,n(C8 H10)'
_chemical_name_systematic        
"catena-(tris(\m~4~-4,4'-((4-t-Butyl-1,2-phenylene)bis(oxy))dibenzoato)-(\m~4~-oxo)-bis(dimethylformamide)-tetra-zinc p-xylene solvate)"
_symmetry_cell_setting           monoclinic
_symmetry_space_group_name_H-M   'P 21/c'
_symmetry_Int_Tables_number      14
_space_group_name_Hall           '-P 2ybc'
loop_
_symmetry_equiv_pos_site_id
_symmetry_equiv_pos_as_xyz
1 x,y,z
2 -x,1/2+y,1/2-z
3 -x,-y,-z
4 x,1/2-y,1/2+z
_cell_length_a                   12.080(5)
_cell_length_b                   32.556(5)
_cell_length_c                   25.722(5)
_cell_angle_alpha                90
_cell_angle_beta                 97.830(5)
_cell_angle_gamma                90
_cell_volume                     10021.5
_exptl_crystal_colour            colorless
_exptl_crystal_description       block
_cell_formula_units_Z            4
loop_
_atom_site_label
_atom_site_type_symbol
_atom_site_fract_x
_atom_site_fract_y
_atom_site_fract_z
C1 C 0.676(2) 0.9372(6) 0.3302(11)
C2 C 0.7589(14) 0.9276(5) 0.3786(6)
C3 C 0.7221(12) 0.9083(6) 0.4213(8)
H1 H 0.6461 0.9040 0.4217
C4 C 0.7987(17) 0.8955(6) 0.4634(6)
H2 H 0.7741 0.8826 0.4920
C5 C 0.9123(15) 0.9020(5) 0.4628(6)
C6 C 0.9492(11) 0.9213(5) 0.4201(7)
H3 H 1.0252 0.9256 0.4197
C7 C 0.8725(15) 0.9341(4) 0.3780(6)
H4 H 0.8972 0.9470 0.3494
C8 C 1.0661(11) 0.9085(6) 0.5264(6)
C9 C 1.1472(16) 0.8804(4) 0.5166(6)
H5 H 1.1262 0.8553 0.5009
C10 C 1.2598(14) 0.8897(5) 0.5302(6)
H6 H 1.3140 0.8708 0.5236
C11 C 1.2911(12) 0.9272(6) 0.5536(6)
C12 C 1.2100(18) 0.9553(4) 0.5634(5)
H7 H 1.2310 0.9804 0.5791
C13 C 1.0975(15) 0.9460(5) 0.5498(6)
C14 C 0.921(2) 0.9646(10) 0.5733(11)
C15 C 0.927(4) 0.9454(12) 0.6194(14)
H8 H 0.9872 0.9276 0.6288
C16 C 0.847(3) 0.9505(10) 0.6552(9)
H9 H 0.8450 0.9335 0.6840
C17 C 0.7758(18) 0.9818(6) 0.6438(9)
C18 C 0.7746(15) 1.0017(6) 0.5971(8)
H10 H 0.7237 1.0228 0.5887
C19 C 0.847(2) 0.9914(9) 0.5617(9)
H11 H 0.8403 1.0043 0.5291
C20 C 1.419(2) 0.9300(9) 0.5605(11)
C21 C 1.4588(19) 0.9368(11) 0.5102(10)
H12 H 1.4042 0.9523 0.4877
H13 H 1.5279 0.9517 0.5156
H14 H 1.4704 0.9108 0.4942
C22 C 1.436(2) 0.9723(10) 0.5888(11)
H15 H 1.3974 0.9932 0.5671
H16 H 1.4059 0.9710 0.6215
H17 H 1.5139 0.9786 0.5954
C23 C 1.478(2) 0.9097(16) 0.5982(16)
H18 H 1.4377 0.9085 0.6279
H19 H 1.4905 0.8823 0.5865
H20 H 1.5480 0.9232 0.6079
C24 C 0.6897(16) 1.1168(7) 0.7790(10)
C25 C 0.7576(19) 1.1537(6) 0.7812(8)
C26 C 0.8288(16) 1.1634(5) 0.8231(8)
H21 H 0.8344 1.1460 0.8520
C27 C 0.8962(15) 1.1984(6) 0.8261(8)
H22 H 0.9479 1.2033 0.8557
C28 C 0.8853(17) 1.2252(7) 0.7857(10)
C29 C 0.808(2) 1.2183(7) 0.7428(9)
H23 H 0.7974 1.2372 0.7155
C30 C 0.7419(16) 1.1811(7) 0.7404(9)
H24 H 0.6892 1.1758 0.7113
C31 C 1.001(3) 1.2773(7) 0.8301(11)
C32 C 1.118(3) 1.2712(7) 0.8396(14)
H25 H 1.1566 1.2584 0.8152
C33 C 1.175(2) 1.2863(8) 0.8896(16)
C34 C 1.112(3) 1.3054(8) 0.9243(13)
H26 H 1.1494 1.3167 0.9549
C35 C 0.998(2) 1.3084(6) 0.9159(10)
H27 H 0.9576 1.3194 0.9408
C36 C 0.947(2) 1.2939(6) 0.8676(10)
C37 C 1.295(3) 1.2840(11) 0.9008(16)
C38 C 1.325(3) 1.2348(10) 0.9072(14)
H28 H 1.2854 1.2231 0.9334
H29 H 1.3040 1.2212 0.8743
H30 H 1.4042 1.2315 0.9177
C39 C 1.339(2) 1.3035(10) 0.9516(13)
H31 H 1.3009 1.2923 0.9789
H32 H 1.4177 1.2980 0.9597
H33 H 1.3269 1.3326 0.9493
C40 C 1.358(2) 1.3024(9) 0.8599(13)
H34 H 1.3317 1.2905 0.8264
H35 H 1.3454 1.3315 0.8584
H36 H 1.4362 1.2970 0.8688
C41 C 0.7805(19) 1.3277(8) 0.8308(8)
C42 C 0.6696(18) 1.3229(6) 0.8131(8)
H37 H 0.6326 1.2985 0.8178
C43 C 0.6143(15) 1.3562(7) 0.7877(7)
H38 H 0.5388 1.3532 0.7752
C44 C 0.6625(19) 1.3926(7) 0.7798(8)
C45 C 0.774(2) 1.3959(7) 0.7977(9)
H39 H 0.8100 1.4209 0.7946
C46 C 0.8365(17) 1.3626(9) 0.8207(9)
H40 H 0.9138 1.3642 0.8287
C47 C 0.604(2) 1.4306(8) 0.7581(7)
C48 C 0.7245(14) 0.9842(8) 0.8773(10)
C49 C 0.8072(17) 0.9657(7) 0.9216(9)
C50 C 0.8676(14) 0.9326(6) 0.9103(8)
H41 H 0.8585 0.9208 0.8770
C51 C 0.9485(16) 0.9163(6) 0.9535(9)
H42 H 0.9942 0.8940 0.9488
C52 C 0.9523(18) 0.9353(8) 0.9995(10)
C53 C 0.8942(19) 0.9657(7) 1.0121(9)
H43 H 0.9016 0.9762 1.0460
C54 C 0.8189(16) 0.9819(6) 0.9714(10)
H44 H 0.7754 1.0043 0.9781
C55 C 0.7043(14) 0.9916(8) 0.6846(9)
C56 C 1.0772(15) 0.8882(5) 1.0414(6)
C57 C 1.1921(16) 0.8930(4) 1.0536(6)
H45 H 1.2224 0.9189 1.0611
C58 C 1.2618(11) 0.8589(6) 1.0547(5)
H46 H 1.3387 0.8620 1.0629
C59 C 1.2165(14) 0.8201(5) 1.0435(6)
C60 C 1.1015(15) 0.8154(4) 1.0313(6)
H47 H 1.0712 0.7895 1.0239
C61 C 1.0319(11) 0.8495(6) 1.0302(5)
C62 C 1.321(2) 0.7905(9) 1.0484(13)
C63 C 1.262(3) 0.7477(9) 1.0313(12)
H48 H 1.2308 0.7489 0.9950
H49 H 1.3163 0.7260 1.0364
H50 H 1.2038 0.7425 1.0523
C64 C 1.367(2) 0.7889(13) 1.1014(10)
H51 H 1.3112 0.7799 1.1220
H52 H 1.4286 0.7699 1.1057
H53 H 1.3933 0.8157 1.1128
C65 C 1.3937(18) 0.8037(9) 1.0082(10)
H54 H 1.3507 0.8033 0.9740
H55 H 1.4206 0.8311 1.0160
H56 H 1.4560 0.7853 1.0089
C66 C 0.841(3) 0.8592(6) 1.0511(15)
C67 C 0.8686(17) 0.8648(6) 1.0999(14)
H57 H 0.9389 0.8569 1.1160
C68 C 0.792(3) 0.8833(6) 1.1302(8)
H58 H 0.8147 0.8889 1.1655
C69 C 0.680(2) 0.8934(6) 1.1082(12)
C70 C 0.6537(16) 0.8837(6) 1.0574(15)
H59 H 0.5807 0.8884 1.0419
C71 C 0.730(3) 0.8665(6) 1.0255(8)
H60 H 0.7089 0.8604 0.9902
C72 C 0.607(2) 0.9133(5) 1.1396(11)
C73 C 0.504(3) 0.9401(18) 0.9334(17)
H61 H 0.5488 0.9554 0.9118
H62 H 0.5348 0.9435 0.9696
H63 H 0.5052 0.9116 0.9242
C74 C 0.330(4) 0.9327(16) 0.957(2)
H64 H 0.2558 0.9436 0.9501
H65 H 0.3292 0.9041 0.9477
H66 H 0.3588 0.9360 0.9931
C75 C 0.362(3) 0.9740(11) 0.8797(14)
C76 C -0.008(2) 1.0188(16) 0.8324(15)
H67 H -0.0860 1.0229 0.8332
H68 H 0.0106 0.9903 0.8384
H69 H 0.0344 1.0352 0.8592
C77 C -0.076(2) 1.0520(10) 0.7639(14)
H70 H -0.0624 1.0610 0.7297
H71 H -0.1411 1.0350 0.7606
H72 H -0.0868 1.0755 0.7852
C78 C 0.118(3) 1.0275(8) 0.7741(10)
N1 N 0.399(3) 0.9541(8) 0.9258(14)
N2 N 0.017(2) 1.0295(5) 0.7876(8)
O1 O 0.5766(10) 0.9282(4) 0.3347(4)
O2 O 0.7110(8) 0.9561(4) 0.2942(5)
O3 O 0.9647(17) 0.8892(7) 0.5175(8)
O4 O 0.991(2) 0.9619(11) 0.5356(7)
O5 O 0.6965(11) 0.9707(4) 0.7214(5)
O6 O 0.6514(10) 1.0262(4) 0.6751(4)
O7 O 0.6266(10) 1.1080(3) 0.7346(6)
O8 O 0.6910(8) 1.0955(4) 0.8188(5)
O9 O 0.9465(13) 1.2626(4) 0.7834(6)
O10 O 0.8294(12) 1.2944(4) 0.8563(7)
O11 O 0.4984(13) 1.4249(3) 0.7413(5)
O12 O 0.6580(11) 1.4620(5) 0.7551(6)
O13 O 0.7013(10) 0.9626(4) 0.8358(5)
O14 O 0.6842(10) 1.0190(4) 0.8865(4)
O15 O 1.0209(11) 0.9201(6) 1.0451(6)
O16 O 0.9094(14) 0.8409(4) 1.0157(5)
O17 O 0.6426(10) 0.9236(4) 1.1851(6)
O18 O 0.5044(13) 0.9186(4) 1.1164(5)
O19 O 0.1952(14) 1.0119(5) 0.7970(7)
O20 O 0.4145(11) 0.9896(4) 0.8528(7)
O21 O 0.5240(7) 1.0252(3) 0.7752(3)
Zn1 Zn 0.59454(16) 0.97227(6) 0.77437(8)
Zn2 Zn 0.54916(15) 1.05675(6) 0.71542(8)
Zn3 Zn 0.58624(15) 1.05321(6) 0.83812(8)
Zn4 Zn 0.35786(16) 1.01854(6) 0.77765(9)
O1B O 0.4234(10) 1.0718(4) 0.6653(4)
O2B O 0.2890(8) 1.0439(4) 0.7058(5)
O11A O 0.5016(13) 0.9249(3) 0.7587(5)
O12A O 0.3420(11) 0.9620(5) 0.7449(6)
O17B O 0.3574(10) 1.0764(4) 0.8149(6)
O18B O 0.4956(13) 1.0814(4) 0.8836(5)
Zn1A Zn 0.40546(16) 1.47227(6) 0.72563(8)
Zn2B Zn 0.45084(15) 0.94325(6) 0.28458(8)
Zn3B Zn 0.41376(15) 0.94679(6) 1.16188(8)
Zn4A Zn 0.64214(16) 1.51854(6) 0.72235(9)
Zn4B Zn 0.64214(16) 0.98146(6) 0.22235(9)
Zn4B_2 Zn 0.64214(16) 0.98146(6) 1.22235(9)
C79 C 0.474(3) 0.2477(13) 0.746(2)
H73 H 0.5431 0.2333 0.7555
H74 H 0.4775 0.2627 0.7139
H75 H 0.4618 0.2665 0.7732
C80 C 0.381(3) 0.2178(16) 0.7375(12)
C81 C 0.280(4) 0.2384(8) 0.7234(11)
H76 H 0.2804 0.2667 0.7179
C82 C 0.180(3) 0.2169(13) 0.7174(10)
H77 H 0.1131 0.2307 0.7080
C83 C 0.180(3) 0.1747(12) 0.7256(13)
C84 C 0.068(3) 0.1457(10) 0.7241(13)
H78 H 0.0895 0.1177 0.7309
H79 H 0.0241 0.1550 0.7505
H80 H 0.0238 0.1477 0.6902
C85 C 0.292(5) 0.1599(11) 0.7414(11)
H81 H 0.2905 0.1322 0.7503
C86 C 0.401(6) 0.174(2) 0.748(4)
H82 H 0.4683 0.1601 0.7560
loop_
_geom_bond_atom_site_label_1
_geom_bond_atom_site_label_2
_geom_bond_site_symmetry_1
_geom_bond_site_symmetry_2
C1 C2 1_555 1_555
C2 C3 1_555 1_555
C3 H1 1_555 1_555
C4 C3 1_555 1_555
H2 C4 1_555 1_555
C5 C4 1_555 1_555
C6 C5 1_555 1_555
H3 C6 1_555 1_555
C7 C2 1_555 1_555
H4 C7 1_555 1_555
C8 C9 1_555 1_555
C9 H5 1_555 1_555
C10 C9 1_555 1_555
H6 C10 1_555 1_555
C11 C10 1_555 1_555
C12 C11 1_555 1_555
H7 C12 1_555 1_555
C13 C8 1_555 1_555
C14 C15 1_555 1_555
C15 H8 1_555 1_555
C16 C15 1_555 1_555
H9 C16 1_555 1_555
C17 C16 1_555 1_555
C18 C17 1_555 1_555
H10 C18 1_555 1_555
C19 C14 1_555 1_555
H11 C19 1_555 1_555
C20 C11 1_555 1_555
C21 C20 1_555 1_555
H12 C21 1_555 1_555
H13 C21 1_555 1_555
H14 C21 1_555 1_555
C22 C20 1_555 1_555
H15 C22 1_555 1_555
H16 C22 1_555 1_555
H17 C22 1_555 1_555
C23 C20 1_555 1_555
H18 C23 1_555 1_555
H19 C23 1_555 1_555
H20 C23 1_555 1_555
C24 C25 1_555 1_555
C25 C26 1_555 1_555
C26 H21 1_555 1_555
C27 C26 1_555 1_555
H22 C27 1_555 1_555
C28 C27 1_555 1_555
C29 C28 1_555 1_555
H23 C29 1_555 1_555
C30 C25 1_555 1_555
H24 C30 1_555 1_555
C31 C32 1_555 1_555
C32 H25 1_555 1_555
C33 C32 1_555 1_555
C34 C33 1_555 1_555
H26 C34 1_555 1_555
C35 C34 1_555 1_555
H27 C35 1_555 1_555
C36 C31 1_555 1_555
C37 C33 1_555 1_555
C38 C37 1_555 1_555
H28 C38 1_555 1_555
H29 C38 1_555 1_555
H30 C38 1_555 1_555
C39 C37 1_555 1_555
H31 C39 1_555 1_555
H32 C39 1_555 1_555
H33 C39 1_555 1_555
C40 C37 1_555 1_555
H34 C40 1_555 1_555
H35 C40 1_555 1_555
H36 C40 1_555 1_555
C41 C42 1_555 1_555
C42 H37 1_555 1_555
C43 C42 1_555 1_555
H38 C43 1_555 1_555
C44 C43 1_555 1_555
C45 C44 1_555 1_555
H39 C45 1_555 1_555
C46 C41 1_555 1_555
H40 C46 1_555 1_555
C47 C44 1_555 1_555
C48 C49 1_555 1_555
C49 C50 1_555 1_555
C50 H41 1_555 1_555
C51 C50 1_555 1_555
H42 C51 1_555 1_555
C52 C51 1_555 1_555
C53 C52 1_555 1_555
H43 C53 1_555 1_555
C54 C49 1_555 1_555
H44 C54 1_555 1_555
C55 C17 1_555 1_555
C56 C57 1_555 1_555
C57 H45 1_555 1_555
C58 C57 1_555 1_555
H46 C58 1_555 1_555
C59 C58 1_555 1_555
C60 C59 1_555 1_555
H47 C60 1_555 1_555
C61 C56 1_555 1_555
C62 C59 1_555 1_555
C63 C62 1_555 1_555
H48 C63 1_555 1_555
H49 C63 1_555 1_555
H50 C63 1_555 1_555
C64 C62 1_555 1_555
H51 C64 1_555 1_555
H52 C64 1_555 1_555
H53 C64 1_555 1_555
C65 C62 1_555 1_555
H54 C65 1_555 1_555
H55 C65 1_555 1_555
H56 C65 1_555 1_555
C66 C67 1_555 1_555
C67 H57 1_555 1_555
C68 C67 1_555 1_555
H58 C68 1_555 1_555
C69 C68 1_555 1_555
C70 C69 1_555 1_555
H59 C70 1_555 1_555
C71 C66 1_555 1_555
H60 C71 1_555 1_555
C72 C69 1_555 1_555
C73 H61 1_555 1_555
H62 C73 1_555 1_555
H63 C73 1_555 1_555
C74 H64 1_555 1_555
H65 C74 1_555 1_555
H66 C74 1_555 1_555
C75 N1 1_555 1_555
C76 H67 1_555 1_555
H68 C76 1_555 1_555
H69 C76 1_555 1_555
C77 H70 1_555 1_555
H71 C77 1_555 1_555
H72 C77 1_555 1_555
C78 N2 1_555 1_555
N1 C73 1_555 1_555
N2 C76 1_555 1_555
O1 C1 1_555 1_555
O2 C1 1_555 1_555
O3 C5 1_555 1_555
O4 C13 1_555 1_555
O5 C55 1_555 1_555
O6 C55 1_555 1_555
O7 C24 1_555 1_555
O8 C24 1_555 1_555
O9 C28 1_555 1_555
O10 C36 1_555 1_555
O11 C47 1_555 1_555
O12 C47 1_555 1_555
O13 C48 1_555 1_555
O14 C48 1_555 1_555
O15 C52 1_555 1_555
O16 C61 1_555 1_555
O17 C72 1_555 1_555
O18 C72 1_555 1_555
O19 C78 1_555 1_555
O20 C75 1_555 1_555
O21 Zn1 1_555 1_555
Zn1 O5 1_555 1_555
Zn2 O6 1_555 1_555
Zn3 O8 1_555 1_555
Zn4 O19 1_555 1_555
C79 H73 1_555 1_555
H74 C79 1_555 1_555
H75 C79 1_555 1_555
C80 C79 1_555 1_555
C81 C80 1_555 1_555
H76 C81 1_555 1_555
C82 C81 1_555 1_555
H77 C82 1_555 1_555
C83 C82 1_555 1_555
C84 C83 1_555 1_555
H78 C84 1_555 1_555
H79 C84 1_555 1_555
H80 C84 1_555 1_555
C85 C83 1_555 1_555
H81 C85 1_555 1_555
C86 C80 1_555 1_555
H82 C86 1_555 1_555
O1B Zn2 1_555 1_555
O2B Zn4 1_555 1_555
O11A Zn1 1_555 1_555
O12A Zn4 1_555 1_555
O17B Zn4 1_555 1_555
O18B Zn3 1_555 1_555
Zn1A O11 1_555 1_555
Zn2B O1 1_555 1_555
Zn3B O18 1_555 1_555
Zn4A O12 1_555 1_555
Zn4B O2 1_555 1_555
Zn4B_2 O17 1_555 1_555
C6 C7 1_555 1_555
C8 O3 1_555 1_555
C12 C13 1_555 1_555
C14 O4 1_555 1_555
C18 C19 1_555 1_555
C29 C30 1_555 1_555
C31 O9 1_555 1_555
C35 C36 1_555 1_555
C41 O10 1_555 1_555
C45 C46 1_555 1_555
C53 C54 1_555 1_555
C56 O15 1_555 1_555
C60 C61 1_555 1_555
C66 O16 1_555 1_555
C70 C71 1_555 1_555
C74 N1 1_555 1_555
C77 N2 1_555 1_555
O7 Zn2 1_555 1_555
O13 Zn1 1_555 1_555
O14 Zn3 1_555 1_555
O20 Zn4 1_555 1_555
O21 Zn2 1_555 1_555
O21 Zn3 1_555 1_555
O21 Zn4 1_555 1_555
C85 C86 1_555 1_555

#END
