
#######################################################################
#
#                 Cambridge Crystallographic Data Centre
#                                CCDC 
#
#######################################################################
#
# If this CIF has been generated from an entry in the Cambridge 
# Structural Database, then it will include bibliographic, chemical, 
# crystal, experimental, refinement or atomic coordinate data resulting 
# from the CCDC's data processing and validation procedures.
#
#######################################################################

data_KULWIZ
_chemical_formula_moiety         '(C72 H60 O19 Zn4)n'
_chemical_name_systematic        
"catena-(tris(\m~4~-4,4'-((4-t-utyl-1,2-phenylene)bis(oxy))dibenzoato)-(\m~4~-oxo)-tetra-zinc unknown solvate)"
_symmetry_cell_setting           monoclinic
_symmetry_space_group_name_H-M   'P 21/c'
_symmetry_Int_Tables_number      14
_space_group_name_Hall           '-P 2ybc'
loop_
_symmetry_equiv_pos_site_id
_symmetry_equiv_pos_as_xyz
1 x,y,z
2 -x,1/2+y,1/2-z
3 -x,-y,-z
4 x,1/2-y,1/2+z
_cell_length_a                   12.306(9)
_cell_length_b                   26.370(18)
_cell_length_c                   22.124(16)
_cell_angle_alpha                90
_cell_angle_beta                 96.549(13)
_cell_angle_gamma                90
_cell_volume                     7132.59
_exptl_crystal_colour            colorless
_exptl_crystal_description       block
_cell_formula_units_Z            4
loop_
_atom_site_label
_atom_site_type_symbol
_atom_site_fract_x
_atom_site_fract_y
_atom_site_fract_z
_atom_site_U_iso_or_equiv
_atom_site_thermal_displace_type
C1 C 0.8036(13) 0.6106(6) 0.7784(8) 0.0658 Uani
C2 C 0.7308(13) 0.6497(7) 0.8024(7) 0.0726 Uani
C3 C 0.7761(11) 0.6907(6) 0.8334(7) 0.0646 Uani
H1 H 0.8516 0.6947 0.8395 0.0780 Uiso
C4 C 0.7100(10) 0.7256(6) 0.8554(7) 0.0649 Uani
H2 H 0.7391 0.7538 0.8765 0.0780 Uiso
C5 C 0.6021(14) 0.7184(5) 0.8459(7) 0.0615 Uani
C6 C 0.5509(13) 0.6777(6) 0.8154(7) 0.0688 Uani
H3 H 0.4752 0.6746 0.8117 0.0820 Uiso
C7 C 0.6146(13) 0.6414(6) 0.7904(7) 0.0747 Uani
H4 H 0.5846 0.6141 0.7678 0.0900 Uiso
C8 C 0.4281(13) 0.7609(5) 0.8496(8) 0.0528 Uani
C9 C 0.3960(11) 0.7732(6) 0.7948(8) 0.0610 Uani
C10 C 0.2858(12) 0.7806(5) 0.7746(8) 0.0723 Uani
H5 H 0.2646 0.7907 0.7347 0.0870 Uiso
C11 C 0.2075(10) 0.7729(5) 0.8144(8) 0.0554 Uani
C12 C 0.2444(14) 0.7600(6) 0.8715(9) 0.0865 Uani
H6 H 0.1936 0.7562 0.8992 0.1040 Uiso
C13 C 0.3500(14) 0.7523(6) 0.8913(7) 0.0713 Uani
H7 H 0.3716 0.7416 0.9309 0.0860 Uiso
C14 C 0.0878(11) 0.7805(6) 0.7929(7) 0.0636 Uani
C15 C 0.0418(13) 0.7384(7) 0.7527(10) 0.1300 Uani
H8 H 0.0454 0.7073 0.7753 0.1940 Uiso
H9 H 0.0835 0.7351 0.7188 0.1940 Uiso
H10 H -0.0330 0.7458 0.7382 0.1940 Uiso
C16 C 0.0185(13) 0.7861(10) 0.8406(10) 0.1676 Uani
H11 H -0.0567 0.7836 0.8237 0.2490 Uiso
H12 H 0.0312 0.8187 0.8596 0.2490 Uiso
H13 H 0.0348 0.7599 0.8704 0.2490 Uiso
C17 C 0.0692(13) 0.8293(9) 0.7574(15) 0.2270 Uani
H14 H 0.0888 0.8245 0.7170 0.3390 Uiso
H15 H 0.1134 0.8556 0.7774 0.3390 Uiso
H16 H -0.0066 0.8386 0.7553 0.3390 Uiso
C18 C 0.5550(12) 0.8110(6) 0.7552(7) 0.0555 Uani
C19 C 0.6348(11) 0.8017(5) 0.7148(7) 0.0605 Uani
H17 H 0.6294 0.7734 0.6896 0.0730 Uiso
C20 C 0.7197(10) 0.8350(5) 0.7136(7) 0.0567 Uani
H18 H 0.7696 0.8309 0.6854 0.0680 Uiso
C21 C 0.7310(10) 0.8751(5) 0.7546(7) 0.0519 Uani
C22 C 0.6568(11) 0.8812(6) 0.7971(7) 0.0649 Uani
H19 H 0.6683 0.9061 0.8269 0.0780 Uiso
C23 C 0.5659(12) 0.8501(6) 0.7948(6) 0.0573 Uani
H20 H 0.5126 0.8562 0.8205 0.0690 Uiso
C24 C 0.5388(14) 0.3509(7) 0.3570(8) 0.0794 Uani
C25 C 0.6270(16) 0.3172(7) 0.3422(9) 0.1030 Uani
H21 H 0.6195 0.2822 0.3389 0.1240 Uiso
C26 C 0.7224(15) 0.3427(8) 0.3335(8) 0.1038 Uani
H22 H 0.7790 0.3238 0.3203 0.1250 Uiso
C27 C 0.7401(14) 0.3954(7) 0.3434(7) 0.0709 Uani
C28 C 0.6591(12) 0.4249(7) 0.3640(8) 0.0875 Uani
H23 H 0.6718 0.4586 0.3749 0.1050 Uiso
C29 C 0.5577(14) 0.4022(7) 0.3680(7) 0.0858 Uani
H24 H 0.5005 0.4223 0.3784 0.1030 Uiso
C30 C 0.8466(11) 0.4213(8) 0.3357(7) 0.0665 Uani
C31 C 0.8234(15) 0.4660(6) 0.6176(6) 0.0609 Uani
C32 C 0.7492(13) 0.4323(6) 0.5787(7) 0.0617 Uani
C33 C 0.6335(14) 0.4505(7) 0.5649(7) 0.0804 Uani
H25 H 0.6141 0.4823 0.5781 0.0970 Uiso
C34 C 0.5578(17) 0.4211(9) 0.5337(9) 0.1220 Uani
H26 H 0.4864 0.4329 0.5262 0.1480 Uiso
C35 C 0.5836(15) 0.3725(9) 0.5119(7) 0.0804 Uani
C36 C 0.6953(19) 0.3559(6) 0.5211(7) 0.0845 Uani
H27 H 0.7155 0.3250 0.5055 0.1010 Uiso
C37 C 0.7748(15) 0.3875(7) 0.5546(7) 0.0807 Uani
H28 H 0.8473 0.3767 0.5600 0.0970 Uiso
C38 C 0.410(2) 0.3502(9) 0.4636(10) 0.1278 Uani
C39 C 0.3312(17) 0.3656(10) 0.5022(10) 0.1567 Uani
H29 H 0.3476 0.3691 0.5441 0.1890 Uiso
C40 C 0.2221(18) 0.3755(10) 0.4704(12) 0.1401 Uani
C41 C 0.1872(19) 0.3723(9) 0.4094(12) 0.1451 Uani
H30 H 0.1193 0.3821 0.3901 0.1740 Uiso
C42 C 0.2715(17) 0.3521(9) 0.3825(11) 0.1459 Uani
H31 H 0.2531 0.3418 0.3424 0.1750 Uiso
C43 C 0.3806(13) 0.3441(7) 0.4048(11) 0.0978 Uani
C44 C 0.1898(17) 0.4557(7) 0.5384(10) 0.1474 Uani
H32 H 0.2600 0.4486 0.5603 0.2210 Uiso
H33 H 0.1426 0.4700 0.5656 0.2210 Uiso
H34 H 0.1983 0.4793 0.5062 0.2210 Uiso
C45 C 0.0323(17) 0.4120(11) 0.4682(12) 0.2106 Uani
H35 H 0.0153 0.3808 0.4469 0.3160 Uiso
H36 H 0.0410 0.4385 0.4394 0.3160 Uiso
H37 H -0.0261 0.4206 0.4916 0.3160 Uiso
C46 C 0.1195(17) 0.3670(7) 0.5610(9) 0.1418 Uani
H38 H 0.0864 0.3837 0.5928 0.2120 Uiso
H39 H 0.1881 0.3525 0.5774 0.2120 Uiso
H40 H 0.0718 0.3406 0.5438 0.2120 Uiso
C47 C 0.8284(11) 0.9109(6) 0.7583(11) 0.0647 Uani
C48 C 1.1874(15) 0.5679(6) 1.1729(8) 0.0732 Uani
C49 C 1.2603(13) 0.5973(7) 1.1400(9) 0.0822 Uani
C50 C 1.2136(14) 0.6237(7) 1.0885(11) 0.1160 Uani
H41 H 1.1384 0.6218 1.0779 0.1370 Uiso
C51 C 1.2742(17) 0.6523(7) 1.0531(10) 0.1187 Uani
H42 H 1.2443 0.6688 1.0180 0.1420 Uiso
C52 C 1.384(2) 0.6542(7) 1.0744(11) 0.0999 Uani
C53 C 1.4344(16) 0.6289(8) 1.1246(9) 0.0989 Uani
H43 H 1.5097 0.6300 1.1355 0.1190 Uiso
C54 C 1.3663(14) 0.6026(6) 1.1564(7) 0.0822 Uani
H44 H 1.3959 0.5870 1.1923 0.0990 Uiso
C55 C 1.5473(16) 0.6803(8) 1.0376(8) 0.0897 Uani
C56 C 1.620(2) 0.7222(10) 1.0386(9) 0.1450 Uani
H45 H 1.5853 0.7533 1.0411 0.1770 Uiso
C57 C 1.7133(17) 0.7259(11) 1.0370(11) 0.1476 Uani
H46 H 1.7476 0.7573 1.0416 0.1750 Uiso
C58 C 1.7743(15) 0.6811(9) 1.0277(9) 0.1093 Uani
C59 C 1.7110(13) 0.6331(8) 1.0222(8) 0.1135 Uani
H47 H 1.7425 0.6021 1.0141 0.1370 Uiso
C60 C 1.6034(13) 0.6379(10) 1.0299(9) 0.1013 Uani
C61 C 1.8962(16) 0.6824(7) 1.0283(8) 0.1391 Uani
C62 C 1.9361(17) 0.7324(8) 1.0018(12) 0.1881 Uani
H48 H 1.8966 0.7384 0.9625 0.2810 Uiso
H49 H 2.0129 0.7299 0.9980 0.2810 Uiso
H50 H 1.9237 0.7600 1.0285 0.2810 Uiso
C63 C 1.9487(15) 0.6837(10) 1.0953(8) 0.1569 Uani
H51 H 1.9261 0.7140 1.1146 0.2360 Uiso
H52 H 2.0270 0.6836 1.0965 0.2360 Uiso
H53 H 1.9258 0.6545 1.1164 0.2360 Uiso
C64 C 1.9349(17) 0.6367(10) 0.9920(11) 0.1950 Uani
H54 H 1.8758 0.6254 0.9630 0.2880 Uiso
H55 H 1.9573 0.6095 1.0196 0.2880 Uiso
H56 H 1.9954 0.6469 0.9710 0.2880 Uiso
C65 C 1.4495(15) 0.5791(7) 0.9848(10) 0.0820 Uani
C66 C 1.3862(15) 0.5388(6) 0.9970(8) 0.0778 Uani
H57 H 1.4057 0.5179 1.0303 0.0930 Uiso
C67 C 1.2943(14) 0.5303(6) 0.9592(9) 0.0797 Uani
H58 H 1.2484 0.5037 0.9670 0.0960 Uiso
C68 C 1.2674(16) 0.5612(7) 0.9080(9) 0.0829 Uani
C69 C 1.3369(15) 0.5992(7) 0.8956(8) 0.0848 Uani
H59 H 1.3213 0.6186 0.8605 0.1020 Uiso
C70 C 1.4285(15) 0.6089(7) 0.9340(10) 0.0911 Uani
H60 H 1.4757 0.6350 0.9261 0.1090 Uiso
C71 C 1.1691(16) 0.5514(9) 0.8641(11) 0.0919 Uani
O1 O 0.9020(8) 0.6197(4) 0.7823(5) 0.0826 Uani
O2 O 0.7558(8) 0.5713(4) 0.7541(5) 0.0816 Uani
O3 O 0.5368(9) 0.7545(4) 0.8718(4) 0.0785 Uani
O4 O 0.4657(8) 0.7780(3) 0.7493(4) 0.0671 Uani
O5 O 0.8718(7) 0.9136(3) 0.7078(5) 0.0613 Uani
O6 O 0.8479(8) 0.9342(4) 0.8051(5) 0.0738 Uani
O7 O 0.9261(9) 0.4537(4) 0.6182(5) 0.0757 Uani
O8 O 0.7849(8) 0.4983(4) 0.6470(5) 0.0787 Uani
O9 O 0.5177(11) 0.3377(5) 0.4819(6) 0.1013 Uani
O10 O 0.4475(9) 0.3246(4) 0.3648(5) 0.0977 Uani
O11 O 0.8597(8) 0.4650(4) 0.3531(5) 0.0827 Uani
O12 O 0.9105(8) 0.3940(4) 0.3063(5) 0.0856 Uani
O13 O 1.1192(8) 0.5077(4) 0.8729(5) 0.0853 Uani
O14 O 1.1378(11) 0.5820(5) 0.8234(8) 0.1152 Uani
O15 O 1.5479(10) 0.5873(4) 1.0254(5) 0.0938 Uani
O16 O 1.4397(11) 0.6836(4) 1.0349(6) 0.0970 Uani
O17 O 1.2363(8) 0.5457(4) 1.2220(5) 0.0750 Uani
O18 O 1.0882(8) 0.5629(4) 1.1536(5) 0.0806 Uani
O19 O 0.9772(7) 0.5104(3) 0.7449(5) 0.0731 Uani
Zn1 Zn 1.02202(13) 0.57974(7) 0.76186(9) 0.0696 Uani
Zn2 Zn 0.82283(13) 0.50913(6) 0.73175(8) 0.0646 Uani
Zn3 Zn 1.04000(13) 0.48568(6) 0.67317(9) 0.0665 Uani
Zn4 Zn 1.03264(13) 0.46723(6) 0.81327(9) 0.0683 Uani
C72 C 0.1388(17) 0.4058(7) 0.5109(8) 0.1481 Uani
O5A O 1.1282(7) 0.4136(3) 0.7922(5) 0.0613 Uani
O6A O 1.1521(8) 0.4342(4) 0.6949(5) 0.0738 Uani
O11B O 1.1403(8) 0.5350(4) 0.6469(5) 0.0827 Uani
O12B O 1.0895(8) 0.6060(4) 0.6937(5) 0.0856 Uani
O17B O 0.7637(8) 0.4543(4) 0.7780(5) 0.0750 Uani
O18B O 0.9118(8) 0.4371(4) 0.8464(5) 0.0806 Uani
Zn1B Zn 0.97798(13) 0.42026(7) 0.23814(9) 0.0696 Uani
Zn2B Zn 1.17717(13) 0.49087(6) 1.26825(8) 0.0646 Uani
Zn3A Zn 0.96000(13) 0.98568(6) 0.82683(9) 0.0665 Uani
Zn3B Zn 0.96000(13) 0.51432(6) 0.32683(9) 0.0665 Uani
Zn4A Zn 0.96736(13) 0.96723(6) 0.68673(9) 0.0683 Uani
Zn4B Zn 0.96736(13) 0.53277(6) 1.18673(9) 0.0683 Uani
loop_
_atom_site_aniso_label
_atom_site_aniso_U_11
_atom_site_aniso_U_22
_atom_site_aniso_U_33
_atom_site_aniso_U_23
_atom_site_aniso_U_13
_atom_site_aniso_U_12
C1 0.042(10) 0.067(12) 0.091(13) 0.021(10) 0.019(9) 0.014(9)
C2 0.069(12) 0.085(13) 0.070(13) 0.023(10) 0.035(10) 0.016(10)
C3 0.034(8) 0.079(12) 0.084(13) -0.031(10) 0.020(8) -0.009(9)
C4 0.018(8) 0.087(12) 0.087(12) -0.011(9) -0.006(8) -0.019(8)
C5 0.083(12) 0.046(10) 0.057(11) -0.003(8) 0.014(9) 0.007(9)
C6 0.073(11) 0.079(12) 0.059(12) 0.002(9) 0.027(9) -0.007(10)
C7 0.075(12) 0.069(11) 0.088(13) -0.007(9) 0.043(10) 0.002(9)
C8 0.067(12) 0.052(9) 0.036(11) -0.024(8) -0.009(10) 0.012(8)
C9 0.029(8) 0.117(13) 0.039(11) -0.042(10) 0.013(8) -0.021(8)
C10 0.049(10) 0.041(9) 0.127(15) -0.017(9) 0.010(10) -0.018(7)
C11 0.024(8) 0.052(9) 0.095(13) -0.030(9) 0.028(9) -0.020(7)
C12 0.066(11) 0.112(15) 0.079(15) 0.025(11) -0.002(10) 0.026(11)
C13 0.093(12) 0.083(12) 0.038(10) -0.004(8) 0.008(10) 0.026(10)
C14 0.046(10) 0.062(11) 0.081(12) -0.009(9) -0.001(9) -0.009(8)
C15 0.051(11) 0.124(17) 0.21(2) -0.049(16) -0.007(13) 0.009(11)
C16 0.046(11) 0.30(3) 0.16(2) -0.14(2) 0.026(13) -0.043(15)
C17 0.028(10) 0.19(2) 0.47(5) 0.18(3) 0.059(18) 0.045(13)
C18 0.047(10) 0.059(10) 0.056(12) 0.010(9) -0.013(9) 0.011(8)
C19 0.048(9) 0.053(10) 0.078(12) -0.001(8) -0.003(9) 0.007(8)
C20 0.020(7) 0.067(10) 0.079(12) 0.001(9) -0.012(7) -0.009(7)
C21 0.020(7) 0.063(10) 0.072(11) -0.003(9) 0.002(8) -0.003(7)
C22 0.032(8) 0.086(12) 0.073(12) 0.007(9) -0.010(8) 0.008(8)
C23 0.059(10) 0.099(13) 0.014(8) -0.007(8) 0.004(7) 0.005(9)
C24 0.074 0.086 0.081 -0.001 0.021 -0.029
C25 0.102 0.085 0.133 -0.011 0.061 0.018
C26 0.088 0.122 0.113 -0.017 0.062 -0.013
C27 0.093 0.063 0.059 0.003 0.018 -0.005
C28 0.05 0.089 0.13 -0.033 0.039 -0.018
C29 0.092 0.09 0.082 -0.016 0.039 -0.002
C30 0.03 0.11 0.064 0.02 0.025 0.016
C31 0.091(14) 0.063(11) 0.023(10) 0.000(8) -0.018(9) -0.016(11)
C32 0.083(13) 0.062(11) 0.043(10) 0.001(9) 0.020(9) -0.009(9)
C33 0.085(13) 0.091(13) 0.073(13) -0.010(10) 0.043(10) -0.004(11)
C34 0.119(17) 0.15(2) 0.110(18) -0.074(15) 0.069(14) -0.091(16)
C35 0.073(13) 0.120(17) 0.044(12) 0.004(11) -0.012(10) -0.035(13)
C36 0.17(2) 0.052(11) 0.034(11) -0.014(8) 0.023(12) -0.013(13)
C37 0.111(14) 0.074(13) 0.059(12) -0.007(10) 0.018(10) -0.005(11)
C38 0.16(2) 0.17(2) 0.063(15) -0.070(14) 0.054(15) -0.105(17)
C39 0.092(15) 0.29(3) 0.089(16) -0.129(17) 0.014(13) -0.013(16)
C40 0.088(12) 0.203(14) 0.130(15) -0.046(13) 0.016(11) -0.032(11)
C41 0.095(11) 0.202(14) 0.140(15) -0.058(12) 0.021(11) -0.026(10)
C42 0.088(11) 0.201(15) 0.150(15) -0.050(13) 0.019(11) -0.025(12)
C43 0.033(9) 0.128(16) 0.14(2) -0.028(14) 0.043(11) -0.026(10)
C44 0.16(2) 0.154(19) 0.14(2) -0.021(14) 0.068(16) -0.041(16)
C45 0.109(19) 0.29(4) 0.21(3) 0.11(3) -0.08(2) 0.01(2)
C46 0.17(2) 0.148(19) 0.124(19) 0.055(15) 0.089(16) 0.024(16)
C47 0.026 0.052 0.118 0.032 0.017 0.02
C48 0.074 0.084 0.058 0.006 -0.008 0.014
C49 0.041 0.092 0.121 -0.009 0.041 -0.002
C50 0.062(13) 0.104(16) 0.18(2) 0.050(15) 0.005(14) 0.049(12)
C51 0.081(15) 0.105(16) 0.18(2) 0.079(15) 0.058(16) 0.014(12)
C52 0.13(2) 0.079(13) 0.107(19) 0.014(13) 0.084(16) -0.027(13)
C53 0.111(16) 0.116(17) 0.074(15) -0.030(13) 0.029(13) -0.067(14)
C54 0.094(14) 0.088(12) 0.064(12) -0.008(9) 0.007(10) -0.064(11)
C55 0.060(13) 0.125(17) 0.073(14) 0.010(11) -0.040(10) -0.001(13)
C56 0.15(2) 0.17(2) 0.108(18) 0.007(15) -0.015(18) -0.11(2)
C57 0.052(13) 0.20(2) 0.18(2) 0.021(19) -0.034(15) -0.040(13)
C58 0.062(9) 0.159(13) 0.108(11) 0.087(11) 0.014(9) -0.003(9)
C59 0.060(8) 0.162(12) 0.119(10) 0.087(10) 0.012(8) 0.010(8)
C60 0.042(8) 0.151(13) 0.112(11) 0.086(10) 0.013(9) 0.003(10)
C61 0.094(12) 0.20(2) 0.116(18) 0.076(16) -0.019(13) -0.033(13)
C62 0.109(18) 0.25(3) 0.21(3) 0.12(2) 0.038(18) -0.006(18)
C63 0.090(16) 0.29(3) 0.090(18) -0.027(18) 0.007(13) -0.033(17)
C64 0.125(19) 0.33(4) 0.13(2) -0.08(2) 0.014(15) 0.13(2)
C65 0.071(13) 0.076(13) 0.096(17) -0.032(12) -0.004(12) -0.003(11)
C66 0.081(13) 0.039(10) 0.114(16) -0.006(10) 0.014(12) 0.006(9)
C67 0.068(12) 0.062(12) 0.110(16) -0.037(12) 0.014(11) -0.030(10)
C68 0.108(16) 0.062(12) 0.079(15) -0.003(11) 0.012(12) -0.002(12)
C69 0.083(13) 0.087(13) 0.083(14) 0.020(11) 0.004(11) -0.017(11)
C70 0.071(13) 0.112(16) 0.088(16) 0.000(13) -0.001(11) -0.022(11)
C71 0.068(14) 0.108(19) 0.105(19) -0.059(14) 0.033(13) -0.043(13)
O1 0.054(7) 0.070(7) 0.128(10) -0.006(6) 0.029(7) -0.014(6)
O2 0.051(6) 0.061(7) 0.132(10) -0.027(7) 0.007(6) -0.008(6)
O3 0.082(8) 0.094(8) 0.059(7) 0.000(6) 0.006(6) 0.025(7)
O4 0.056(6) 0.074(7) 0.070(8) -0.019(6) 0.002(6) -0.006(6)
O5 0.038 0.063 0.086 0.005 0.02 -0.011
O6 0.061 0.085 0.079 -0.021 0.024 0.001
O7 0.089(8) 0.069(7) 0.074(8) -0.003(6) 0.031(7) 0.023(6)
O8 0.088(8) 0.053(7) 0.097(9) -0.018(6) 0.019(7) 0.010(6)
O9 0.097(10) 0.113(10) 0.095(10) -0.036(8) 0.016(8) -0.069(9)
O10 0.074 0.121 0.107 -0.015 0.049 -0.05
O11 0.077 0.053 0.121 0.004 0.024 0.001
O12 0.062 0.074 0.129 0.001 0.046 -0.021
O13 0.066(7) 0.095(8) 0.098(9) -0.001(7) 0.023(6) -0.014(7)
O14 0.104(11) 0.098(11) 0.140(14) 0.004(9) -0.002(10) -0.012(8)
O15 0.099(9) 0.080(9) 0.105(10) 0.027(7) 0.023(8) 0.036(7)
O16 0.085(9) 0.091(9) 0.115(11) -0.016(8) 0.011(8) 0.001(7)
O17 0.056 0.076 0.097 -0.003 0.026 -0.01
O18 0.039 0.079 0.124 0.001 0.01 0.001
O19 0.060(6) 0.068(7) 0.096(8) 0.001(6) 0.029(6) -0.006(5)
Zn1 0.0482(11) 0.0658(12) 0.0976(16) -0.0033(10) 0.0201(10) -0.0065(9)
Zn2 0.0519(11) 0.0621(12) 0.0829(15) -0.0041(10) 0.0207(9) -0.0047(9)
Zn3 0.0505(11) 0.0619(12) 0.0884(15) 0.0042(10) 0.0131(10) -0.0009(9)
Zn4 0.0509(11) 0.0679(12) 0.0880(15) -0.0035(11) 0.0157(10) -0.0067(9)
C72 0.20(3) 0.125(18) 0.13(2) -0.010(14) 0.065(18) -0.044(16)
O5A 0.038 0.063 0.086 -0.005 0.02 0.011
O6A 0.061 0.085 0.079 0.021 0.024 -0.001
O11B 0.077 0.053 0.121 0.004 0.024 0.001
O12B 0.062 0.074 0.129 0.001 0.046 -0.021
O17B 0.056 0.076 0.097 -0.003 0.026 -0.01
O18B 0.039 0.079 0.124 0.001 0.01 0.001
Zn1B 0.0482 0.0658 0.0976 -0.0033 0.0201 -0.0065
Zn2B 0.0519 0.0621 0.0829 -0.0041 0.0207 -0.0047
Zn3A 0.0505 0.0619 0.0884 -0.0042 0.0131 0.0009
Zn3B 0.0505 0.0619 0.0884 0.0042 0.0131 -0.0009
Zn4A 0.0509 0.0679 0.088 0.0035 0.0157 0.0067
Zn4B 0.0509 0.0679 0.088 -0.0035 0.0157 -0.0067
loop_
_geom_bond_atom_site_label_1
_geom_bond_atom_site_label_2
_geom_bond_site_symmetry_1
_geom_bond_site_symmetry_2
C1 C2 1_555 1_555
C2 C3 1_555 1_555
C3 H1 1_555 1_555
C4 C3 1_555 1_555
H2 C4 1_555 1_555
C5 C4 1_555 1_555
C6 C5 1_555 1_555
H3 C6 1_555 1_555
C7 C2 1_555 1_555
H4 C7 1_555 1_555
C8 C9 1_555 1_555
C9 C10 1_555 1_555
C10 H5 1_555 1_555
C11 C10 1_555 1_555
C12 C11 1_555 1_555
H6 C12 1_555 1_555
C13 C8 1_555 1_555
H7 C13 1_555 1_555
C14 C11 1_555 1_555
C15 C14 1_555 1_555
H8 C15 1_555 1_555
H9 C15 1_555 1_555
H10 C15 1_555 1_555
C16 C14 1_555 1_555
H11 C16 1_555 1_555
H12 C16 1_555 1_555
H13 C16 1_555 1_555
C17 C14 1_555 1_555
H14 C17 1_555 1_555
H15 C17 1_555 1_555
H16 C17 1_555 1_555
C18 C19 1_555 1_555
C19 H17 1_555 1_555
C20 C19 1_555 1_555
H18 C20 1_555 1_555
C21 C20 1_555 1_555
C22 C21 1_555 1_555
H19 C22 1_555 1_555
C23 C18 1_555 1_555
H20 C23 1_555 1_555
C24 C25 1_555 1_555
C25 H21 1_555 1_555
C26 C25 1_555 1_555
H22 C26 1_555 1_555
C27 C26 1_555 1_555
C28 C27 1_555 1_555
H23 C28 1_555 1_555
C29 C24 1_555 1_555
H24 C29 1_555 1_555
C30 C27 1_555 1_555
C31 C32 1_555 1_555
C32 C33 1_555 1_555
C33 H25 1_555 1_555
C34 C33 1_555 1_555
H26 C34 1_555 1_555
C35 C34 1_555 1_555
C36 C35 1_555 1_555
H27 C36 1_555 1_555
C37 C32 1_555 1_555
H28 C37 1_555 1_555
C38 C39 1_555 1_555
C39 H29 1_555 1_555
C40 C39 1_555 1_555
C41 C40 1_555 1_555
H30 C41 1_555 1_555
C42 C41 1_555 1_555
H31 C42 1_555 1_555
C43 C38 1_555 1_555
C44 H32 1_555 1_555
H33 C44 1_555 1_555
H34 C44 1_555 1_555
C45 H35 1_555 1_555
H36 C45 1_555 1_555
H37 C45 1_555 1_555
C46 H38 1_555 1_555
H39 C46 1_555 1_555
H40 C46 1_555 1_555
C47 C21 1_555 1_555
C48 C49 1_555 1_555
C49 C50 1_555 1_555
C50 H41 1_555 1_555
C51 C50 1_555 1_555
H42 C51 1_555 1_555
C52 C51 1_555 1_555
C53 C52 1_555 1_555
H43 C53 1_555 1_555
C54 C49 1_555 1_555
H44 C54 1_555 1_555
C55 C56 1_555 1_555
C56 H45 1_555 1_555
C57 C56 1_555 1_555
H46 C57 1_555 1_555
C58 C57 1_555 1_555
C59 C58 1_555 1_555
H47 C59 1_555 1_555
C60 C55 1_555 1_555
C61 C58 1_555 1_555
C62 C61 1_555 1_555
H48 C62 1_555 1_555
H49 C62 1_555 1_555
H50 C62 1_555 1_555
C63 C61 1_555 1_555
H51 C63 1_555 1_555
H52 C63 1_555 1_555
H53 C63 1_555 1_555
C64 C61 1_555 1_555
H54 C64 1_555 1_555
H55 C64 1_555 1_555
H56 C64 1_555 1_555
C65 C66 1_555 1_555
C66 H57 1_555 1_555
C67 C66 1_555 1_555
H58 C67 1_555 1_555
C68 C67 1_555 1_555
C69 C68 1_555 1_555
H59 C69 1_555 1_555
C70 C65 1_555 1_555
H60 C70 1_555 1_555
C71 C68 1_555 1_555
O1 C1 1_555 1_555
O2 C1 1_555 1_555
O3 C5 1_555 1_555
O4 C9 1_555 1_555
O5 C47 1_555 1_555
O6 C47 1_555 1_555
O7 C31 1_555 1_555
O8 C31 1_555 1_555
O9 C35 1_555 1_555
O10 C24 1_555 1_555
O11 C30 1_555 1_555
O12 C30 1_555 1_555
O13 C71 1_555 1_555
O14 C71 1_555 1_555
O15 C60 1_555 1_555
O16 C52 1_555 1_555
O17 C48 1_555 1_555
O18 C48 1_555 1_555
O19 Zn1 1_555 1_555
Zn1 O1 1_555 1_555
Zn2 O2 1_555 1_555
Zn3 O7 1_555 1_555
Zn4 O13 1_555 1_555
C72 C40 1_555 1_555
O5A Zn4 1_555 1_555
O6A Zn3 1_555 1_555
O11B Zn3 1_555 1_555
O12B Zn1 1_555 1_555
O17B Zn2 1_555 1_555
O18B Zn4 1_555 1_555
Zn1B O12 1_555 1_555
Zn2B O17 1_555 1_555
Zn3A O6 1_555 1_555
Zn3B O11 1_555 1_555
Zn4A O5 1_555 1_555
Zn4B O18 1_555 1_555
C6 C7 1_555 1_555
C8 O3 1_555 1_555
C12 C13 1_555 1_555
C18 O4 1_555 1_555
C22 C23 1_555 1_555
C28 C29 1_555 1_555
C36 C37 1_555 1_555
C38 O9 1_555 1_555
C42 C43 1_555 1_555
C43 O10 1_555 1_555
C44 C72 1_555 1_555
C45 C72 1_555 1_555
C46 C72 1_555 1_555
C53 C54 1_555 1_555
C55 O16 1_555 1_555
C59 C60 1_555 1_555
C65 O15 1_555 1_555
C69 C70 1_555 1_555
O8 Zn2 1_555 1_555
O14 Zn1 1_555 1_555
O19 Zn2 1_555 1_555
O19 Zn3 1_555 1_555
O19 Zn4 1_555 1_555

#END
