
#######################################################################
#
#                 Cambridge Crystallographic Data Centre
#                                CCDC 
#
#######################################################################
#
# If this CIF has been generated from an entry in the Cambridge 
# Structural Database, then it will include bibliographic, chemical, 
# crystal, experimental, refinement or atomic coordinate data resulting 
# from the CCDC's data processing and validation procedures.
#
#######################################################################

data_KUMJOT
_chemical_formula_moiety         '(C78 H74 N2 O21 Zn4)n,3n(C8 H8)'
_chemical_name_systematic        
"catena-(tris(\m~4~-4,4'-((4-t-Butyl-1,2-phenylene)bis(oxy))dibenzoato)-(\m~4~-oxo)-bis(dimethylformamide)-tetra-zinc styrene solvate)"
_symmetry_cell_setting           monoclinic
_symmetry_space_group_name_H-M   'P 21/c'
_symmetry_Int_Tables_number      14
_space_group_name_Hall           '-P 2ybc'
loop_
_symmetry_equiv_pos_site_id
_symmetry_equiv_pos_as_xyz
1 x,y,z
2 -x,1/2+y,1/2-z
3 -x,-y,-z
4 x,1/2-y,1/2+z
_cell_length_a                   11.9745(10)
_cell_length_b                   32.827(3)
_cell_length_c                   25.847(2)
_cell_angle_alpha                90
_cell_angle_beta                 98.614(2)
_cell_angle_gamma                90
_cell_volume                     10045.5
_exptl_crystal_colour            'light yellow'
_exptl_crystal_description       Rod
_cell_formula_units_Z            4
loop_
_atom_site_label
_atom_site_type_symbol
_atom_site_fract_x
_atom_site_fract_y
_atom_site_fract_z
Zn1 Zn 0.05180(6) 0.44434(2) 0.21149(3)
Zn2 Zn 0.08555(6) 0.44740(2) 0.33443(3)
Zn3 Zn 0.10021(6) 0.52715(2) 0.27118(3)
Zn4 Zn -0.14272(6) 0.48281(2) 0.27047(4)
C1 C 0.2267(5) 0.5155(3) 0.3777(3)
C2 C 0.3083(6) 0.5329(3) 0.4208(3)
C3 C 0.3169(8) 0.5163(3) 0.4709(3)
H1 H 0.2726 0.4939 0.4765
C4 C 0.3889(9) 0.5322(4) 0.5119(4)
H2 H 0.3917 0.5212 0.5452
C5 C 0.4524(8) 0.5622(4) 0.5045(4)
C6 C 0.4511(7) 0.5811(4) 0.4534(4)
H3 H 0.4989 0.6026 0.4484
C7 C 0.3738(6) 0.5652(3) 0.4117(3)
H4 H 0.3678 0.5767 0.3785
C8 C 0.5769(12) 0.6053(3) 0.5437(4)
C9 C 0.5444(9) 0.6441(4) 0.5330(3)
C10 C 0.6104(12) 0.6788(4) 0.5352(5)
H5 H 0.5727 0.7036 0.5309
C11 C 0.7233(7) 0.6802(3) 0.5428(3)
C12 C 0.7616(13) 0.6390(4) 0.5550(4)
H6 H 0.8396 0.6362 0.5626
C13 C 0.7040(9) 0.6040(3) 0.5572(3)
H7 H 0.7413 0.5797 0.5667
C14 C 0.8116(13) 0.7099(5) 0.5453(5)
C15 C 0.747(3) 0.7536(5) 0.5340(12)
H8 H 0.8023 0.7750 0.5352
H9 H 0.7020 0.7530 0.5001
H10 H 0.6998 0.7584 0.5602
C16 C 0.8699(13) 0.7135(7) 0.6008(5)
H11 H 0.9291 0.7334 0.6025
H12 H 0.8162 0.7219 0.6228
H13 H 0.9015 0.6877 0.6125
C17 C 0.8894(13) 0.7005(7) 0.5052(6)
H14 H 0.9479 0.7207 0.5075
H15 H 0.9227 0.6741 0.5121
H16 H 0.8466 0.7008 0.4707
C18 C 0.2123(5) 0.5050(2) 0.1814(2)
C19 C 0.2897(7) 0.5163(3) 0.1441(3)
C20 C 0.3802(12) 0.5406(5) 0.1582(4)
H17 H 0.3875 0.5543 0.1900
C21 C 0.4673(10) 0.5458(5) 0.1244(4)
H18 H 0.5344 0.5595 0.1358
C22 C 0.4445(9) 0.5289(4) 0.0736(4)
C23 C 0.3521(8) 0.5075(4) 0.0605(4)
H19 H 0.3346 0.4978 0.0264
C24 C 0.2805(7) 0.4990(3) 0.0962(3)
H20 H 0.2225 0.4804 0.0868
C25 C 0.6090(10) 0.5584(4) 0.0482(5)
C26 C 0.5872(8) 0.5982(4) 0.0263(4)
C27 C 0.6727(10) 0.6258(5) 0.0264(5)
H21 H 0.6577 0.6531 0.0184
C28 C 0.7733(11) 0.6130(5) 0.0377(6)
H22 H 0.8312 0.6313 0.0347
C29 C 0.8032(6) 0.5749(3) 0.0539(3)
C30 C 0.7255(8) 0.5489(3) 0.0620(4)
H23 H 0.7465 0.5238 0.0770
C31 C 0.9295(8) 0.5666(5) 0.0620(4)
C32 C 0.9485(14) 0.5229(7) 0.0874(8)
H24 H 0.9101 0.5030 0.0640
H25 H 1.0278 0.5169 0.0936
H26 H 0.9189 0.5224 0.1199
C33 C 0.9711(10) 0.5608(5) 0.0114(4)
H27 H 0.9139 0.5476 -0.0129
H28 H 0.9885 0.5868 -0.0024
H29 H 1.0379 0.5442 0.0165
C34 C 0.9919(13) 0.5845(10) 0.1038(7)
H30 H 0.9493 0.5852 0.1324
H31 H 1.0601 0.5692 0.1138
H32 H 1.0106 0.6118 0.0948
C35 C 0.2614(7) 0.5740(3) -0.1174(5)
C36 C 0.3712(6) 0.5660(3) -0.1141(3)
H33 H 0.3963 0.5509 -0.1406
C37 C 0.4493(7) 0.5792(4) -0.0725(4)
H34 H 0.5264 0.5768 -0.0732
C38 C 0.4064(9) 0.5975(4) -0.0264(6)
C39 C 0.2905(9) 0.6001(5) -0.0250(5)
H35 H 0.2651 0.6103 0.0047
C40 C 0.2131(9) 0.5876(4) -0.0670(4)
H36 H 0.1360 0.5873 -0.0654
C41 C 0.1754(6) 0.5614(2) -0.1621(3)
C42 C 0.0947(7) 0.0709(2) 0.2627(3)
C43 C 0.1603(6) 0.1088(2) 0.2837(3)
C44 C 0.2740(7) 0.1060(3) 0.2990(4)
H37 H 0.3116 0.0818 0.2945
C45 C 0.3323(8) 0.1391(2) 0.3211(5)
H38 H 0.4102 0.1377 0.3308
C46 C 0.2751(10) 0.1742(3) 0.3288(5)
C47 C 0.1615(8) 0.1780(3) 0.3118(5)
H39 H 0.1249 0.2027 0.3144
C48 C 0.1028(8) 0.1444(3) 0.2908(4)
H40 H 0.0248 0.1456 0.2814
C49 C 0.1131(7) 0.5850(2) 0.6440(3)
C50 C 0.1906(7) 0.6047(2) 0.6122(3)
C51 C 0.1547(8) 0.6121(3) 0.5598(3)
H41 H 0.0808 0.6062 0.5449
C52 C 0.2318(9) 0.6287(3) 0.5288(3)
H42 H 0.2090 0.6338 0.4934
C53 C 0.3426(9) 0.6374(2) 0.5521(3)
C54 C 0.3738(8) 0.6318(3) 0.6045(4)
H43 H 0.4458 0.6393 0.6202
C55 C 0.3018(7) 0.6155(2) 0.6332(3)
H44 H 0.3260 0.6111 0.6687
C56 C 0.1872(5) 0.3842(2) 0.2744(3)
C57 C 0.2592(6) 0.3467(2) 0.2770(3)
C58 C 0.3262(6) 0.3362(2) 0.3238(3)
H45 H 0.3268 0.3522 0.3535
C59 C 0.3932(7) 0.3008(2) 0.3252(3)
H46 H 0.4428 0.2943 0.3553
C60 C 0.3856(9) 0.2767(3) 0.2839(4)
C61 C 0.3141(13) 0.2851(4) 0.2400(5)
H47 H 0.3079 0.2671 0.2119
C62 C 0.2506(12) 0.3196(4) 0.2361(4)
H48 H 0.2011 0.3250 0.2056
C63 C 0.5042(10) 0.2283(3) 0.3287(7)
C64 C 0.4436(12) 0.2093(3) 0.3632(7)
C65 C 0.4890(16) 0.1919(4) 0.4116(9)
H49 H 0.4442 0.1776 0.4318
C66 C 0.6025(15) 0.1971(5) 0.4273(9)
H50 H 0.6349 0.1894 0.4609
C67 C 0.6738(10) 0.2149(4) 0.3908(8)
C68 C 0.6203(12) 0.2307(4) 0.3455(7)
H51 H 0.6639 0.2441 0.3239
C69 C 0.7984(16) 0.2200(5) 0.4074(14)
C70 C 0.8174(16) 0.2676(6) 0.4155(15)
H52 H 0.8963 0.2729 0.4262
H53 H 0.7920 0.2815 0.3832
H54 H 0.7753 0.2770 0.4420
C71 C 0.8432(19) 0.1970(9) 0.4583(13)
H55 H 0.9231 0.2013 0.4669
H56 H 0.8060 0.2069 0.4862
H57 H 0.8283 0.1684 0.4535
C72 C 0.8656(19) 0.2010(8) 0.3689(15)
H58 H 0.9448 0.2049 0.3808
H59 H 0.8493 0.1724 0.3660
H60 H 0.8457 0.2137 0.3353
C73 C -0.1411(13) 0.5309(5) 0.3723(7)
H61 H -0.2171 0.5343 0.3591
C74 C 0.0040(19) 0.5538(11) 0.4348(12)
H62 H 0.0156 0.5668 0.4685
H63 H 0.0407 0.5277 0.4373
H64 H 0.0350 0.5705 0.4100
C75 C -0.207(3) 0.5772(9) 0.4354(13)
H65 H -0.1819 0.5895 0.4687
H66 H -0.2260 0.5981 0.4095
H67 H -0.2730 0.5609 0.4377
C76 C -0.3835(7) 0.4708(3) 0.2701(4)
H68 H -0.3711 0.4510 0.2459
C77 C -0.5157(10) 0.4965(7) 0.3190(6)
H69 H -0.5913 0.4905 0.3250
H70 H -0.4653 0.4948 0.3515
H71 H -0.5132 0.5234 0.3050
C78 C -0.5675(9) 0.4376(5) 0.2680(7)
H72 H -0.5371 0.4200 0.2439
H73 H -0.5829 0.4221 0.2976
H74 H -0.6363 0.4497 0.2509
N1 N -0.1082(17) 0.5487(5) 0.4189(7)
N2 N -0.4849(5) 0.4700(3) 0.2858(3)
O1 O 0.0254(3) 0.47553(13) 0.27106(16)
O2 O 0.1828(4) 0.48106(16) 0.38385(19)
O3 O 0.2074(4) 0.53607(16) 0.33519(19)
O4 O 0.2105(5) 0.52761(19) 0.2209(2)
O5 O 0.1542(4) 0.47306(15) 0.17200(18)
O6 O 0.0741(4) 0.57004(19) -0.1592(2)
O7 O 0.2096(4) 0.54398(15) -0.2005(2)
O8 O -0.0103(4) 0.07525(16) 0.2464(2)
O9 O 0.1501(5) 0.03879(16) 0.2636(3)
O10 O 0.0127(4) 0.57937(17) 0.62361(19)
O11 O 0.1518(5) 0.57437(17) 0.6912(2)
O12 O 0.1306(4) 0.39325(15) 0.23128(18)
O13 O 0.1885(4) 0.40444(14) 0.31549(17)
O14 O 0.5242(6) 0.5747(3) 0.5498(3)
O15 O 0.4118(8) 0.6538(2) 0.5186(3)
O16 O 0.5231(7) 0.5305(3) 0.0385(3)
O17 O 0.4695(7) 0.6083(4) 0.0210(4)
O18 O 0.4482(9) 0.2414(3) 0.2813(4)
O19 O 0.3267(7) 0.2085(2) 0.3522(5)
O20 O -0.0894(5) 0.51159(19) 0.3454(3)
O21 O -0.3072(5) 0.4935(2) 0.2829(3)
Zn1B Zn -0.05180(6) 0.55566(2) -0.21149(3)
Zn2B Zn -0.08555(6) 0.55260(2) 0.66557(3)
Zn3A Zn -0.10021(6) 0.02715(2) 0.22882(3)
Zn4A Zn 0.14272(6) -0.01719(2) 0.22953(4)
Zn4B Zn 0.14272(6) 0.51719(2) -0.27047(4)
Zn4B_2 Zn 0.14272(6) 0.51719(2) 0.72953(4)
O6B O -0.0741(4) 0.42996(19) 0.1592(2)
O7B O -0.2096(4) 0.45602(15) 0.2005(2)
O8A O 0.0103(4) 0.57525(16) 0.2536(2)
O9A O -0.1501(5) 0.53879(16) 0.2364(3)
O10B O -0.0127(4) 0.42063(17) 0.37639(19)
O11B O -0.1518(5) 0.42563(17) 0.3088(2)
C79 C -0.400(2) 0.3390(14) 0.2218(8)
C80 C -0.299(4) 0.3573(15) 0.2199(19)
C81 C -0.220(2) 0.3213(7) 0.2298(10)
C82 C -0.106(2) 0.3272(7) 0.2471(10)
C83 C -0.0340(16) 0.2938(10) 0.2558(9)
C84 C -0.077(2) 0.2546(8) 0.2473(9)
C85 C -0.191(3) 0.2487(6) 0.2300(10)
C86 C -0.2629(17) 0.2821(8) 0.2212(10)
C87 C 0.286(4) 0.1657(17) 0.153(2)
C88 C 0.167(4) 0.1840(14) 0.1590(15)
C89 C 0.0239(19) 0.1796(7) 0.1401(8)
C90 C -0.038(3) 0.2119(6) 0.1157(10)
C91 C -0.154(3) 0.2083(8) 0.1011(11)
C92 C -0.2083(19) 0.1724(10) 0.1110(10)
C93 C -0.147(2) 0.1400(7) 0.1354(10)
C94 C -0.031(2) 0.1436(6) 0.1500(9)
C95 C 0.559(4) 0.2991(15) 0.1030(19)
C96 C 0.433(3) 0.2889(11) 0.1001(12)
C97 C 0.3192(17) 0.3171(6) 0.1010(6)
C98 C 0.212(2) 0.3002(5) 0.0896(6)
C99 C 0.1170(16) 0.3244(7) 0.0905(5)
C100 C 0.1293(18) 0.3655(6) 0.1028(7)
C101 C 0.237(2) 0.3825(4) 0.1142(7)
C102 C 0.3315(17) 0.3583(6) 0.1133(6)
loop_
_geom_bond_atom_site_label_1
_geom_bond_atom_site_label_2
_geom_bond_site_symmetry_1
_geom_bond_site_symmetry_2
Zn1 O1 1_555 1_555
Zn2 O1 1_555 1_555
Zn3 O1 1_555 1_555
Zn4 O1 1_555 1_555
C1 C2 1_555 1_555
C2 C3 1_555 1_555
C3 H1 1_555 1_555
C4 C3 1_555 1_555
H2 C4 1_555 1_555
C5 C4 1_555 1_555
C6 C5 1_555 1_555
H3 C6 1_555 1_555
C7 C2 1_555 1_555
H4 C7 1_555 1_555
C8 C9 1_555 1_555
C9 C10 1_555 1_555
C10 H5 1_555 1_555
C11 C10 1_555 1_555
C12 C11 1_555 1_555
H6 C12 1_555 1_555
C13 C8 1_555 1_555
H7 C13 1_555 1_555
C14 C11 1_555 1_555
C15 C14 1_555 1_555
H8 C15 1_555 1_555
H9 C15 1_555 1_555
H10 C15 1_555 1_555
C16 C14 1_555 1_555
H11 C16 1_555 1_555
H12 C16 1_555 1_555
H13 C16 1_555 1_555
C17 C14 1_555 1_555
H14 C17 1_555 1_555
H15 C17 1_555 1_555
H16 C17 1_555 1_555
C18 C19 1_555 1_555
C19 C20 1_555 1_555
C20 H17 1_555 1_555
C21 C20 1_555 1_555
H18 C21 1_555 1_555
C22 C21 1_555 1_555
C23 C22 1_555 1_555
H19 C23 1_555 1_555
C24 C19 1_555 1_555
H20 C24 1_555 1_555
C25 C26 1_555 1_555
C26 C27 1_555 1_555
C27 H21 1_555 1_555
C28 C27 1_555 1_555
H22 C28 1_555 1_555
C29 C28 1_555 1_555
C30 C25 1_555 1_555
H23 C30 1_555 1_555
C31 C29 1_555 1_555
C32 C31 1_555 1_555
H24 C32 1_555 1_555
H25 C32 1_555 1_555
H26 C32 1_555 1_555
C33 C31 1_555 1_555
H27 C33 1_555 1_555
H28 C33 1_555 1_555
H29 C33 1_555 1_555
C34 C31 1_555 1_555
H30 C34 1_555 1_555
H31 C34 1_555 1_555
H32 C34 1_555 1_555
C35 C36 1_555 1_555
C36 H33 1_555 1_555
C37 C36 1_555 1_555
H34 C37 1_555 1_555
C38 C37 1_555 1_555
C39 C38 1_555 1_555
H35 C39 1_555 1_555
C40 C35 1_555 1_555
H36 C40 1_555 1_555
C41 C35 1_555 1_555
C42 C43 1_555 1_555
C43 C44 1_555 1_555
C44 H37 1_555 1_555
C45 C44 1_555 1_555
H38 C45 1_555 1_555
C46 C45 1_555 1_555
C47 C46 1_555 1_555
H39 C47 1_555 1_555
C48 C43 1_555 1_555
H40 C48 1_555 1_555
C49 C50 1_555 1_555
C50 C51 1_555 1_555
C51 H41 1_555 1_555
C52 C51 1_555 1_555
H42 C52 1_555 1_555
C53 C52 1_555 1_555
C54 C53 1_555 1_555
H43 C54 1_555 1_555
C55 C50 1_555 1_555
H44 C55 1_555 1_555
C56 C57 1_555 1_555
C57 C58 1_555 1_555
C58 H45 1_555 1_555
C59 C58 1_555 1_555
H46 C59 1_555 1_555
C60 C59 1_555 1_555
C61 C60 1_555 1_555
H47 C61 1_555 1_555
C62 C57 1_555 1_555
H48 C62 1_555 1_555
C63 C64 1_555 1_555
C64 C65 1_555 1_555
C65 H49 1_555 1_555
C66 C65 1_555 1_555
H50 C66 1_555 1_555
C67 C66 1_555 1_555
C68 C63 1_555 1_555
H51 C68 1_555 1_555
C69 C67 1_555 1_555
C70 C69 1_555 1_555
H52 C70 1_555 1_555
H53 C70 1_555 1_555
H54 C70 1_555 1_555
C71 C69 1_555 1_555
H55 C71 1_555 1_555
H56 C71 1_555 1_555
H57 C71 1_555 1_555
C72 C69 1_555 1_555
H58 C72 1_555 1_555
H59 C72 1_555 1_555
H60 C72 1_555 1_555
C73 H61 1_555 1_555
C74 H62 1_555 1_555
H63 C74 1_555 1_555
H64 C74 1_555 1_555
C75 H65 1_555 1_555
H66 C75 1_555 1_555
H67 C75 1_555 1_555
C76 H68 1_555 1_555
C77 H69 1_555 1_555
H70 C77 1_555 1_555
H71 C77 1_555 1_555
C78 H72 1_555 1_555
H73 C78 1_555 1_555
H74 C78 1_555 1_555
N1 C73 1_555 1_555
N2 C76 1_555 1_555
O2 Zn2 1_555 1_555
O3 Zn3 1_555 1_555
O4 Zn3 1_555 1_555
O5 Zn1 1_555 1_555
O6 C41 1_555 1_555
O7 C41 1_555 1_555
O8 C42 1_555 1_555
O9 C42 1_555 1_555
O10 C49 1_555 1_555
O11 C49 1_555 1_555
O12 Zn1 1_555 1_555
O13 Zn2 1_555 1_555
O14 C5 1_555 1_555
O15 C9 1_555 1_555
O16 C22 1_555 1_555
O17 C26 1_555 1_555
O18 C60 1_555 1_555
O19 C46 1_555 1_555
O20 Zn4 1_555 1_555
O21 Zn4 1_555 1_555
C79 C80 1_555 1_555
C80 C81 1_555 1_555
C81 C82 1_555 1_555
C82 C83 1_555 1_555
C83 C84 1_555 1_555
C84 C85 1_555 1_555
C85 C86 1_555 1_555
C86 C81 1_555 1_555
C87 C88 1_555 1_555
C88 C89 1_555 1_555
C89 C90 1_555 1_555
C90 C91 1_555 1_555
C91 C92 1_555 1_555
C92 C93 1_555 1_555
C93 C94 1_555 1_555
C94 C89 1_555 1_555
C95 C96 1_555 1_555
C96 C97 1_555 1_555
C97 C98 1_555 1_555
C98 C99 1_555 1_555
C99 C100 1_555 1_555
C100 C101 1_555 1_555
C101 C102 1_555 1_555
C102 C97 1_555 1_555
Zn1B O6 1_555 1_555
Zn2B O10 1_555 1_555
Zn3A O8 1_555 1_555
Zn4A O9 1_555 1_555
Zn4B O7 1_555 1_555
Zn4B_2 O11 1_555 1_555
O6B Zn1 1_555 1_555
O7B Zn4 1_555 1_555
O8A Zn3 1_555 1_555
O9A Zn4 1_555 1_555
O10B Zn2 1_555 1_555
O11B Zn4 1_555 1_555
C1 O2 1_555 1_555
C1 O3 1_555 1_555
C6 C7 1_555 1_555
C8 O14 1_555 1_555
C12 C13 1_555 1_555
C18 O4 1_555 1_555
C18 O5 1_555 1_555
C23 C24 1_555 1_555
C25 O16 1_555 1_555
C29 C30 1_555 1_555
C38 O17 1_555 1_555
C39 C40 1_555 1_555
C47 C48 1_555 1_555
C53 O15 1_555 1_555
C54 C55 1_555 1_555
C56 O12 1_555 1_555
C56 O13 1_555 1_555
C61 C62 1_555 1_555
C63 O18 1_555 1_555
C64 O19 1_555 1_555
C67 C68 1_555 1_555
C73 O20 1_555 1_555
C74 N1 1_555 1_555
C75 N1 1_555 1_555
C76 O21 1_555 1_555
C77 N2 1_555 1_555
C78 N2 1_555 1_555

#END
