
#######################################################################
#
#                 Cambridge Crystallographic Data Centre
#                                CCDC 
#
#######################################################################
#
# If this CIF has been generated from an entry in the Cambridge 
# Structural Database, then it will include bibliographic, chemical, 
# crystal, experimental, refinement or atomic coordinate data resulting 
# from the CCDC's data processing and validation procedures.
#
#######################################################################

data_VOFXUL
_chemical_name_common            MONT-6
_chemical_formula_moiety         '(C16 H14 Ag2 N8 O6)n,n(C5 H9 N1 O1)'
_chemical_name_systematic        
"catena-[(\m~4~-4,4'-(Naphthalene-2,6-diylbis(methylene))bis(4H-1,2,4-triazole))-bis(\m~2~-nitrato-O,O')-di-silver(i) N-methyl-2-pyrrolidone solvate]"
_symmetry_cell_setting           orthorhombic
_symmetry_space_group_name_H-M   'P n n a'
_symmetry_Int_Tables_number      52
_space_group_name_Hall           '-P 2a 2bc'
loop_
_symmetry_equiv_pos_site_id
_symmetry_equiv_pos_as_xyz
1 x,y,z
2 1/2-x,-y,z
3 x,1/2-y,1/2-z
4 1/2-x,1/2+y,1/2-z
5 -x,-y,-z
6 1/2+x,y,-z
7 -x,1/2+y,1/2+z
8 1/2+x,1/2-y,1/2+z
_cell_length_a                   7.8576(10)
_cell_length_b                   24.637(3)
_cell_length_c                   13.7898(17)
_cell_angle_alpha                90
_cell_angle_beta                 90
_cell_angle_gamma                90
_cell_volume                     2669.54
_exptl_crystal_colour            colorless
_exptl_crystal_description       needle
_cell_formula_units_Z            4
loop_
_atom_site_label
_atom_site_type_symbol
_atom_site_fract_x
_atom_site_fract_y
_atom_site_fract_z
_atom_site_U_iso_or_equiv
_atom_site_thermal_displace_type
C1 C 0.994(2) 0.1875(12) 0.2110(15) 0.0370 Uiso
H1 H 1.1094 0.1887 0.2263 0.0450 Uiso
N1 N 0.922(3) 0.1991(11) 0.1190(11) 0.0580 Uiso
N2 N 0.743(3) 0.1924(9) 0.1266(12) 0.0080 Uiso
C2 C 0.705(2) 0.1767(11) 0.2233(14) 0.0430 Uiso
H2 H 0.5968 0.1697 0.2481 0.0520 Uiso
N3 N 0.860(3) 0.1737(9) 0.2754(10) 0.0130 Uiso
Ag1 Ag 1.0630(5) 0.20886(12) -0.01299(18) 0.0296 Uani
O1 O 0.742(6) 0.2720(16) -0.112(3) 0.0810 Uiso
O2 O 0.831(4) 0.3461(12) -0.182(2) 0.0440 Uiso
O3 O 0.996(3) 0.3008(9) -0.0821(15) 0.0110 Uiso
N4 N 0.855(5) 0.3037(15) -0.137(3) 0.0390 Uiso
C3 C 0.886(6) 0.1598(17) 0.372(3) 0.0360 Uiso
H3 H 0.8037 0.1781 0.4129 0.0440 Uiso
H4 H 0.9994 0.1703 0.3923 0.0440 Uiso
C4 C 0.705(4) 0.0727(12) 0.384(3) 0.0380 Uiso
H5 H 0.6070 0.0939 0.3879 0.0450 Uiso
C5 C 0.864(4) 0.0961(12) 0.379(3) 0.0370 Uiso
C6 C 0.695(4) 0.0165(11) 0.382(3) 0.0370 Uiso
C7 C 0.527(5) -0.003(2) 0.379(3) 0.0530 Uiso
H6 H 0.4357 0.0212 0.3766 0.0630 Uiso
C8 C 1.004(5) 0.0617(19) 0.379(4) 0.0670 Uiso
H7 H 1.1136 0.0756 0.3793 0.0800 Uiso
C1A C 0.506(2) -0.1875(12) 0.2110(15) 0.0370 Uiso
H1A H 0.3906 -0.1887 0.2263 0.0450 Uiso
N1A N 0.578(3) -0.1991(11) 0.1190(11) 0.0580 Uiso
N2A N 0.757(3) -0.1924(9) 0.1266(12) 0.0080 Uiso
C2A C 0.795(2) -0.1767(11) 0.2233(14) 0.0430 Uiso
H2A H 0.9032 -0.1697 0.2481 0.0520 Uiso
N3A N 0.640(3) -0.1737(9) 0.2754(10) 0.0130 Uiso
C3A C 0.614(6) -0.1598(17) 0.372(3) 0.0360 Uiso
H3A H 0.6963 -0.1781 0.4129 0.0440 Uiso
H4A H 0.5006 -0.1703 0.3923 0.0440 Uiso
C4A C 0.795(4) -0.0727(12) 0.384(3) 0.0380 Uiso
H5A H 0.8930 -0.0939 0.3879 0.0450 Uiso
C5A C 0.636(4) -0.0961(12) 0.379(3) 0.0370 Uiso
C6A C 0.805(4) -0.0165(11) 0.382(3) 0.0370 Uiso
C7A C 0.973(5) 0.003(2) 0.379(3) 0.0530 Uiso
H6A H 1.0643 -0.0212 0.3766 0.0630 Uiso
C8A C 0.496(5) -0.0617(19) 0.379(4) 0.0670 Uiso
H7A H 0.3864 -0.0756 0.3793 0.0800 Uiso
Ag1A Ag 0.4370(5) -0.20886(12) -0.01299(18) 0.0296 Uani
O1A O 0.758(6) -0.2720(16) -0.112(3) 0.0810 Uiso
O2A O 0.669(4) -0.3461(12) -0.182(2) 0.0440 Uiso
O3A O 0.504(3) -0.3008(9) -0.0821(15) 0.0110 Uiso
N4A N 0.645(5) -0.3037(15) -0.137(3) 0.0390 Uiso
N2D N 0.257(3) -0.1924(9) -0.1266(12) 0.0080 Uiso
N2E N 1.243(3) 0.1924(9) -0.1266(12) 0.0080 Uiso
Ag1D Ag 0.9370(5) -0.20886(12) 0.01299(18) 0.0296 Uani
Ag1E Ag 0.5630(5) 0.20886(12) 0.01299(18) 0.0296 Uani
O1D O 0.258(6) -0.2720(16) 0.112(3) 0.0810 Uiso
O1E O 1.242(6) 0.2720(16) 0.112(3) 0.0810 Uiso
loop_
_atom_site_aniso_label
_atom_site_aniso_U_11
_atom_site_aniso_U_22
_atom_site_aniso_U_33
_atom_site_aniso_U_23
_atom_site_aniso_U_13
_atom_site_aniso_U_12
Ag1 0.046(2) 0.0331(18) 0.0098(16) -0.0003(15) 0.0019(17) -0.005(2)
Ag1A 0.046 0.0331 0.0098 0.0003 -0.0019 -0.005
Ag1D 0.046 0.0331 0.0098 -0.0003 0.0019 -0.005
Ag1E 0.046 0.0331 0.0098 0.0003 -0.0019 -0.005
loop_
_geom_bond_atom_site_label_1
_geom_bond_atom_site_label_2
_geom_bond_site_symmetry_1
_geom_bond_site_symmetry_2
C1 H1 1_555 1_555
N1 C1 1_555 1_555
N2 N1 1_555 1_555
C2 N2 1_555 1_555
H2 C2 1_555 1_555
N3 C1 1_555 1_555
Ag1 N1 1_555 1_555
O1 N4 1_555 1_555
O2 N4 1_555 1_555
O3 Ag1 1_555 1_555
N4 O3 1_555 1_555
C3 N3 1_555 1_555
H3 C3 1_555 1_555
H4 C3 1_555 1_555
C4 H5 1_555 1_555
C5 C3 1_555 1_555
C6 C4 1_555 1_555
C7 C6 1_555 1_555
H6 C7 1_555 1_555
C8 C5 1_555 1_555
H7 C8 1_555 1_555
C1A H1A 1_555 1_555
N1A C1A 1_555 1_555
N2A N1A 1_555 1_555
C2A N2A 1_555 1_555
H2A C2A 1_555 1_555
N3A C1A 1_555 1_555
C3A N3A 1_555 1_555
H3A C3A 1_555 1_555
H4A C3A 1_555 1_555
C4A H5A 1_555 1_555
C5A C3A 1_555 1_555
C6A C6 1_555 1_555
C7A C8 1_555 1_555
H6A C7A 1_555 1_555
C8A C7 1_555 1_555
H7A C8A 1_555 1_555
Ag1A N1A 1_555 1_555
O1A N4A 1_555 1_555
O2A N4A 1_555 1_555
O3A Ag1A 1_555 1_555
N4A O3A 1_555 1_555
N2D Ag1A 1_555 1_555
N2E Ag1 1_555 1_555
Ag1D N2A 1_555 1_555
Ag1E N2 1_555 1_555
O1D Ag1A 1_555 1_555
O1E Ag1 1_555 1_555
C2 N3 1_555 1_555
O1 Ag1E 1_555 1_555
C4 C5 1_555 1_555
C2A N3A 1_555 1_555
C4A C5A 1_555 1_555
C4A C6A 1_555 1_555
C5A C8A 1_555 1_555
C6A C7A 1_555 1_555
O1A Ag1D 1_555 1_555

#END
