
#######################################################################
#
#                 Cambridge Crystallographic Data Centre
#                                CCDC 
#
#######################################################################
#
# If this CIF has been generated from an entry in the Cambridge 
# Structural Database, then it will include bibliographic, chemical, 
# crystal, experimental, refinement or atomic coordinate data resulting 
# from the CCDC's data processing and validation procedures.
#
#######################################################################

data_VOFXIZ
_chemical_name_common            MONT-4
_chemical_formula_moiety         '(C12 H12 Br2 Cu2 N6)n,n(C3 H7 N1 O1)'
_chemical_name_systematic        
"catena-[(\m~4~-4,4'-(1,3-Phenylenebis(methylene))bis(4H-1,2,4-triazole))-bis(\m~2~-bromo)-di-copper(i) N,N-dimethylformamide solvate]"
_symmetry_cell_setting           orthorhombic
_symmetry_space_group_name_H-M   'I m m a'
_symmetry_Int_Tables_number      74
_space_group_name_Hall           '-I 2b 2'
loop_
_symmetry_equiv_pos_site_id
_symmetry_equiv_pos_as_xyz
1 x,y,z
2 -x,1/2-y,z
3 -x,1/2+y,-z
4 x,-y,-z
5 1/2+x,1/2+y,1/2+z
6 1/2-x,-y,1/2+z
7 1/2-x,y,1/2-z
8 1/2+x,1/2-y,1/2-z
9 -x,-y,-z
10 x,1/2+y,-z
11 x,1/2-y,z
12 -x,y,z
13 1/2-x,1/2-y,1/2-z
14 1/2+x,y,1/2-z
15 1/2+x,-y,1/2+z
16 1/2-x,1/2+y,1/2+z
_cell_length_a                   20.4733(7)
_cell_length_b                   7.0919(3)
_cell_length_c                   13.3346(4)
_cell_angle_alpha                90
_cell_angle_beta                 90
_cell_angle_gamma                90
_cell_volume                     1936.11
_exptl_crystal_colour            colorless
_exptl_crystal_description       plate
_cell_formula_units_Z            4
loop_
_atom_site_label
_atom_site_type_symbol
_atom_site_fract_x
_atom_site_fract_y
_atom_site_fract_z
Br1 Br 0.71521(3) 0.2500 0.09849(4)
Cu1 Cu 0.77713(4) 0.5000 0.0000
N1 N 0.81263(18) 0.6529(6) 0.1121(3)
N2 N 0.8488(3) 0.7500 0.2572(4)
C1 C 0.8344(2) 0.5984(9) 0.2011(3)
H1 H 0.8391 0.4738 0.2216
C2 C 0.8758(4) 0.7500 0.3603(5)
C3 C 1.0000 0.7500 0.3534(6)
C4 C 1.0000 1.1056(16) 0.4056(8)
C5 C 0.9420(5) 1.0041(13) 0.3929(6)
H2 H 0.9026 1.0670 0.4015
C6 C 0.9405(4) 0.8125(11) 0.3678(5)
N1A N 1.18737(18) 0.8471(6) 0.1121(3)
N2A N 1.1512(3) 0.7500 0.2572(4)
C1A C 1.1656(2) 0.9016(9) 0.2011(3)
H1A H 1.1609 1.0262 0.2216
C2A C 1.1242(4) 0.7500 0.3603(5)
C4A C 1.0000 0.3944(16) 0.4056(8)
C5A C 1.0580(5) 0.4959(13) 0.3929(6)
H2A H 1.0974 0.4330 0.4015
C6A C 1.0595(4) 0.6875(11) 0.3678(5)
N1J N 0.81263(18) 0.8471(6) 0.1121(3)
C1J C 0.8344(2) 0.9016(9) 0.2011(3)
H1J H 0.8391 1.0262 0.2216
C5J C 0.9420(5) 0.4959(13) 0.3929(6)
H2J H 0.9026 0.4330 0.4015
C6J C 0.9405(4) 0.6875(11) 0.3678(5)
N1K N 1.18737(18) 0.6529(6) 0.1121(3)
C1K C 1.1656(2) 0.5984(9) 0.2011(3)
H1K H 1.1609 0.4738 0.2216
C5K C 1.0580(5) 1.0041(13) 0.3929(6)
H2K H 1.0974 1.0670 0.4015
C6K C 1.0595(4) 0.8125(11) 0.3678(5)
Br1A Br 1.28479(3) 0.2500 0.09849(4)
Cu1H Cu 1.22287(4) 0.5000 0.0000
Br1B Br 1.28479(3) 0.7500 -0.09849(4)
Br1C Br 0.71521(3) 0.7500 -0.09849(4)
Cu1A Cu 1.22287(4) 0.0000 0.0000
Cu1A_2 Cu 1.22287(4) 1.0000 0.0000
Cu1I Cu 0.77713(4) 0.0000 0.0000
Cu1I_2 Cu 0.77713(4) 1.0000 0.0000
N1C N 0.81263(18) 0.3471(6) -0.1121(3)
N1H N 1.18737(18) 0.3471(6) -0.1121(3)
N3 N 1.0000 0.7500 0.9751(7)
C7 C 1.0000 0.7500 1.0862(8)
C8 C 0.9402(4) 0.7500 0.9246(6)
O1 O 0.9384(5) 0.7500 0.8346(8)
C8A C 1.0598(4) 0.7500 0.9246(6)
O1A O 1.0616(5) 0.7500 0.8346(8)
H3? H 1.0000 0.881(3) 0.351(12)
H4? H 1.0000 1.2332 0.4216
H5? H 0.8446(17) 0.814(9) 0.402(3)
loop_
_geom_bond_atom_site_label_1
_geom_bond_atom_site_label_2
_geom_bond_site_symmetry_1
_geom_bond_site_symmetry_2
Br1 Cu1 1_555 1_555
Cu1 N1 1_555 1_555
N1 C1 1_555 1_555
N2 C1 1_555 1_555
C1 H1 1_555 1_555
C2 N2 1_555 1_555
C3 C6 1_555 1_555
C4 C5 1_555 1_555
C5 H2 1_555 1_555
C6 C2 1_555 1_555
N3 C7 1_555 1_555
C8 N3 1_555 1_555
O1 C8 1_555 1_555
N1A C1A 1_555 1_555
N2A C1A 1_555 1_555
C1A H1A 1_555 1_555
C2A N2A 1_555 1_555
C4A C5A 1_555 1_555
C5A H2A 1_555 1_555
C6A C3 1_555 1_555
N1J N1 1_555 1_555
C1J N2 1_555 1_555
H1J C1J 1_555 1_555
C5J C4A 1_555 1_555
H2J C5J 1_555 1_555
C6J C2 1_555 1_555
N1K N1A 1_555 1_555
C1K N2A 1_555 1_555
H1K C1K 1_555 1_555
C5K C4 1_555 1_555
H2K C5K 1_555 1_555
C6K C3 1_555 1_555
Br1A Cu1H 1_555 1_555
Cu1H N1K 1_555 1_555
Br1B Cu1H 1_555 1_555
Br1C Cu1 1_555 1_555
Cu1A Br1A 1_555 1_555
Cu1A_2 N1A 1_555 1_555
Cu1I Br1 1_555 1_555
Cu1I_2 N1J 1_555 1_555
N1C Cu1 1_555 1_555
N1H Cu1H 1_555 1_555
C8A N3 1_555 1_555
O1A C8A 1_555 1_555
C3 C6J 1_555 1_555
C5 C6 1_555 1_555
C6 C6J 1_555 1_555
C2A C6A 1_555 1_555
C2A C6K 1_555 1_555
C5A C6A 1_555 1_555
C6A C6K 1_555 1_555
N1J C1J 1_555 1_555
C5J C6J 1_555 1_555
N1K C1K 1_555 1_555
C5K C6K 1_555 1_555
Br1B Cu1A_2 1_555 1_555
Br1C Cu1I_2 1_555 1_555

#END
