
#######################################################################
#
#                 Cambridge Crystallographic Data Centre
#                                CCDC 
#
#######################################################################
#
# If this CIF has been generated from an entry in the Cambridge 
# Structural Database, then it will include bibliographic, chemical, 
# crystal, experimental, refinement or atomic coordinate data resulting 
# from the CCDC's data processing and validation procedures.
#
#######################################################################

data_ODEPOF
_chemical_formula_moiety         '(C22 H14 Fe1 N12)n,4(H2 O1)'
_chemical_name_systematic        
'catena-(bis(\m-2-(3-(pyridin-4-yl)-1H-1,2,4-triazol-5-yl)pyrazine)-iron tetrahydrate)'
_symmetry_cell_setting           rhombohedral
_symmetry_space_group_name_H-M   'R -3'
_symmetry_Int_Tables_number      148
_space_group_name_Hall           '-R 3'
loop_
_symmetry_equiv_pos_site_id
_symmetry_equiv_pos_as_xyz
1 x,y,z
2 -y,x-y,z
3 -x+y,-x,z
4 2/3+x,1/3+y,1/3+z
5 2/3-y,1/3+x-y,1/3+z
6 2/3-x+y,1/3-x,1/3+z
7 1/3+x,2/3+y,2/3+z
8 1/3-y,2/3+x-y,2/3+z
9 1/3-x+y,2/3-x,2/3+z
10 -x,-y,-z
11 y,-x+y,-z
12 x-y,x,-z
13 1/3-x,2/3-y,2/3-z
14 1/3+y,2/3-x+y,2/3-z
15 1/3+x-y,2/3+x,2/3-z
16 2/3-x,1/3-y,1/3-z
17 2/3+y,1/3-x+y,1/3-z
18 2/3+x-y,1/3+x,1/3-z
_cell_length_a                   27.989(3)
_cell_length_b                   27.989(3)
_cell_length_c                   8.8181(18)
_cell_angle_alpha                90
_cell_angle_beta                 90
_cell_angle_gamma                120
_cell_volume                     5982.47
_exptl_crystal_colour            black
_exptl_crystal_description       block
_cell_formula_units_Z            9
loop_
_atom_site_label
_atom_site_type_symbol
_atom_site_fract_x
_atom_site_fract_y
_atom_site_fract_z
_atom_site_U_iso_or_equiv
_atom_site_thermal_displace_type
Fe1 Fe 0.5000 0.5000 0.0000 0.0317 Uani
N1 N 0.48352(13) 0.55043(12) 0.1215(4) 0.0368 Uani
N2 N 0.4520(2) 0.60932(17) 0.3181(5) 0.0708 Uani
N3 N 0.47555(12) 0.45794(12) 0.1886(4) 0.0347 Uani
N4 N 0.46691(13) 0.40823(12) 0.2397(4) 0.0371 Uani
N5 N 0.43241(15) 0.44348(14) 0.4137(4) 0.0452 Uani
N6 N 0.37213(13) 0.24496(12) 0.5922(4) 0.0353 Uani
C1 C 0.4902(2) 0.59991(17) 0.0849(5) 0.0530 Uani
H1 H 0.5060 0.6157 -0.0079 0.0380 Uiso
C2 C 0.4741(3) 0.6277(2) 0.1816(7) 0.0714 Uani
H2 H 0.4790 0.6615 0.1499 0.0690 Uiso
C3 C 0.4460(2) 0.5604(2) 0.3564(6) 0.0571 Uani
H3 H 0.4311 0.5456 0.4509 0.0660 Uiso
C4 C 0.46098(17) 0.53087(16) 0.2604(5) 0.0416 Uani
C5 C 0.45526(16) 0.47725(16) 0.2947(4) 0.0388 Uani
C6 C 0.44091(16) 0.40162(15) 0.3739(4) 0.0370 Uani
C7 C 0.42033(16) 0.34978(15) 0.4579(4) 0.0370 Uani
C8 C 0.35446(19) 0.28049(17) 0.6243(5) 0.0471 Uani
H4 H 0.3252 0.2694 0.6916 0.0400 Uiso
C9 C 0.37771(19) 0.33291(17) 0.5620(5) 0.0459 Uani
H5 H 0.3649 0.3565 0.5898 0.0520 Uiso
C10 C 0.41543(16) 0.26300(16) 0.4963(5) 0.0416 Uani
H6 H 0.4293 0.2396 0.4754 0.0400 Uiso
C11 C 0.44019(17) 0.31405(16) 0.4279(5) 0.0432 Uani
H7 H 0.4698 0.3245 0.3624 0.0520 Uiso
N1I N 0.51648(13) 0.44957(12) -0.1215(4) 0.0368 Uani
N2I N 0.5480(2) 0.39068(17) -0.3181(5) 0.0708 Uani
N3I N 0.52445(12) 0.54206(12) -0.1886(4) 0.0347 Uani
N4I N 0.53309(13) 0.59177(12) -0.2397(4) 0.0371 Uani
N5I N 0.56759(15) 0.55652(14) -0.4137(4) 0.0452 Uani
N6I N 0.62787(13) 0.75504(12) -0.5922(4) 0.0353 Uani
C1I C 0.5098(2) 0.40009(17) -0.0849(5) 0.0530 Uani
H1I H 0.4940 0.3843 0.0079 0.0380 Uiso
C2I C 0.5259(3) 0.3723(2) -0.1816(7) 0.0714 Uani
H2I H 0.5210 0.3385 -0.1499 0.0690 Uiso
C3I C 0.5540(2) 0.4396(2) -0.3564(6) 0.0571 Uani
H3I H 0.5689 0.4544 -0.4509 0.0660 Uiso
C4I C 0.53902(17) 0.46913(16) -0.2604(5) 0.0416 Uani
C5I C 0.54474(16) 0.52275(16) -0.2947(4) 0.0388 Uani
C6I C 0.55909(16) 0.59838(15) -0.3739(4) 0.0370 Uani
C7I C 0.57967(16) 0.65022(15) -0.4579(4) 0.0370 Uani
C8I C 0.64554(19) 0.71951(17) -0.6243(5) 0.0471 Uani
H4I H 0.6748 0.7306 -0.6916 0.0400 Uiso
C9I C 0.62229(19) 0.66709(17) -0.5620(5) 0.0459 Uani
H5I H 0.6351 0.6435 -0.5898 0.0520 Uiso
C10I C 0.58457(16) 0.73700(16) -0.4963(5) 0.0416 Uani
H6I H 0.5707 0.7604 -0.4754 0.0400 Uiso
C11I C 0.55981(17) 0.68595(16) -0.4279(5) 0.0432 Uani
H7I H 0.5302 0.6755 -0.3624 0.0520 Uiso
Fe1E Fe 0.6667 0.8333 -0.6667 0.0317 Uani
Fe1H Fe 0.3333 0.1667 0.6667 0.0317 Uani
N6D N 0.42171(12) 0.46050(18) -0.0745(4) 0.0353 Uani
N6M N 0.57829(12) 0.53950(18) 0.0745(4) 0.0353 Uani
O1 O 0.6634(18) 0.4171(16) 0.185(5) 0.7633 Uani
H8 H 0.6430 0.3822 0.1827 1.1450 Uiso
H9 H 0.6858 0.4274 0.1106 1.1450 Uiso
O2 O 0.5657(17) 0.3524(16) 0.236(4) 0.7278 Uani
H10 H 0.5608 0.3199 0.2342 1.0910 Uiso
H11 H 0.5577 0.3591 0.3234 1.0910 Uiso
loop_
_atom_site_aniso_label
_atom_site_aniso_U_11
_atom_site_aniso_U_22
_atom_site_aniso_U_33
_atom_site_aniso_U_23
_atom_site_aniso_U_13
_atom_site_aniso_U_12
Fe1 0.0312(4) 0.0271(4) 0.0314(5) 0.0057(3) -0.0066(3) 0.0106(3)
N1 0.0372(17) 0.0310(16) 0.0384(18) 0.0054(14) -0.0037(14) 0.0142(14)
N2 0.102(4) 0.050(2) 0.067(3) 0.003(2) 0.013(3) 0.043(2)
N3 0.0346(17) 0.0289(16) 0.0341(17) 0.0070(13) -0.0057(14) 0.0111(14)
N4 0.0375(18) 0.0317(16) 0.0362(18) 0.0081(14) -0.0032(14) 0.0129(14)
N5 0.055(2) 0.0388(19) 0.0411(19) 0.0099(15) 0.0062(16) 0.0230(17)
N6 0.0416(18) 0.0325(17) 0.0359(17) 0.0071(14) 0.0112(14) 0.0215(15)
C1 0.073(3) 0.037(2) 0.051(3) 0.006(2) -0.001(2) 0.029(2)
C2 0.100(4) 0.043(3) 0.081(4) 0.012(3) 0.012(3) 0.043(3)
C3 0.074(3) 0.052(3) 0.050(3) 0.003(2) 0.008(2) 0.035(3)
C4 0.043(2) 0.033(2) 0.044(2) 0.0034(18) -0.0070(18) 0.0153(18)
C5 0.041(2) 0.034(2) 0.036(2) 0.0057(17) -0.0022(17) 0.0146(17)
C6 0.036(2) 0.035(2) 0.034(2) 0.0081(17) -0.0005(16) 0.0133(17)
C7 0.042(2) 0.033(2) 0.033(2) 0.0043(16) -0.0015(17) 0.0164(17)
C8 0.057(3) 0.044(2) 0.048(3) 0.016(2) 0.025(2) 0.031(2)
C9 0.062(3) 0.039(2) 0.047(2) 0.0113(19) 0.015(2) 0.033(2)
C10 0.042(2) 0.040(2) 0.047(2) 0.0092(19) 0.0148(19) 0.0236(19)
C11 0.041(2) 0.039(2) 0.046(2) 0.0113(19) 0.0133(19) 0.0172(18)
N1I 0.0372 0.031 0.0384 0.0054 -0.0037 0.0142
N2I 0.102 0.05 0.067 0.003 0.013 0.043
N3I 0.0346 0.0289 0.0341 0.007 -0.0057 0.0111
N4I 0.0375 0.0317 0.0362 0.0081 -0.0032 0.0129
N5I 0.055 0.0388 0.0411 0.0099 0.0062 0.023
N6I 0.0416 0.0325 0.0359 0.0071 0.0112 0.0215
C1I 0.073 0.037 0.051 0.006 -0.001 0.029
C2I 0.1 0.043 0.081 0.012 0.012 0.043
C3I 0.074 0.052 0.05 0.003 0.008 0.035
C4I 0.043 0.033 0.044 0.0034 -0.007 0.0153
C5I 0.041 0.034 0.036 0.0057 -0.0022 0.0146
C6I 0.036 0.035 0.034 0.0081 -0.0005 0.0133
C7I 0.042 0.033 0.033 0.0043 -0.0015 0.0164
C8I 0.057 0.044 0.048 0.016 0.025 0.031
C9I 0.062 0.039 0.047 0.0113 0.015 0.033
C10I 0.042 0.04 0.047 0.0092 0.0148 0.0236
C11I 0.041 0.039 0.046 0.0113 0.0133 0.0172
Fe1E 0.0371 0.0312 0.0314 0.0066 0.0123 0.0206
Fe1H 0.0371 0.0312 0.0314 0.0066 0.0123 0.0206
N6D 0.0325 0.0311 0.0359 0.0041 -0.0071 0.011
N6M 0.0325 0.0311 0.0359 0.0041 -0.0071 0.011
O1 0.80(3) 0.73(3) 0.77(3) 0.051(19) 0.022(19) 0.39(2)
O2 0.71(3) 0.75(3) 0.73(3) 0.034(19) 0.001(19) 0.37(2)
loop_
_geom_bond_atom_site_label_1
_geom_bond_atom_site_label_2
_geom_bond_site_symmetry_1
_geom_bond_site_symmetry_2
Fe1 N1 1_555 1_555
N1 C1 1_555 1_555
N2 C2 1_555 1_555
N3 Fe1 1_555 1_555
N4 N3 1_555 1_555
N5 C5 1_555 1_555
N6 C8 1_555 1_555
C1 H1 1_555 1_555
C2 C1 1_555 1_555
H2 C2 1_555 1_555
C3 N2 1_555 1_555
H3 C3 1_555 1_555
C4 N1 1_555 1_555
C5 N3 1_555 1_555
C6 N4 1_555 1_555
C7 C6 1_555 1_555
C8 H4 1_555 1_555
C9 C7 1_555 1_555
H5 C9 1_555 1_555
C10 N6 1_555 1_555
H6 C10 1_555 1_555
C11 C7 1_555 1_555
H7 C11 1_555 1_555
O1 H8 1_555 1_555
H9 O1 1_555 1_555
O2 H10 1_555 1_555
H11 O2 1_555 1_555
N1I Fe1 1_555 1_555
N2I C2I 1_555 1_555
N3I Fe1 1_555 1_555
N4I N3I 1_555 1_555
N5I C5I 1_555 1_555
N6I C8I 1_555 1_555
C1I N1I 1_555 1_555
H1I C1I 1_555 1_555
C2I C1I 1_555 1_555
H2I C2I 1_555 1_555
C3I N2I 1_555 1_555
H3I C3I 1_555 1_555
C4I N1I 1_555 1_555
C5I N3I 1_555 1_555
C6I N4I 1_555 1_555
C7I C6I 1_555 1_555
C8I H4I 1_555 1_555
C9I C7I 1_555 1_555
H5I C9I 1_555 1_555
C10I N6I 1_555 1_555
H6I C10I 1_555 1_555
C11I C7I 1_555 1_555
H7I C11I 1_555 1_555
Fe1E N6I 1_555 1_555
Fe1H N6 1_555 1_555
N6D Fe1 1_555 1_555
N6M Fe1 1_555 1_555
N5 C6 1_555 1_555
C3 C4 1_555 1_555
C4 C5 1_555 1_555
C8 C9 1_555 1_555
C10 C11 1_555 1_555
N5I C6I 1_555 1_555
C3I C4I 1_555 1_555
C4I C5I 1_555 1_555
C8I C9I 1_555 1_555
C10I C11I 1_555 1_555

#END
