
#######################################################################
#
#                 Cambridge Crystallographic Data Centre
#                                CCDC 
#
#######################################################################
#
# If this CIF has been generated from an entry in the Cambridge 
# Structural Database, then it will include bibliographic, chemical, 
# crystal, experimental, refinement or atomic coordinate data resulting 
# from the CCDC's data processing and validation procedures.
#
#######################################################################

data_ODEPUL
_chemical_formula_moiety         '(C22 H14 Fe1 N12)n,4(C2 H2)'
_chemical_name_systematic        
'catena-(bis(\m-2-(3-(pyridin-4-yl)-1H-1,2,4-triazol-5-yl)pyrazine)-iron tetrakis(ethyne))'
_symmetry_cell_setting           rhombohedral
_symmetry_space_group_name_H-M   'R -3'
_symmetry_Int_Tables_number      148
_space_group_name_Hall           '-R 3'
loop_
_symmetry_equiv_pos_site_id
_symmetry_equiv_pos_as_xyz
1 x,y,z
2 -y,x-y,z
3 -x+y,-x,z
4 2/3+x,1/3+y,1/3+z
5 2/3-y,1/3+x-y,1/3+z
6 2/3-x+y,1/3-x,1/3+z
7 1/3+x,2/3+y,2/3+z
8 1/3-y,2/3+x-y,2/3+z
9 1/3-x+y,2/3-x,2/3+z
10 -x,-y,-z
11 y,-x+y,-z
12 x-y,x,-z
13 1/3-x,2/3-y,2/3-z
14 1/3+y,2/3-x+y,2/3-z
15 1/3+x-y,2/3+x,2/3-z
16 2/3-x,1/3-y,1/3-z
17 2/3+y,1/3-x+y,1/3-z
18 2/3+x-y,1/3+x,1/3-z
_cell_length_a                   28.873(4)
_cell_length_b                   28.873(4)
_cell_length_c                   9.3425(19)
_cell_angle_alpha                90
_cell_angle_beta                 90
_cell_angle_gamma                120
_cell_volume                     6744.93
_exptl_crystal_colour            black
_exptl_crystal_description       block
_cell_formula_units_Z            9
loop_
_atom_site_label
_atom_site_type_symbol
_atom_site_fract_x
_atom_site_fract_y
_atom_site_fract_z
_atom_site_U_iso_or_equiv
_atom_site_thermal_displace_type
Fe1 Fe 0.1667 0.3333 0.3333 0.0205 Uani
N1 N 0.14088(16) 0.26146(16) 0.4233(4) 0.0242 Uani
N2 N 0.11946(17) 0.16531(17) 0.5596(5) 0.0363 Uani
N3 N 0.22770(14) 0.35377(15) 0.4694(4) 0.0207 Uani
N4 N 0.27599(15) 0.39689(16) 0.5068(4) 0.0240 Uani
N5 N 0.26484(16) 0.32371(16) 0.6318(4) 0.0272 Uani
N6 N 0.44135(15) 0.46196(15) 0.8520(4) 0.0234 Uani
C1 C 0.09661(19) 0.21481(19) 0.3944(5) 0.0286 Uani
H1 H 0.0719 0.2139 0.3259 0.0330 Uiso
C2 C 0.0862(2) 0.1677(2) 0.4627(6) 0.0357 Uani
H2 H 0.0540 0.1357 0.4399 0.0240 Uiso
C3 C 0.1638(2) 0.2123(2) 0.5883(6) 0.0322 Uani
H3 H 0.1885 0.2131 0.6567 0.0430 Uiso
C4 C 0.17465(18) 0.25988(19) 0.5214(5) 0.0246 Uani
C5 C 0.22274(18) 0.31165(19) 0.5457(5) 0.0241 Uani
C6 C 0.29642(19) 0.37659(19) 0.6028(5) 0.0250 Uani
C7 C 0.34852(19) 0.40777(19) 0.6784(5) 0.0260 Uani
C8 C 0.36670(19) 0.38010(18) 0.7616(5) 0.0266 Uani
H4 H 0.3478 0.3421 0.7614 0.0180 Uiso
C9 C 0.4126(2) 0.40789(19) 0.8451(5) 0.0266 Uani
H5 H 0.4242 0.3879 0.8999 0.0800 Uiso
C10 C 0.42538(19) 0.48908(19) 0.7632(5) 0.0262 Uani
H6 H 0.4463 0.5270 0.7601 0.0100 Uiso
C11 C 0.3800(2) 0.46380(19) 0.6771(5) 0.0288 Uani
H7 H 0.3703 0.4844 0.6178 0.0220 Uiso
N1P N -0.07187(16) 0.45391(23) 0.9100(4) 0.0242 Uani
N2P N -0.16802(17) 0.37918(24) 0.7737(5) 0.0363 Uani
N3P N 0.02044(15) 0.45940(21) 0.8639(4) 0.0207 Uani
N4P N 0.06356(16) 0.45423(22) 0.8265(4) 0.0240 Uani
N5P N -0.00962(16) 0.39220(23) 0.7015(4) 0.0272 Uani
N6P N 0.12863(15) 0.35394(21) 0.4813(4) 0.0234 Uani
C1P C -0.11852(19) 0.45153(27) 0.9389(5) 0.0286 Uani
H1P H -0.1194 0.4753 1.0074 0.0330 Uiso
C2P C -0.1656(2) 0.4148(3) 0.8706(6) 0.0357 Uani
H2P H -0.1976 0.4150 0.8934 0.0240 Uiso
C3P C -0.1210(2) 0.3818(3) 0.7450(6) 0.0322 Uani
H3P H -0.1202 0.3579 0.6766 0.0430 Uiso
C4P C -0.07345(19) 0.41856(26) 0.8119(5) 0.0246 Uani
C5P C -0.02168(19) 0.42224(26) 0.7876(5) 0.0241 Uani
C6P C 0.04326(19) 0.41350(27) 0.7305(5) 0.0250 Uani
C7P C 0.07444(19) 0.39258(27) 0.6549(5) 0.0260 Uani
C8P C 0.04677(18) 0.34673(26) 0.5717(5) 0.0266 Uani
H4P H 0.0088 0.3276 0.5719 0.0180 Uiso
C9P C 0.07456(19) 0.32862(28) 0.4882(5) 0.0266 Uani
H5P H 0.0546 0.2970 0.4334 0.0800 Uiso
C10P C 0.15575(19) 0.39703(27) 0.5701(5) 0.0262 Uani
H6P H 0.1937 0.4140 0.5732 0.0100 Uiso
C11P C 0.13047(19) 0.41713(28) 0.6562(5) 0.0288 Uani
H7P H 0.1511 0.4474 0.7155 0.0220 Uiso
Fe1G Fe 0.0000 0.5001 1.0000 0.0205 Uani
Fe1H Fe 0.4999 0.5000 1.0000 0.0205 Uani
N1L N 0.19245(16) 0.40521(16) 0.2434(4) 0.0242 Uani
N3L N 0.10563(14) 0.31290(15) 0.1973(4) 0.0207 Uani
N6D N 0.20471(15) 0.31272(21) 0.1853(4) 0.0234 Uani
C12 C 0.2463(5) 0.4047(6) 0.8864(10) 0.1034 Uani
H8 H 0.2204 0.3685 0.8665 0.1240 Uiso
C13 C 0.2787(6) 0.4499(6) 0.9113(14) 0.1389 Uani
H9 H 0.3046 0.4860 0.9313 0.1670 Uiso
C14 C 0.419(4) 0.650(2) 0.752(7) 0.4578 Uani
H10 H 0.4228 0.6820 0.7898 0.5490 Uiso
C15 C 0.414(4) 0.609(2) 0.705(7) 0.4722 Uani
H11 H 0.4102 0.5765 0.6680 0.5700 Uiso
loop_
_atom_site_aniso_label
_atom_site_aniso_U_11
_atom_site_aniso_U_22
_atom_site_aniso_U_33
_atom_site_aniso_U_23
_atom_site_aniso_U_13
_atom_site_aniso_U_12
Fe1 0.0188(5) 0.0243(6) 0.0199(6) -0.0050(3) -0.0022(3) 0.0118(4)
N1 0.024(2) 0.025(2) 0.026(2) -0.0021(16) 0.0023(16) 0.0141(17)
N2 0.029(2) 0.028(2) 0.051(3) 0.001(2) -0.005(2) 0.0136(19)
N3 0.0150(18) 0.025(2) 0.0214(18) -0.0073(15) -0.0030(15) 0.0095(16)
N4 0.0204(19) 0.027(2) 0.022(2) -0.0064(16) -0.0019(15) 0.0098(17)
N5 0.023(2) 0.030(2) 0.026(2) -0.0033(17) -0.0063(16) 0.0113(17)
N6 0.0208(19) 0.024(2) 0.0212(19) -0.0019(15) -0.0044(15) 0.0081(16)
C1 0.021(2) 0.031(3) 0.035(3) -0.007(2) -0.006(2) 0.014(2)
C2 0.024(3) 0.030(3) 0.051(3) -0.009(2) -0.006(2) 0.012(2)
C3 0.030(3) 0.034(3) 0.038(3) -0.002(2) -0.008(2) 0.020(2)
C4 0.023(2) 0.031(2) 0.023(2) -0.0021(19) -0.0015(18) 0.016(2)
C5 0.024(2) 0.030(3) 0.023(2) -0.0038(19) -0.0009(18) 0.017(2)
C6 0.029(2) 0.025(2) 0.023(2) -0.0052(19) -0.0036(19) 0.015(2)
C7 0.025(2) 0.030(3) 0.022(2) 0.0001(19) 0.0023(18) 0.013(2)
C8 0.028(3) 0.019(2) 0.027(2) -0.0017(19) -0.004(2) 0.0074(19)
C9 0.032(3) 0.029(3) 0.021(2) -0.0038(19) -0.0055(19) 0.017(2)
C10 0.028(2) 0.024(2) 0.024(2) 0.0024(19) -0.0042(19) 0.011(2)
C11 0.033(3) 0.029(3) 0.025(2) -0.003(2) -0.011(2) 0.016(2)
N1P 0.025 0.0208 0.026 0.0044 0.0021 0.0109
N2P 0.028 0.0298 0.051 -0.006 -0.001 0.0144
N3P 0.025 0.021 0.0214 0.0043 0.0073 0.0155
N4P 0.027 0.0278 0.022 0.0045 0.0064 0.0172
N5P 0.03 0.0304 0.026 -0.003 0.0033 0.0187
N6P 0.024 0.0286 0.0212 -0.0025 0.0019 0.0159
C1P 0.031 0.024 0.035 0.001 0.007 0.017
C2P 0.03 0.03 0.051 0.003 0.009 0.018
C3P 0.034 0.024 0.038 -0.006 0.002 0.014
C4P 0.031 0.022 0.023 0.0006 0.0021 0.015
C5P 0.03 0.02 0.023 0.0029 0.0038 0.013
C6P 0.025 0.024 0.023 0.0016 0.0052 0.01
C7P 0.03 0.029 0.022 0.0022 -0.0001 0.017
C8P 0.019 0.0322 0.027 -0.0023 0.0017 0.0116
C9P 0.029 0.027 0.021 -0.0017 0.0038 0.012
C10P 0.024 0.03 0.024 -0.0066 -0.0024 0.013
C11P 0.029 0.03 0.025 -0.008 0.003 0.013
Fe1G 0.0243 0.0195 0.0199 0.0028 0.005 0.0125
Fe1H 0.0195 0.0188 0.0199 0.0022 -0.0028 0.007
N1L 0.024 0.025 0.026 -0.0021 0.0023 0.0141
N3L 0.015 0.025 0.0214 -0.0073 -0.003 0.0095
N6D 0.024 0.0286 0.0212 -0.0025 0.0019 0.0159
C12 0.140(11) 0.150(10) 0.057(5) 0.020(7) 0.038(6) 0.100(9)
C13 0.164(13) 0.156(11) 0.102(8) 0.000(9) 0.068(9) 0.084(10)
C14 0.74(6) 0.39(8) 0.36(5) 0.06(5) -0.01(5) 0.37(8)
C15 0.75(6) 0.39(8) 0.35(5) 0.02(5) -0.01(5) 0.34(8)
loop_
_geom_bond_atom_site_label_1
_geom_bond_atom_site_label_2
_geom_bond_site_symmetry_1
_geom_bond_site_symmetry_2
Fe1 N1 1_555 1_555
N1 C1 1_555 1_555
N2 C2 1_555 1_555
N3 Fe1 1_555 1_555
N4 N3 1_555 1_555
N5 C5 1_555 1_555
N6 C9 1_555 1_555
C1 H1 1_555 1_555
C2 C1 1_555 1_555
H2 C2 1_555 1_555
C3 N2 1_555 1_555
H3 C3 1_555 1_555
C4 N1 1_555 1_555
C5 N3 1_555 1_555
C6 N4 1_555 1_555
C7 C6 1_555 1_555
C8 C7 1_555 1_555
H4 C8 1_555 1_555
C9 C8 1_555 1_555
H5 C9 1_555 1_555
C10 N6 1_555 1_555
H6 C10 1_555 1_555
C11 C7 1_555 1_555
H7 C11 1_555 1_555
C12 H8 1_555 1_555
C13 C12 1_555 1_555
H9 C13 1_555 1_555
C14 H10 1_555 1_555
C15 C14 1_555 1_555
H11 C15 1_555 1_555
N1P C1P 1_555 1_555
N2P C2P 1_555 1_555
N3P N4P 1_555 1_555
N4P C6P 1_555 1_555
N5P C5P 1_555 1_555
N6P Fe1 1_555 1_555
C1P H1P 1_555 1_555
C2P C1P 1_555 1_555
H2P C2P 1_555 1_555
C3P N2P 1_555 1_555
H3P C3P 1_555 1_555
C4P N1P 1_555 1_555
C5P N3P 1_555 1_555
C6P N5P 1_555 1_555
C7P C6P 1_555 1_555
C8P C7P 1_555 1_555
H4P C8P 1_555 1_555
C9P N6P 1_555 1_555
H5P C9P 1_555 1_555
C10P N6P 1_555 1_555
H6P C10P 1_555 1_555
C11P C7P 1_555 1_555
H7P C11P 1_555 1_555
Fe1G N1P 1_555 1_555
Fe1H N6 1_555 1_555
N1L Fe1 1_555 1_555
N3L Fe1 1_555 1_555
N6D Fe1 1_555 1_555
N5 C6 1_555 1_555
C3 C4 1_555 1_555
C4 C5 1_555 1_555
C10 C11 1_555 1_555
N3P Fe1G 1_555 1_555
C3P C4P 1_555 1_555
C4P C5P 1_555 1_555
C8P C9P 1_555 1_555
C10P C11P 1_555 1_555

#END
