
#######################################################################
#
#                 Cambridge Crystallographic Data Centre
#                                CCDC 
#
#######################################################################
#
# If this CIF has been generated from an entry in the Cambridge 
# Structural Database, then it will include bibliographic, chemical, 
# crystal, experimental, refinement or atomic coordinate data resulting 
# from the CCDC's data processing and validation procedures.
#
#######################################################################

data_ODEQAS
_chemical_formula_moiety         '(C22 H14 Fe1 N12)n'
_chemical_name_systematic        
catena-(bis(\m-2-(3-(pyridin-4-yl)-1H-1,2,4-triazol-5-yl)pyrazine)-iron)
_symmetry_cell_setting           rhombohedral
_symmetry_space_group_name_H-M   'R -3'
_symmetry_Int_Tables_number      148
_space_group_name_Hall           '-R 3'
loop_
_symmetry_equiv_pos_site_id
_symmetry_equiv_pos_as_xyz
1 x,y,z
2 -y,x-y,z
3 -x+y,-x,z
4 2/3+x,1/3+y,1/3+z
5 2/3-y,1/3+x-y,1/3+z
6 2/3-x+y,1/3-x,1/3+z
7 1/3+x,2/3+y,2/3+z
8 1/3-y,2/3+x-y,2/3+z
9 1/3-x+y,2/3-x,2/3+z
10 -x,-y,-z
11 y,-x+y,-z
12 x-y,x,-z
13 1/3-x,2/3-y,2/3-z
14 1/3+y,2/3-x+y,2/3-z
15 1/3+x-y,2/3+x,2/3-z
16 2/3-x,1/3-y,1/3-z
17 2/3+y,1/3-x+y,1/3-z
18 2/3+x-y,1/3+x,1/3-z
_cell_length_a                   27.897(4)
_cell_length_b                   27.897(4)
_cell_length_c                   8.6691(17)
_cell_angle_alpha                90
_cell_angle_beta                 90
_cell_angle_gamma                120
_cell_volume                     5842.78
_exptl_crystal_colour            black
_exptl_crystal_description       block
_cell_formula_units_Z            9
loop_
_atom_site_label
_atom_site_type_symbol
_atom_site_fract_x
_atom_site_fract_y
_atom_site_fract_z
_atom_site_U_iso_or_equiv
_atom_site_thermal_displace_type
Fe1 Fe 0.5000 1.0000 0.5000 0.0224 Uani
N1 N 0.42180(7) 0.96128(7) 0.4273(2) 0.0258 Uani
C1 C 0.31642(8) 0.91250(9) 0.2960(2) 0.0270 Uani
C2 C 0.40329(9) 0.91720(9) 0.3331(2) 0.0286 Uani
H1 H 0.4265 0.9030 0.3123 0.0340 Uiso
C3 C 0.35205(9) 0.89239(9) 0.2664(3) 0.0306 Uani
H2 H 0.3411 0.8621 0.2014 0.0370 Uiso
C4 C 0.38620(9) 0.97912(10) 0.4606(3) 0.0314 Uani
H3 H 0.3976 1.0087 0.5283 0.0380 Uiso
C5 C 0.33391(9) 0.95570(10) 0.3996(3) 0.0321 Uani
H4 H 0.3104 0.9688 0.4279 0.0390 Uiso
N2 N 0.25755(7) 0.86545(7) 0.0762(2) 0.0260 Uani
C6 C 0.26470(9) 0.89174(9) 0.2110(2) 0.0271 Uani
N3 N 0.22297(7) 0.90069(8) 0.2514(2) 0.0320 Uani
N4 N 0.20828(7) 0.85710(7) 0.0247(2) 0.0248 Uani
C7 C 0.18904(8) 0.87771(9) 0.1306(2) 0.0272 Uani
C8 C 0.13586(9) 0.87237(9) 0.0971(2) 0.0287 Uani
C9 C 0.10633(10) 0.88760(11) 0.1930(3) 0.0396 Uani
H5 H 0.1212 0.9027 0.2888 0.0480 Uiso
N5 N 0.11606(7) 0.84947(7) -0.0436(2) 0.0272 Uani
N6 N 0.05731(9) 0.88160(10) 0.1542(3) 0.0483 Uani
C10 C 0.06631(9) 0.84244(10) -0.0818(3) 0.0360 Uani
H6 H 0.0506 0.8266 -0.1762 0.0430 Uiso
C11 C 0.03810(10) 0.85842(13) 0.0170(3) 0.0472 Uani
H7 H 0.0037 0.8527 -0.0139 0.0570 Uiso
N1I N 0.57820(7) 1.03872(7) 0.5727(2) 0.0258 Uani
C1I C 0.68358(8) 1.08750(9) 0.7040(2) 0.0270 Uani
C2I C 0.59671(9) 1.08280(9) 0.6669(2) 0.0286 Uani
H1I H 0.5735 1.0970 0.6877 0.0340 Uiso
C3I C 0.64795(9) 1.10761(9) 0.7336(3) 0.0306 Uani
H2I H 0.6589 1.1379 0.7986 0.0370 Uiso
C4I C 0.61380(9) 1.02088(10) 0.5394(3) 0.0314 Uani
H3I H 0.6024 0.9913 0.4717 0.0380 Uiso
C5I C 0.66609(9) 1.04430(10) 0.6004(3) 0.0321 Uani
H4I H 0.6896 1.0312 0.5721 0.0390 Uiso
N2I N 0.74245(7) 1.13455(7) 0.9238(2) 0.0260 Uani
C6I C 0.73530(9) 1.10826(9) 0.7890(2) 0.0271 Uani
N3I N 0.77703(7) 1.09931(8) 0.7486(2) 0.0320 Uani
N4I N 0.79172(7) 1.14290(7) 0.9753(2) 0.0248 Uani
C7I C 0.81096(8) 1.12229(9) 0.8694(2) 0.0272 Uani
C8I C 0.86414(9) 1.12763(9) 0.9029(2) 0.0287 Uani
C9I C 0.89367(10) 1.11240(11) 0.8070(3) 0.0396 Uani
H5I H 0.8788 1.0973 0.7112 0.0480 Uiso
N5I N 0.88394(7) 1.15053(7) 1.0436(2) 0.0272 Uani
N6I N 0.94269(9) 1.11840(10) 0.8458(3) 0.0483 Uani
C10I C 0.93369(9) 1.15756(10) 1.0818(3) 0.0360 Uani
H6I H 0.9494 1.1734 1.1762 0.0430 Uiso
C11I C 0.96190(10) 1.14158(13) 0.9830(3) 0.0472 Uani
H7I H 0.9963 1.1473 1.0139 0.0570 Uiso
Fe1E Fe 0.1667 0.8333 -0.1667 0.0224 Uani
Fe1H Fe 0.8333 1.1667 1.1667 0.0224 Uani
N4G N 0.47623(7) 1.01785(10) 0.6914(2) 0.0248 Uani
N4P N 0.52377(7) 0.98215(10) 0.3086(2) 0.0248 Uani
N5G N 0.48386(7) 0.93326(10) 0.6231(2) 0.0272 Uani
N5P N 0.51614(7) 1.06674(10) 0.3769(2) 0.0272 Uani
loop_
_atom_site_aniso_label
_atom_site_aniso_U_11
_atom_site_aniso_U_22
_atom_site_aniso_U_33
_atom_site_aniso_U_23
_atom_site_aniso_U_13
_atom_site_aniso_U_12
Fe1 0.0219(2) 0.0263(3) 0.0222(3) -0.00791(15) -0.00454(15) 0.01455(18)
N1 0.0248(9) 0.0288(9) 0.0248(9) -0.0053(7) -0.0045(7) 0.0142(7)
C1 0.0250(10) 0.0279(10) 0.0244(10) 0.0014(8) -0.0031(8) 0.0105(9)
C2 0.0272(11) 0.0295(11) 0.0312(11) -0.0064(9) -0.0037(9) 0.0157(9)
C3 0.0295(11) 0.0280(11) 0.0308(11) -0.0084(9) -0.0063(9) 0.0117(9)
C4 0.0304(11) 0.0382(12) 0.0305(11) -0.0123(9) -0.0085(9) 0.0208(10)
C5 0.0297(11) 0.0405(13) 0.0321(11) -0.0078(10) -0.0065(9) 0.0220(10)
N2 0.0224(9) 0.0261(9) 0.0259(9) 0.0030(7) -0.0056(7) 0.0095(7)
C6 0.0252(10) 0.0263(10) 0.0254(11) 0.0020(8) -0.0045(8) 0.0095(9)
N3 0.0266(9) 0.0375(10) 0.0291(9) -0.0032(8) -0.0063(7) 0.0139(8)
N4 0.0216(8) 0.0232(8) 0.0255(9) 0.0046(7) -0.0037(7) 0.0081(7)
C7 0.0240(10) 0.0277(10) 0.0253(10) 0.0037(8) -0.0022(8) 0.0095(9)
C8 0.0244(10) 0.0287(11) 0.0281(11) 0.0036(8) -0.0014(8) 0.0095(9)
C9 0.0356(13) 0.0502(14) 0.0328(12) -0.0044(11) -0.0025(10) 0.0213(11)
N5 0.0237(9) 0.0269(9) 0.0273(9) 0.0060(7) -0.0022(7) 0.0099(7)
N6 0.0380(12) 0.0677(15) 0.0459(13) -0.0069(11) 0.0000(10) 0.0315(11)
C10 0.0267(11) 0.0475(14) 0.0335(12) 0.0006(10) -0.0052(9) 0.0184(10)
C11 0.0305(12) 0.0690(18) 0.0477(15) -0.0044(13) -0.0050(11) 0.0290(13)
N1I 0.0248 0.0288 0.0248 -0.0053 -0.0045 0.0142
C1I 0.025 0.0279 0.0244 0.0014 -0.0031 0.0105
C2I 0.0272 0.0295 0.0312 -0.0064 -0.0037 0.0157
C3I 0.0295 0.028 0.0308 -0.0084 -0.0063 0.0117
C4I 0.0304 0.0382 0.0305 -0.0123 -0.0085 0.0208
C5I 0.0297 0.0405 0.0321 -0.0078 -0.0065 0.022
N2I 0.0224 0.0261 0.0259 0.003 -0.0056 0.0095
C6I 0.0252 0.0263 0.0254 0.002 -0.0045 0.0095
N3I 0.0266 0.0375 0.0291 -0.0032 -0.0063 0.0139
N4I 0.0216 0.0232 0.0255 0.0046 -0.0037 0.0081
C7I 0.024 0.0277 0.0253 0.0037 -0.0022 0.0095
C8I 0.0244 0.0287 0.0281 0.0036 -0.0014 0.0095
C9I 0.0356 0.0502 0.0328 -0.0044 -0.0025 0.0213
N5I 0.0237 0.0269 0.0273 0.006 -0.0022 0.0099
N6I 0.038 0.0677 0.0459 -0.0069 0 0.0315
C10I 0.0267 0.0475 0.0335 0.0006 -0.0052 0.0184
C11I 0.0305 0.069 0.0477 -0.0044 -0.005 0.029
Fe1E 0.0191 0.0219 0.0222 0.00454 -0.00337 0.00735
Fe1H 0.0191 0.0219 0.0222 0.00454 -0.00337 0.00735
N4G 0.0232 0.0286 0.0255 -0.0083 -0.0046 0.0151
N4P 0.0232 0.0286 0.0255 -0.0083 -0.0046 0.0151
N5G 0.0269 0.0308 0.0273 -0.0082 -0.006 0.017
N5P 0.0269 0.0308 0.0273 -0.0082 -0.006 0.017
loop_
_geom_bond_atom_site_label_1
_geom_bond_atom_site_label_2
_geom_bond_site_symmetry_1
_geom_bond_site_symmetry_2
Fe1 N1 1_555 1_555
N1 C2 1_555 1_555
C1 C3 1_555 1_555
C2 H1 1_555 1_555
C3 C2 1_555 1_555
H2 C3 1_555 1_555
C4 N1 1_555 1_555
H3 C4 1_555 1_555
C5 C1 1_555 1_555
H4 C5 1_555 1_555
N2 C6 1_555 1_555
C6 C1 1_555 1_555
N3 C6 1_555 1_555
N4 N2 1_555 1_555
C7 N3 1_555 1_555
C8 C7 1_555 1_555
C9 C8 1_555 1_555
H5 C9 1_555 1_555
N5 C8 1_555 1_555
N6 C9 1_555 1_555
C10 N5 1_555 1_555
H6 C10 1_555 1_555
C11 N6 1_555 1_555
H7 C11 1_555 1_555
N1I Fe1 1_555 1_555
C1I C3I 1_555 1_555
C2I N1I 1_555 1_555
H1I C2I 1_555 1_555
C3I C2I 1_555 1_555
H2I C3I 1_555 1_555
C4I N1I 1_555 1_555
H3I C4I 1_555 1_555
C5I C1I 1_555 1_555
H4I C5I 1_555 1_555
N2I C6I 1_555 1_555
C6I C1I 1_555 1_555
N3I C6I 1_555 1_555
N4I N2I 1_555 1_555
C7I N3I 1_555 1_555
C8I C7I 1_555 1_555
C9I C8I 1_555 1_555
H5I C9I 1_555 1_555
N5I C8I 1_555 1_555
N6I C9I 1_555 1_555
C10I N5I 1_555 1_555
H6I C10I 1_555 1_555
C11I N6I 1_555 1_555
H7I C11I 1_555 1_555
Fe1E N4 1_555 1_555
Fe1H N4I 1_555 1_555
N4G Fe1 1_555 1_555
N4P Fe1 1_555 1_555
N5G Fe1 1_555 1_555
N5P Fe1 1_555 1_555
C4 C5 1_555 1_555
N4 C7 1_555 1_555
N5 Fe1E 1_555 1_555
C10 C11 1_555 1_555
C4I C5I 1_555 1_555
N4I C7I 1_555 1_555
N5I Fe1H 1_555 1_555
C10I C11I 1_555 1_555

#END
