
#######################################################################
#
#                 Cambridge Crystallographic Data Centre
#                                CCDC 
#
#######################################################################
#
# If this CIF has been generated from an entry in the Cambridge 
# Structural Database, then it will include bibliographic, chemical, 
# crystal, experimental, refinement or atomic coordinate data resulting 
# from the CCDC's data processing and validation procedures.
#
#######################################################################

data_ODEQEW
_chemical_formula_moiety         '(C22 H14 Fe1 N12)n,5(C1 O2)'
_chemical_name_systematic        
'catena-(bis(\m-2-(3-(pyridin-4-yl)-1H-1,2,4-triazol-5-yl)pyrazine)-iron pentakis(carbon dioxide))'
_symmetry_cell_setting           rhombohedral
_symmetry_space_group_name_H-M   'R -3'
_symmetry_Int_Tables_number      148
_space_group_name_Hall           '-R 3'
loop_
_symmetry_equiv_pos_site_id
_symmetry_equiv_pos_as_xyz
1 x,y,z
2 -y,x-y,z
3 -x+y,-x,z
4 2/3+x,1/3+y,1/3+z
5 2/3-y,1/3+x-y,1/3+z
6 2/3-x+y,1/3-x,1/3+z
7 1/3+x,2/3+y,2/3+z
8 1/3-y,2/3+x-y,2/3+z
9 1/3-x+y,2/3-x,2/3+z
10 -x,-y,-z
11 y,-x+y,-z
12 x-y,x,-z
13 1/3-x,2/3-y,2/3-z
14 1/3+y,2/3-x+y,2/3-z
15 1/3+x-y,2/3+x,2/3-z
16 2/3-x,1/3-y,1/3-z
17 2/3+y,1/3-x+y,1/3-z
18 2/3+x-y,1/3+x,1/3-z
_cell_length_a                   28.622(4)
_cell_length_b                   28.622(4)
_cell_length_c                   9.2243(18)
_cell_angle_alpha                90
_cell_angle_beta                 90
_cell_angle_gamma                120
_cell_volume                     6544.31
_exptl_crystal_colour            black
_exptl_crystal_description       block
_cell_formula_units_Z            9
loop_
_atom_site_label
_atom_site_type_symbol
_atom_site_fract_x
_atom_site_fract_y
_atom_site_fract_z
_atom_site_U_iso_or_equiv
_atom_site_thermal_displace_type
Fe1 Fe 1.0000 0.5000 1.0000 0.0148 Uani
N1 N 0.92848(15) 0.45615(15) 0.9083(4) 0.0182 Uani
N2 N 0.83218(17) 0.38573(17) 0.7622(5) 0.0318 Uani
N3 N 1.01950(15) 0.45967(14) 0.8613(4) 0.0162 Uani
N4 N 1.06290(15) 0.45456(15) 0.8222(4) 0.0185 Uani
N5 N 0.98894(16) 0.39385(16) 0.6960(4) 0.0214 Uani
N6 N 1.12830(15) 0.35524(15) 0.4767(4) 0.0181 Uani
C1 C 0.92592(19) 0.42061(17) 0.8063(5) 0.0195 Uani
C2 C 0.87861(19) 0.38693(19) 0.7356(5) 0.0253 Uani
H1 H 0.8789 0.3632 0.6639 0.0370 Uiso
C3 C 0.8347(2) 0.4206(2) 0.8636(6) 0.0302 Uani
H2 H 0.8029 0.4216 0.8862 0.0410 Uiso
C4 C 0.88151(19) 0.45490(19) 0.9363(5) 0.0227 Uani
H3 H 0.8808 0.4783 1.0080 0.0280 Uiso
C5 C 0.97740(18) 0.42315(17) 0.7840(5) 0.0187 Uani
C6 C 1.04256(18) 0.41475(18) 0.7231(5) 0.0188 Uani
C7 C 1.07333(19) 0.39379(18) 0.6480(5) 0.0206 Uani
C8 C 1.04593(19) 0.34708(19) 0.5657(5) 0.0228 Uani
H4 H 1.0076 0.3273 0.5661 0.0250 Uiso
C9 C 1.07398(18) 0.32942(19) 0.4842(5) 0.0214 Uani
H5 H 1.0541 0.2972 0.4298 0.0130 Uiso
C10 C 1.15554(19) 0.39937(19) 0.5614(5) 0.0224 Uani
H6 H 1.1938 0.4173 0.5623 0.0230 Uiso
C11 C 1.12986(19) 0.41939(19) 0.6467(5) 0.0225 Uani
H7 H 1.1505 0.4506 0.7046 0.0440 Uiso
N1I N 1.07152(15) 0.54385(15) 1.0917(4) 0.0182 Uani
N2I N 1.16782(17) 0.61427(17) 1.2378(5) 0.0318 Uani
N3I N 0.98050(15) 0.54033(14) 1.1387(4) 0.0162 Uani
N4I N 0.93710(15) 0.54544(15) 1.1778(4) 0.0185 Uani
N5I N 1.01106(16) 0.60615(16) 1.3040(4) 0.0214 Uani
N6I N 0.87170(15) 0.64476(15) 1.5233(4) 0.0181 Uani
C1I C 1.07408(19) 0.57939(17) 1.1937(5) 0.0195 Uani
C2I C 1.12139(19) 0.61307(19) 1.2644(5) 0.0253 Uani
H1I H 1.1211 0.6368 1.3361 0.0370 Uiso
C3I C 1.1653(2) 0.5794(2) 1.1364(6) 0.0302 Uani
H2I H 1.1971 0.5784 1.1138 0.0410 Uiso
C4I C 1.11849(19) 0.54510(19) 1.0637(5) 0.0227 Uani
H3I H 1.1192 0.5217 0.9920 0.0280 Uiso
C5I C 1.02260(18) 0.57685(17) 1.2160(5) 0.0187 Uani
C6I C 0.95744(18) 0.58525(18) 1.2769(5) 0.0188 Uani
C7I C 0.92667(19) 0.60621(18) 1.3520(5) 0.0206 Uani
C8I C 0.95407(19) 0.65292(19) 1.4343(5) 0.0228 Uani
H4I H 0.9924 0.6727 1.4339 0.0250 Uiso
C9I C 0.92602(18) 0.67058(19) 1.5158(5) 0.0214 Uani
H5I H 0.9459 0.7028 1.5702 0.0130 Uiso
C10I C 0.84446(19) 0.60063(19) 1.4386(5) 0.0224 Uani
H6I H 0.8062 0.5827 1.4377 0.0230 Uiso
C11I C 0.87014(19) 0.58061(19) 1.3533(5) 0.0225 Uani
H7I H 0.8495 0.5494 1.2954 0.0440 Uiso
Fe1E Fe 1.1667 0.3333 0.3333 0.0148 Uani
Fe1H Fe 0.8333 0.6667 1.6667 0.0148 Uani
N6G N 0.97809(15) 0.43973(21) 1.1434(4) 0.0181 Uani
N6P N 1.02191(15) 0.56027(21) 0.8566(4) 0.0181 Uani
O1 O -0.0093(13) 0.8888(6) 0.892(4) 0.4456 Uani
O2 O 0.0445(13) 0.9799(5) 0.845(5) 0.5142 Uani
C12 C 0.01402(19) 0.93394(19) 0.8564(5) 0.4873 Uani
O3 O 0.2073(3) 0.3726(3) 0.8682(8) 0.1200 Uani
C13 C 0.1667 0.3333 0.8333 0.1047 Uani
O3L O 0.1260(3) 0.2941(3) 0.7985(8) 0.1200 Uani
O4 O 0.3094 0.4517 0.9819 0.2302 Uani
O5 O 0.2680 0.4755 0.7862 0.2491 Uani
C14 C 0.2876 0.4634 0.8931 0.2557 Uani
loop_
_atom_site_aniso_label
_atom_site_aniso_U_11
_atom_site_aniso_U_22
_atom_site_aniso_U_33
_atom_site_aniso_U_23
_atom_site_aniso_U_13
_atom_site_aniso_U_12
Fe1 0.0176(5) 0.0140(5) 0.0137(6) 0.0022(3) 0.0045(3) 0.0086(4)
N1 0.0199(19) 0.0167(18) 0.0183(19) 0.0023(14) 0.0046(15) 0.0094(16)
N2 0.023(2) 0.029(2) 0.041(3) -0.0064(19) -0.0004(18) 0.0111(19)
N3 0.0220(19) 0.0172(18) 0.0137(18) 0.0039(14) 0.0046(14) 0.0130(16)
N4 0.0198(19) 0.0196(19) 0.0187(19) 0.0020(15) 0.0047(15) 0.0119(16)
N5 0.024(2) 0.024(2) 0.019(2) -0.0024(15) 0.0026(15) 0.0142(17)
N6 0.0204(19) 0.0201(19) 0.0151(18) -0.0025(14) -0.0005(14) 0.0111(16)
C1 0.023(2) 0.016(2) 0.022(2) 0.0034(17) 0.0050(18) 0.0117(19)
C2 0.026(2) 0.023(2) 0.028(3) -0.0038(19) 0.000(2) 0.013(2)
C3 0.021(2) 0.031(3) 0.040(3) -0.004(2) 0.002(2) 0.014(2)
C4 0.023(2) 0.021(2) 0.028(2) 0.0013(19) 0.0056(19) 0.014(2)
C5 0.022(2) 0.018(2) 0.018(2) 0.0032(17) 0.0051(17) 0.0114(19)
C6 0.020(2) 0.018(2) 0.018(2) 0.0002(17) 0.0038(17) 0.0092(18)
C7 0.026(2) 0.019(2) 0.017(2) -0.0011(17) 0.0016(18) 0.0114(19)
C8 0.021(2) 0.024(2) 0.023(2) -0.0031(18) 0.0013(18) 0.011(2)
C9 0.020(2) 0.021(2) 0.021(2) -0.0044(18) -0.0018(18) 0.0085(19)
C10 0.021(2) 0.025(2) 0.022(2) -0.0061(18) -0.0007(18) 0.012(2)
C11 0.021(2) 0.021(2) 0.023(2) -0.0083(18) -0.0008(18) 0.0087(19)
N1I 0.0199 0.0167 0.0183 0.0023 0.0046 0.0094
N2I 0.023 0.029 0.041 -0.0064 -0.0004 0.0111
N3I 0.022 0.0172 0.0137 0.0039 0.0046 0.013
N4I 0.0198 0.0196 0.0187 0.002 0.0047 0.0119
N5I 0.024 0.024 0.019 -0.0024 0.0026 0.0142
N6I 0.0204 0.0201 0.0151 -0.0025 -0.0005 0.0111
C1I 0.023 0.016 0.022 0.0034 0.005 0.0117
C2I 0.026 0.023 0.028 -0.0038 0 0.013
C3I 0.021 0.031 0.04 -0.004 0.002 0.014
C4I 0.023 0.021 0.028 0.0013 0.0056 0.014
C5I 0.022 0.018 0.018 0.0032 0.0051 0.0114
C6I 0.02 0.018 0.018 0.0002 0.0038 0.0092
C7I 0.026 0.019 0.017 -0.0011 0.0016 0.0114
C8I 0.021 0.024 0.023 -0.0031 0.0013 0.011
C9I 0.02 0.021 0.021 -0.0044 -0.0018 0.0085
C10I 0.021 0.025 0.022 -0.0061 -0.0007 0.012
C11I 0.021 0.021 0.023 -0.0083 -0.0008 0.0087
Fe1E 0.0144 0.0176 0.0137 -0.0045 -0.0023 0.009
Fe1H 0.0144 0.0176 0.0137 -0.0045 -0.0023 0.009
N6G 0.0201 0.0183 0.0151 0.002 0.0025 0.009
N6P 0.0201 0.0183 0.0151 0.002 0.0025 0.009
O1 0.457(19) 0.461(18) 0.47(2) 0.000(14) -0.050(14) 0.268(15)
O2 0.51(2) 0.489(18) 0.52(2) 0.019(15) -0.013(15) 0.232(15)
C12 0.487(17) 0.481(17) 0.494(17) 0.008(10) -0.012(10) 0.242(11)
O3 0.183(8) 0.161(8) 0.072(4) 0.017(5) 0.035(5) 0.128(7)
C13 0.142(10) 0.130(10) 0.086(9) 0.022(7) 0.032(7) 0.101(7)
O3L 0.183 0.161 0.072 0.017 0.035 0.128
O4 0.234(11) 0.290(12) 0.184(11) -0.043(9) 0.053(8) 0.144(9)
O5 0.233(12) 0.310(13) 0.222(12) -0.032(10) 0.047(9) 0.149(10)
C14 0.248(11) 0.291(11) 0.235(12) -0.027(8) 0.030(8) 0.140(8)
loop_
_geom_bond_atom_site_label_1
_geom_bond_atom_site_label_2
_geom_bond_site_symmetry_1
_geom_bond_site_symmetry_2
Fe1 N1 1_555 1_555
N1 C1 1_555 1_555
N2 C2 1_555 1_555
N3 Fe1 1_555 1_555
N4 N3 1_555 1_555
N5 C5 1_555 1_555
N6 C9 1_555 1_555
C1 C2 1_555 1_555
C2 H1 1_555 1_555
C3 N2 1_555 1_555
H2 C3 1_555 1_555
C4 N1 1_555 1_555
H3 C4 1_555 1_555
C5 N3 1_555 1_555
C6 N4 1_555 1_555
C7 C6 1_555 1_555
C8 C7 1_555 1_555
H4 C8 1_555 1_555
C9 C8 1_555 1_555
H5 C9 1_555 1_555
C10 N6 1_555 1_555
H6 C10 1_555 1_555
C11 C7 1_555 1_555
H7 C11 1_555 1_555
O1 C12 1_555 1_555
O2 C12 1_555 1_555
O3 C13 1_555 1_555
C13 O3L 1_555 1_555
O4 C14 1_555 1_555
O5 C14 1_555 1_555
N1I Fe1 1_555 1_555
N2I C2I 1_555 1_555
N3I Fe1 1_555 1_555
N4I N3I 1_555 1_555
N5I C5I 1_555 1_555
N6I C9I 1_555 1_555
C1I N1I 1_555 1_555
C2I C1I 1_555 1_555
H1I C2I 1_555 1_555
C3I N2I 1_555 1_555
H2I C3I 1_555 1_555
C4I N1I 1_555 1_555
H3I C4I 1_555 1_555
C5I N3I 1_555 1_555
C6I N4I 1_555 1_555
C7I C6I 1_555 1_555
C8I C7I 1_555 1_555
H4I C8I 1_555 1_555
C9I C8I 1_555 1_555
H5I C9I 1_555 1_555
C10I N6I 1_555 1_555
H6I C10I 1_555 1_555
C11I C7I 1_555 1_555
H7I C11I 1_555 1_555
Fe1E N6 1_555 1_555
Fe1H N6I 1_555 1_555
N6G Fe1 1_555 1_555
N6P Fe1 1_555 1_555
N5 C6 1_555 1_555
C1 C5 1_555 1_555
C3 C4 1_555 1_555
C10 C11 1_555 1_555
N5I C6I 1_555 1_555
C1I C5I 1_555 1_555
C3I C4I 1_555 1_555
C10I C11I 1_555 1_555

#END
