
#######################################################################
#
#                 Cambridge Crystallographic Data Centre
#                                CCDC 
#
#######################################################################
#
# If this CIF has been generated from an entry in the Cambridge 
# Structural Database, then it will include bibliographic, chemical, 
# crystal, experimental, refinement or atomic coordinate data resulting 
# from the CCDC's data processing and validation procedures.
#
#######################################################################

data_HEBSUE
_chemical_formula_moiety         '(C30 H24 Mn2 N4 O10)n'
_chemical_name_systematic        
catena-(bis((\m~4~-Naphthalene-1,4-dicarboxylato)-(\m~2~-imidazolidin-2-one-O))-di-manganese)
_symmetry_cell_setting           monoclinic
_symmetry_space_group_name_H-M   'P 21/c'
_symmetry_Int_Tables_number      14
_space_group_name_Hall           '-P 2ybc'
loop_
_symmetry_equiv_pos_site_id
_symmetry_equiv_pos_as_xyz
1 x,y,z
2 -x,1/2+y,1/2-z
3 -x,-y,-z
4 x,1/2-y,1/2+z
_cell_length_a                   7.444(2)
_cell_length_b                   11.332(4)
_cell_length_c                   18.011(6)
_cell_angle_alpha                90
_cell_angle_beta                 90.322(7)
_cell_angle_gamma                90
_cell_volume                     1519.3
_exptl_crystal_colour            colorless
_exptl_crystal_description       prism
_cell_formula_units_Z            2
loop_
_atom_site_label
_atom_site_type_symbol
_atom_site_fract_x
_atom_site_fract_y
_atom_site_fract_z
Mn1 Mn 0.0000 0.0000 0.0000
Mn2 Mn -0.5000 0.0000 0.0000
O1 O -0.3782(3) 0.15940(19) 0.04842(11)
O2 O -0.1350(3) 0.4169(2) 0.40667(11)
O3 O -0.4241(3) 0.4609(2) 0.38890(11)
O4 O -0.0901(3) 0.1267(2) 0.07469(12)
C1 C -0.2645(4) 0.3782(3) 0.28822(15)
O5 O -0.2511(3) -0.10963(18) 0.02145(11)
C2 C -0.0960(4) 0.3278(3) 0.17511(15)
C3 C -0.2370(4) 0.1765(3) 0.08542(14)
C4 C -0.2465(4) 0.2582(3) 0.15151(14)
C5 C -0.3998(4) 0.2575(3) 0.19276(17)
C6 C -0.1049(4) 0.3899(3) 0.24441(15)
C7 C -0.4086(4) 0.3172(3) 0.26124(16)
C8 C -0.2751(4) 0.4239(3) 0.36731(15)
C9 C 0.0614(4) 0.3421(3) 0.13141(17)
C10 C 0.0407(4) 0.4635(3) 0.26523(17)
C11 C 0.1990(5) 0.4119(3) 0.15408(19)
H1 H 0.3012 0.4187 0.1250
C12 C -0.2573(4) -0.2100(3) 0.05118(17)
C13 C 0.1879(5) 0.4743(3) 0.2214(2)
N1 N -0.1370(5) -0.2545(3) 0.0971(2)
H2 H -0.0390 -0.2189 0.1091
N2 N -0.3854(4) -0.2901(3) 0.0403(2)
H3 H -0.4738 -0.2805 0.0099
C14 C -0.3603(7) -0.3943(4) 0.0845(3)
H4 H -0.3496 -0.4640 0.0537
H5 H -0.4585 -0.4051 0.1190
C15 C -0.1862(7) -0.3682(4) 0.1250(3)
H6 H -0.2041 -0.3660 0.1783
H7 H -0.0954 -0.4267 0.1136
H8 H 0.033(4) 0.509(3) 0.3102(19)
H9 H -0.498(4) 0.213(3) 0.1769(18)
H10 H -0.519(4) 0.315(3) 0.2888(18)
H11 H 0.070(4) 0.301(3) 0.0883(18)
H12 H 0.293(5) 0.518(3) 0.237(2)
Mn1_2 Mn -1.0000 0.0000 0.0000
Mn1A Mn -1.0000 -0.5000 -0.5000
Mn1A_2 Mn 0.0000 0.5000 0.5000
Mn2A Mn -0.5000 -0.5000 -0.5000
Mn2A_2 Mn -0.5000 0.5000 0.5000
O1B O -0.6218(3) -0.15940(19) -0.04842(11)
O2B O -0.8650(3) -0.4169(2) -0.40667(11)
O2A O 0.1350(3) -0.0831(2) 0.09333(11)
O2C O -0.1350(3) 0.0831(2) -0.09333(11)
O3B O -0.5759(3) -0.4609(2) -0.38890(11)
O3A O -0.5759(3) -0.0391(2) 0.11110(11)
O3C O -0.4241(3) 0.0391(2) -0.11110(11)
O4B O -0.9099(3) -0.1267(2) -0.07469(12)
O4B_2 O 0.0901(3) -0.1267(2) -0.07469(12)
C1B C -0.7355(4) -0.3782(3) -0.28822(15)
O5B O -0.7489(3) 0.10963(18) -0.02145(11)
O5B_2 O 0.2511(3) 0.10963(18) -0.02145(11)
C2B C -0.9040(4) -0.3278(3) -0.17511(15)
C3B C -0.7630(4) -0.1765(3) -0.08542(14)
C4B C -0.7535(4) -0.2582(3) -0.15151(14)
C5B C -0.6002(4) -0.2575(3) -0.19276(17)
C6B C -0.8951(4) -0.3899(3) -0.24441(15)
C7B C -0.5914(4) -0.3172(3) -0.26124(16)
C8B C -0.7249(4) -0.4239(3) -0.36731(15)
C9B C -1.0614(4) -0.3421(3) -0.13141(17)
C10B C -1.0407(4) -0.4635(3) -0.26523(17)
C11B C -1.1990(5) -0.4119(3) -0.15408(19)
H1B H -1.3012 -0.4187 -0.1250
C12B C -0.7427(4) 0.2100(3) -0.05118(17)
C13B C -1.1879(5) -0.4743(3) -0.2214(2)
N1B N -0.8630(5) 0.2545(3) -0.0971(2)
H2B H -0.9610 0.2189 -0.1091
N2B N -0.6146(4) 0.2901(3) -0.0403(2)
H3B H -0.5262 0.2805 -0.0099
C14B C -0.6397(7) 0.3943(4) -0.0845(3)
H4B H -0.6504 0.4640 -0.0537
H5B H -0.5415 0.4051 -0.1190
C15B C -0.8138(7) 0.3682(4) -0.1250(3)
H6B H -0.7959 0.3660 -0.1783
H7B H -0.9046 0.4267 -0.1136
H8B H -1.033(4) -0.509(3) -0.3102(19)
H9B H -0.502(4) -0.213(3) -0.1769(18)
H10B H -0.481(4) -0.315(3) -0.2888(18)
H11B H -1.070(4) -0.301(3) -0.0883(18)
H12B H -1.293(5) -0.518(3) -0.237(2)
loop_
_geom_bond_atom_site_label_1
_geom_bond_atom_site_label_2
_geom_bond_site_symmetry_1
_geom_bond_site_symmetry_2
Mn1 O4 1_555 1_555
Mn2 O1 1_555 1_555
O1 C3 1_555 1_555
O2 C8 1_555 1_555
O3 C8 1_555 1_555
O4 C3 1_555 1_555
C1 C6 1_555 1_555
O5 Mn1 1_555 1_555
C2 C4 1_555 1_555
C3 C4 1_555 1_555
C4 C5 1_555 1_555
C5 C7 1_555 1_555
C6 C2 1_555 1_555
C7 C1 1_555 1_555
C8 C1 1_555 1_555
C9 C2 1_555 1_555
C10 C6 1_555 1_555
C11 C9 1_555 1_555
H1 C11 1_555 1_555
C12 O5 1_555 1_555
C13 C10 1_555 1_555
N1 C12 1_555 1_555
H2 N1 1_555 1_555
N2 C12 1_555 1_555
H3 N2 1_555 1_555
C14 N2 1_555 1_555
H4 C14 1_555 1_555
H5 C14 1_555 1_555
C15 N1 1_555 1_555
H6 C15 1_555 1_555
H7 C15 1_555 1_555
H8 C10 1_555 1_555
H9 C5 1_555 1_555
H10 C7 1_555 1_555
H11 C9 1_555 1_555
H12 C13 1_555 1_555
Mn1_2 O4B 1_555 1_555
Mn1A O2B 1_555 1_555
Mn1A_2 O2 1_555 1_555
Mn2A O3B 1_555 1_555
Mn2A_2 O3 1_555 1_555
O1B Mn2 1_555 1_555
O2B C8B 1_555 1_555
O2A Mn1 1_555 1_555
O2C Mn1 1_555 1_555
O3B C8B 1_555 1_555
O3A Mn2 1_555 1_555
O3C Mn2 1_555 1_555
O4B C3B 1_555 1_555
O4B_2 Mn1 1_555 1_555
C1B C6B 1_555 1_555
O5B Mn2 1_555 1_555
O5B_2 Mn1 1_555 1_555
C2B C4B 1_555 1_555
C3B O1B 1_555 1_555
C4B C3B 1_555 1_555
C5B C4B 1_555 1_555
C6B C2B 1_555 1_555
C7B C1B 1_555 1_555
C8B C1B 1_555 1_555
C9B C2B 1_555 1_555
C10B C6B 1_555 1_555
C11B C9B 1_555 1_555
H1B C11B 1_555 1_555
C12B O5B 1_555 1_555
C13B C10B 1_555 1_555
N1B C12B 1_555 1_555
H2B N1B 1_555 1_555
N2B C12B 1_555 1_555
H3B N2B 1_555 1_555
C14B N2B 1_555 1_555
H4B C14B 1_555 1_555
H5B C14B 1_555 1_555
C15B N1B 1_555 1_555
H6B C15B 1_555 1_555
H7B C15B 1_555 1_555
H8B C10B 1_555 1_555
H9B C5B 1_555 1_555
H10B C7B 1_555 1_555
H11B C9B 1_555 1_555
H12B C13B 1_555 1_555
Mn2 O5 1_555 1_555
C11 C13 1_555 1_555
C14 C15 1_555 1_555
Mn1_2 O5B 1_555 1_555
C5B C7B 1_555 1_555
C11B C13B 1_555 1_555
C14B C15B 1_555 1_555

#END
