
#######################################################################
#
#                 Cambridge Crystallographic Data Centre
#                                CCDC 
#
#######################################################################
#
# If this CIF has been generated from an entry in the Cambridge 
# Structural Database, then it will include bibliographic, chemical, 
# crystal, experimental, refinement or atomic coordinate data resulting 
# from the CCDC's data processing and validation procedures.
#
#######################################################################

data_HEBTAL
_chemical_formula_moiety         '(C30 H24 Co2 N4 O10)n'
_chemical_name_systematic        
catena-(bis((\m~4~-Naphthalene-1,4-dicarboxylato)-(\m~2~-imidazolidin-2-one-O))-di-cobalt)
_symmetry_cell_setting           monoclinic
_symmetry_space_group_name_H-M   'P 21/c'
_symmetry_Int_Tables_number      14
_space_group_name_Hall           '-P 2ybc'
loop_
_symmetry_equiv_pos_site_id
_symmetry_equiv_pos_as_xyz
1 x,y,z
2 -x,1/2+y,1/2-z
3 -x,-y,-z
4 x,1/2-y,1/2+z
_cell_length_a                   7.3352(18)
_cell_length_b                   11.320(3)
_cell_length_c                   17.676(4)
_cell_angle_alpha                90
_cell_angle_beta                 90.120(5)
_cell_angle_gamma                90
_cell_volume                     1467.71
_exptl_crystal_colour            pink
_exptl_crystal_description       prism
_cell_formula_units_Z            2
loop_
_atom_site_label
_atom_site_type_symbol
_atom_site_fract_x
_atom_site_fract_y
_atom_site_fract_z
Co1 Co 0.0000 0.5000 0.0000
Co2 Co 0.5000 0.5000 0.0000
O1 O -0.13034(13) 0.41945(9) 0.09197(5)
O2 O -0.37780(13) 0.15250(9) 0.45252(5)
O3 O -0.08230(13) 0.12399(9) 0.42710(6)
O4 O -0.42577(14) 0.46136(10) 0.10824(5)
O5 O 0.25228(12) 0.39600(8) 0.02107(6)
C1 C -0.26333(19) 0.37803(12) 0.21087(7)
C2 C -0.40060(19) 0.25415(14) 0.30673(8)
C3 C -0.09259(18) 0.32661(12) 0.32654(7)
C4 C -0.24434(18) 0.25523(12) 0.34928(7)
C5 C -0.10196(18) 0.38969(12) 0.25645(7)
C6 C -0.27349(18) 0.42543(12) 0.13077(7)
C7 C -0.23394(18) 0.17147(11) 0.41586(7)
C8 C -0.4093(2) 0.31583(15) 0.23746(8)
C9 C 0.1951(2) 0.47568(16) 0.28158(10)
H1 H 0.2906 0.5247 0.2671
C10 C 0.0664(2) 0.34096(14) 0.37204(8)
H2 H 0.0752 0.3005 0.4177
C11 C 0.0451(2) 0.46500(15) 0.23635(8)
H3 H 0.0390 0.5078 0.1915
C12 C 0.2057(2) 0.41264(16) 0.35015(10)
C13 C 0.25880(19) 0.29429(13) 0.05021(8)
N1 N 0.3904(2) 0.21561(14) 0.04024(12)
H4 H 0.4831 0.2273 0.0115
N2 N 0.1341(3) 0.24758(15) 0.09419(12)
C14 C 0.3619(3) 0.10904(17) 0.08241(15)
H5 H 0.4606 0.0953 0.1179
H6 H 0.3507 0.0413 0.0491
C15 C 0.1848(4) 0.1335(2) 0.1232(2)
H7 H 0.308(3) 0.4168(17) 0.3823(12)
H8 H 0.048(3) 0.284(2) 0.1060(14)
H9 H -0.506(2) 0.2049(17) 0.3229(10)
H10 H -0.521(3) 0.3099(17) 0.2080(11)
H11 H 0.097(4) 0.082(3) 0.1019(17)
H12 H 0.182(5) 0.124(3) 0.178(2)
Co1A Co 0.0000 0.0000 0.5000
Co1A_2 Co 0.0000 1.0000 -0.5000
Co2_2 Co -0.5000 0.5000 0.0000
Co2A Co -0.5000 0.0000 0.5000
Co2A_2 Co 0.5000 1.0000 -0.5000
O1B O 0.13034(13) 0.58055(9) -0.09197(5)
O2B O 0.37780(13) 0.84750(9) -0.45252(5)
O2A O 0.37780(13) 0.65250(9) 0.04748(5)
O2C O 0.62220(13) 0.34750(9) -0.04748(5)
O3B O 0.08230(13) 0.87601(9) -0.42710(6)
O3A O 0.08230(13) 0.62399(9) 0.07290(6)
O3C O -0.08230(13) 0.37601(9) -0.07290(6)
O4B O 0.42577(14) 0.53864(10) -0.10824(5)
O4_2 O 0.57423(14) 0.46136(10) 0.10824(5)
O5B O -0.25228(12) 0.60400(8) -0.02107(6)
O5B_2 O 0.74772(12) 0.60400(8) -0.02107(6)
C1B C 0.26333(19) 0.62197(12) -0.21087(7)
C2B C 0.40060(19) 0.74585(14) -0.30673(8)
C3B C 0.09259(18) 0.67339(12) -0.32654(7)
C4B C 0.24434(18) 0.74477(12) -0.34928(7)
C5B C 0.10196(18) 0.61031(12) -0.25645(7)
C6B C 0.27349(18) 0.57457(12) -0.13077(7)
C7B C 0.23394(18) 0.82853(11) -0.41586(7)
C8B C 0.4093(2) 0.68417(15) -0.23746(8)
C9B C -0.1951(2) 0.52432(16) -0.28158(10)
H1B H -0.2906 0.4753 -0.2671
C10B C -0.0664(2) 0.65904(14) -0.37204(8)
H2B H -0.0752 0.6995 -0.4177
C11B C -0.0451(2) 0.53500(15) -0.23635(8)
H3B H -0.0390 0.4922 -0.1915
C12B C -0.2057(2) 0.58736(16) -0.35015(10)
C13B C -0.25880(19) 0.70571(13) -0.05021(8)
N1B N -0.3904(2) 0.78439(14) -0.04024(12)
H4B H -0.4831 0.7727 -0.0115
N2B N -0.1341(3) 0.75242(15) -0.09419(12)
C14B C -0.3619(3) 0.89096(17) -0.08241(15)
H5B H -0.4606 0.9047 -0.1179
H6B H -0.3507 0.9587 -0.0491
C15B C -0.1848(4) 0.8665(2) -0.1232(2)
H7B H -0.308(3) 0.5832(17) -0.3823(12)
H8B H -0.048(3) 0.716(2) -0.1060(14)
H9B H 0.506(2) 0.7951(17) -0.3229(10)
H10B H 0.521(3) 0.6901(17) -0.2080(11)
H11B H -0.097(4) 0.918(3) -0.1019(17)
H12B H -0.182(5) 0.876(3) -0.178(2)
loop_
_geom_bond_atom_site_label_1
_geom_bond_atom_site_label_2
_geom_bond_site_symmetry_1
_geom_bond_site_symmetry_2
Co1 O1 1_555 1_555
Co2 O5 1_555 1_555
O1 C6 1_555 1_555
O2 C7 1_555 1_555
O3 C7 1_555 1_555
O4 C6 1_555 1_555
O5 Co1 1_555 1_555
C1 C5 1_555 1_555
C2 C4 1_555 1_555
C3 C4 1_555 1_555
C4 C7 1_555 1_555
C5 C3 1_555 1_555
C6 C1 1_555 1_555
C8 C1 1_555 1_555
C9 H1 1_555 1_555
C10 C3 1_555 1_555
H2 C10 1_555 1_555
C11 C5 1_555 1_555
H3 C11 1_555 1_555
C12 C9 1_555 1_555
C13 O5 1_555 1_555
N1 C13 1_555 1_555
H4 N1 1_555 1_555
N2 C13 1_555 1_555
C14 N1 1_555 1_555
H5 C14 1_555 1_555
H6 C14 1_555 1_555
C15 N2 1_555 1_555
H7 C12 1_555 1_555
H8 N2 1_555 1_555
H9 C2 1_555 1_555
H10 C8 1_555 1_555
H11 C15 1_555 1_555
H12 C15 1_555 1_555
Co1A O3 1_555 1_555
Co1A_2 O3B 1_555 1_555
Co2_2 O4 1_555 1_555
Co2A O2 1_555 1_555
Co2A_2 O2B 1_555 1_555
O1B Co1 1_555 1_555
O2B C7B 1_555 1_555
O2A Co2 1_555 1_555
O2C Co2 1_555 1_555
O3B C7B 1_555 1_555
O3A Co1 1_555 1_555
O3C Co1 1_555 1_555
O4B Co2 1_555 1_555
O4_2 Co2 1_555 1_555
O5B Co1 1_555 1_555
O5B_2 Co2 1_555 1_555
C1B C5B 1_555 1_555
C2B C4B 1_555 1_555
C3B C4B 1_555 1_555
C4B C7B 1_555 1_555
C5B C3B 1_555 1_555
C6B O1B 1_555 1_555
C8B C1B 1_555 1_555
C9B H1B 1_555 1_555
C10B C3B 1_555 1_555
H2B C10B 1_555 1_555
C11B C5B 1_555 1_555
H3B C11B 1_555 1_555
C12B C9B 1_555 1_555
C13B O5B 1_555 1_555
N1B C13B 1_555 1_555
H4B N1B 1_555 1_555
N2B C13B 1_555 1_555
C14B N1B 1_555 1_555
H5B C14B 1_555 1_555
H6B C14B 1_555 1_555
C15B N2B 1_555 1_555
H7B C12B 1_555 1_555
H8B N2B 1_555 1_555
H9B C2B 1_555 1_555
H10B C8B 1_555 1_555
H11B C15B 1_555 1_555
H12B C15B 1_555 1_555
C2 C8 1_555 1_555
C9 C11 1_555 1_555
C10 C12 1_555 1_555
C14 C15 1_555 1_555
Co2_2 O5B 1_555 1_555
O4B C6B 1_555 1_555
C1B C6B 1_555 1_555
C2B C8B 1_555 1_555
C9B C11B 1_555 1_555
C10B C12B 1_555 1_555
C14B C15B 1_555 1_555

#END
