
#######################################################################
#
#                 Cambridge Crystallographic Data Centre
#                                CCDC 
#
#######################################################################
#
# If this CIF has been generated from an entry in the Cambridge 
# Structural Database, then it will include bibliographic, chemical, 
# crystal, experimental, refinement or atomic coordinate data resulting 
# from the CCDC's data processing and validation procedures.
#
#######################################################################

data_CEKNIQ
_chemical_formula_moiety         '(C60 H44 O24 Zn7)n'
_chemical_name_systematic        
catena-(tetrakis(\m~5~-p-phenylenediacrylato)-(\m~4~-p-phenylenediacrylato)-bis(\m~4~-oxo)-diaqua-hepta-zinc)
_symmetry_cell_setting           tetragonal
_symmetry_space_group_name_H-M   'I 4 c m'
_symmetry_Int_Tables_number      108
_space_group_name_Hall           'I 4 -2c'
loop_
_symmetry_equiv_pos_site_id
_symmetry_equiv_pos_as_xyz
1 x,y,z
2 -x,-y,z
3 -y,x,z
4 y,-x,z
5 x,-y,1/2+z
6 -x,y,1/2+z
7 -y,-x,1/2+z
8 y,x,1/2+z
9 1/2+x,1/2+y,1/2+z
10 1/2-x,1/2-y,1/2+z
11 1/2-y,1/2+x,1/2+z
12 1/2+y,1/2-x,1/2+z
13 1/2+x,1/2-y,z
14 1/2-x,1/2+y,z
15 1/2-y,1/2-x,z
16 1/2+y,1/2+x,z
_cell_length_a                   34.6957(5)
_cell_length_b                   34.6957(5)
_cell_length_c                   41.0328(12)
_cell_angle_alpha                90
_cell_angle_beta                 90
_cell_angle_gamma                90
_cell_volume                     49394.9
_exptl_crystal_colour            buff
_exptl_crystal_description       block
_cell_formula_units_Z            8
loop_
_atom_site_label
_atom_site_type_symbol
_atom_site_fract_x
_atom_site_fract_y
_atom_site_fract_z
Zn1 Zn 0.30236(2) 0.26245(2) 0.747168(15)
Zn2 Zn -0.23746(2) 0.19783(2) 0.619230(14)
Zn3 Zn 0.19134(2) 0.30866(2) 0.66985(3)
Zn4 Zn 0.25001(5) 0.24999(5) 0.68293(6)
Zn5 Zn 0.19146(3) 0.69146(3) 0.69705(3)
O1 O 0.29064(14) 0.31706(11) 0.74227(11)
O2 O 0.25057(13) 0.30903(11) 0.70085(10)
O3 O 0.20215(13) 0.63874(13) 0.71755(13)
O4 O 0.25786(14) 0.64146(12) 0.74277(11)
O5 O -0.19275(15) 0.25384(14) 0.66550(12)
O6 O -0.18372(18) 0.20916(14) 0.62507(13)
O7 O 0.14127(15) 0.24043(14) 0.62312(14)
O8 O 0.14013(15) 0.29732(14) 0.64694(16)
O9 O 0.29209(14) 0.25448(15) 0.79443(11)
O10 O 0.29210(17) 0.25169(14) 1.07312(12)
O11 O 0.27328(11) 0.22672(11) 0.72100(13)
O12 O 0.22614(10) 0.27386(10) 0.64516(12)
O13 O 0.16340(17) 0.33660(17) 0.70670(17)
O14 O 0.16674(13) 0.66674(13) 0.6564(2)
C1 C 0.2690(2) 0.32983(15) 0.72114(18)
C2 C 0.2589(2) 0.37170(17) 0.72218(17)
H1 H 0.2405 0.3804 0.7075
C3 C 0.2736(3) 0.39665(17) 0.74173(19)
H2 H 0.2910 0.3870 0.7570
C4 C 0.26682(12) 0.43786(10) 0.74317(10)
C5 C 0.29182(13) 0.46045(13) 0.76150(12)
H3 H 0.3114 0.4489 0.7735
C6 C 0.28755(17) 0.50028(12) 0.76187(14)
H4 H 0.3043 0.5154 0.7741
C7 C 0.25827(19) 0.51752(10) 0.74392(15)
C8 C 0.23326(17) 0.49493(13) 0.72560(15)
H5 H 0.2137 0.5065 0.7136
C9 C 0.23754(14) 0.45510(13) 0.72523(12)
H6 H 0.2208 0.4400 0.7130
C10 C 0.2569(3) 0.55995(18) 0.7410(2)
H7 H 0.2790 0.5723 0.7484
C11 C 0.2317(2) 0.58238(18) 0.7305(3)
H8 H 0.2104 0.5708 0.7209
C12 C 0.2313(2) 0.62381(18) 0.7314(2)
C13 C -0.1717(2) 0.2378(2) 0.64587(19)
C14 C -0.1292(3) 0.24620(17) 0.64600(19)
H9 H -0.1199 0.2678 0.6569
C15 C -0.1046(2) 0.22250(18) 0.6304(2)
H10 H -0.1150 0.2021 0.6186
C16 C -0.06019(17) 0.22672(12) 0.63086(12)
C17 C -0.04374(16) 0.26237(15) 0.63762(16)
H11 H -0.0593 0.2831 0.6433
C18 C -0.0040(2) 0.26700(16) 0.63585(19)
H12 H 0.0070 0.2909 0.6404
C19 C 0.0193(2) 0.23600(12) 0.62731(18)
C20 C 0.0028(2) 0.20040(15) 0.62056(18)
H13 H 0.0184 0.1796 0.6148
C21 C -0.03691(16) 0.19572(16) 0.62233(16)
H14 H -0.0479 0.1719 0.6178
C22 C 0.0605(3) 0.2420(2) 0.6241(2)
H15 H 0.0736 0.2236 0.6119
C23 C 0.0813(2) 0.2694(2) 0.63589(19)
H16 H 0.0686 0.2903 0.6452
C24 C 0.1249(2) 0.27000(19) 0.63556(18)
C25 C 0.2684(2) 0.2316(2) 0.80783(19)
C26 C 0.2674(2) 0.2326(2) 0.84348(18)
H17 H 0.2570 0.2094 0.8508
C27 C 0.2754(7) 0.2531(5) 0.8681(2)
H18 H 0.2875 0.2756 0.8612
C28 C 0.2722(2) 0.2537(2) 0.90322(16)
C29 C 0.3006(3) 0.2754(3) 0.91847(19)
H19 H 0.3144 0.2937 0.9067
C30 C 0.3083(3) 0.2699(4) 0.9514(2)
H20 H 0.3273 0.2845 0.9616
C31 C 0.2877(3) 0.2426(3) 0.96903(16)
C32 C 0.2791(3) 0.2407(3) 0.95378(19)
H21 H 0.2974 0.2545 0.9656
C33 C 0.2516(3) 0.2264(3) 0.92088(19)
H22 H 0.2882 0.2674 0.9107
C34 C 0.2895(3) 0.2456(3) 1.00260(18)
H23 H 0.3040 0.2661 1.0106
C35 C 0.2748(3) 0.2252(3) 1.0231(2)
H24 H 0.2973 0.2360 1.0148
C36 C 0.2709(2) 0.2291(2) 1.05862(19)
Zn1N Zn 0.23755(2) 0.19764(2) 0.747168(15)
Zn1C Zn 0.26245(2) 0.69764(2) 0.747168(15)
Zn1L Zn -0.19764(2) 0.23755(2) 0.747168(15)
Zn2N Zn 0.30217(2) 0.73746(2) 0.619230(14)
Zn2C Zn 0.19783(2) 0.23746(2) 0.619230(14)
Zn2J Zn 0.30217(2) 0.26254(2) 1.119230(14)
Zn2L Zn 0.26254(2) 0.30217(2) 0.619230(14)
Zn2E Zn 0.23746(2) 0.19783(2) 1.119230(14)
Zn4C Zn 0.24999(5) 0.74999(5) 0.68293(6)
Zn4B Zn -0.24999(5) 0.25001(5) 0.68293(6)
Zn5B Zn 0.30854(3) 0.19146(3) 0.69705(3)
Zn5A Zn -0.19146(3) 0.30854(3) 0.69705(3)
O1N O 0.18294(11) 0.20936(14) 0.74227(11)
O2N O 0.19097(11) 0.24943(13) 0.70085(10)
O3N O -0.13874(13) 0.29785(13) 0.71755(13)
O3O O 0.13874(13) 0.70215(13) 0.71755(13)
O4N O -0.14146(12) 0.24214(14) 0.74277(11)
O4B O 0.35854(12) 0.25786(14) 0.74277(11)
O4M O 0.24214(14) 0.14146(12) 0.74277(11)
O5N O 0.24616(14) 0.69275(15) 0.66550(12)
O5C O 0.25384(14) 0.19275(15) 0.66550(12)
O5L O 0.30725(15) 0.24616(14) 0.66550(12)
O5A O 0.19275(15) 0.74616(14) 0.66550(12)
O6N O 0.29084(14) 0.68372(18) 0.62507(13)
O7N O 0.25957(14) 0.35873(15) 0.62312(14)
O7B O -0.24043(14) 0.14127(15) 0.62312(14)
O7M O 0.35873(15) 0.74043(14) 0.62312(14)
O8N O 0.20268(14) 0.35987(15) 0.64694(16)
O9N O 0.24552(15) 0.20791(14) 0.79443(11)
O10N O 0.24831(14) 0.20790(17) 1.07312(12)
O10K O -0.24831(14) 0.20790(17) 0.57312(12)
O10D O 0.29210(17) 0.74831(14) 0.57312(12)
O11C O 0.22672(11) 0.72672(11) 0.72100(13)
O12B O -0.27386(10) 0.22614(10) 0.64516(12)
O12C O 0.27386(10) 0.77386(10) 0.64516(12)
C1N C 0.17017(15) 0.2310(2) 0.72114(18)
C2N C 0.12830(17) 0.2411(2) 0.72218(17)
H1N H 0.1196 0.2595 0.7075
C3N C 0.10335(17) 0.2264(3) 0.74173(19)
H2N H 0.1130 0.2090 0.7570
C4N C 0.06214(10) 0.23318(12) 0.74317(10)
C5N C 0.03955(13) 0.20818(13) 0.76150(12)
H3N H 0.0511 0.1886 0.7735
C6N C -0.00028(12) 0.21245(17) 0.76187(14)
H4N H -0.0154 0.1957 0.7741
C7N C -0.01752(10) 0.24173(19) 0.74392(15)
C8N C 0.00507(13) 0.26674(17) 0.72560(15)
H5N H -0.0065 0.2863 0.7136
C9N C 0.04490(13) 0.26246(14) 0.72523(12)
H6N H 0.0600 0.2792 0.7130
C10N C -0.05995(18) 0.2431(3) 0.7410(2)
H7N H -0.0723 0.2210 0.7484
C11N C -0.08238(18) 0.2683(2) 0.7305(3)
H8N H -0.0708 0.2896 0.7209
C12N C -0.12381(18) 0.2687(2) 0.7314(2)
C13N C 0.2622(2) 0.6717(2) 0.64587(19)
C14N C 0.25380(17) 0.6292(3) 0.64600(19)
H9N H 0.2322 0.6199 0.6569
C15N C 0.27750(18) 0.6046(2) 0.6304(2)
H10N H 0.2979 0.6150 0.6186
C16N C 0.27328(12) 0.56019(17) 0.63086(12)
C17N C 0.23763(15) 0.54374(16) 0.63762(16)
H11N H 0.2169 0.5593 0.6433
C18N C 0.23300(16) 0.5040(2) 0.63585(19)
H12N H 0.2091 0.4930 0.6404
C19N C 0.26400(12) 0.4807(2) 0.62731(18)
C20N C 0.29960(15) 0.4972(2) 0.62056(18)
H13N H 0.3204 0.4816 0.6148
C21N C 0.30428(16) 0.53691(16) 0.62233(16)
H14N H 0.3281 0.5479 0.6178
C22N C 0.2580(2) 0.4395(3) 0.6241(2)
H15N H 0.2764 0.4264 0.6119
C23N C 0.2306(2) 0.4187(2) 0.63589(19)
H16N H 0.2097 0.4314 0.6452
C24N C 0.23000(19) 0.3751(2) 0.63556(18)
H17N H 0.2906 0.2430 0.8508
C27N C 0.2469(5) 0.2246(7) 0.8681(2)
H18N H 0.2244 0.2125 0.8612
C28N C 0.2463(2) 0.2278(2) 0.90322(16)
C29N C 0.2246(3) 0.1994(3) 0.91847(19)
H19N H 0.2063 0.1856 0.9067
C30N C 0.2301(4) 0.1917(3) 0.9514(2)
H20N H 0.2155 0.1727 0.9616
C31N C 0.2574(3) 0.2123(3) 0.96903(16)
C32N C 0.2593(3) 0.2209(3) 0.95378(19)
H21N H 0.2455 0.2026 0.9656
C33N C 0.2736(3) 0.2484(3) 0.92088(19)
H22N H 0.2326 0.2118 0.9107
C34N C 0.2544(3) 0.2105(3) 1.00260(18)
H23N H 0.2339 0.1960 1.0106
H24N H 0.2640 0.2027 1.0148
loop_
_geom_bond_atom_site_label_1
_geom_bond_atom_site_label_2
_geom_bond_site_symmetry_1
_geom_bond_site_symmetry_2
Zn1 O1 1_555 1_555
Zn2 O6 1_555 1_555
Zn3 O2 1_555 1_555
Zn4 O2 1_555 1_555
Zn5 O3 1_555 1_555
O1 C1 1_555 1_555
O2 C1 1_555 1_555
O3 C12 1_555 1_555
O4 C12 1_555 1_555
O5 C13 1_555 1_555
O6 C13 1_555 1_555
O7 C24 1_555 1_555
O8 Zn3 1_555 1_555
O9 Zn1 1_555 1_555
O10 C36 1_555 1_555
O11 Zn1 1_555 1_555
O12 Zn3 1_555 1_555
O13 Zn3 1_555 1_555
O14 Zn5 1_555 1_555
C1 C2 1_555 1_555
C2 H1 1_555 1_555
C3 C2 1_555 1_555
H2 C3 1_555 1_555
C4 C3 1_555 1_555
C5 C4 1_555 1_555
H3 C5 1_555 1_555
C6 C5 1_555 1_555
H4 C6 1_555 1_555
C7 C6 1_555 1_555
C8 C7 1_555 1_555
H5 C8 1_555 1_555
C9 C4 1_555 1_555
H6 C9 1_555 1_555
C10 C7 1_555 1_555
H7 C10 1_555 1_555
C11 C10 1_555 1_555
H8 C11 1_555 1_555
C12 C11 1_555 1_555
C13 C14 1_555 1_555
C14 H9 1_555 1_555
C15 C14 1_555 1_555
H10 C15 1_555 1_555
C16 C15 1_555 1_555
C17 C16 1_555 1_555
H11 C17 1_555 1_555
C18 C17 1_555 1_555
H12 C18 1_555 1_555
C19 C18 1_555 1_555
C20 C19 1_555 1_555
H13 C20 1_555 1_555
C21 C16 1_555 1_555
H14 C21 1_555 1_555
C22 C19 1_555 1_555
H15 C22 1_555 1_555
C23 C22 1_555 1_555
H16 C23 1_555 1_555
C24 O8 1_555 1_555
C25 O9 1_555 1_555
C26 C25 1_555 1_555
H17 C26 1_555 1_555
C27 C26 1_555 1_555
H18 C27 1_555 1_555
C28 C27 1_555 1_555
C29 C28 1_555 1_555
H19 C29 1_555 1_555
C30 C29 1_555 1_555
H20 C30 1_555 1_555
C31 C30 1_555 1_555
C32 C30 1_555 1_555
H21 C30 1_555 1_555
C33 C28 1_555 1_555
H22 C28 1_555 1_555
C34 C31 1_555 1_555
H23 C34 1_555 1_555
C35 C34 1_555 1_555
H24 C34 1_555 1_555
C36 C35 1_555 1_555
Zn1N O11 1_555 1_555
Zn1C O4 1_555 1_555
Zn1L O4N 1_555 1_555
Zn2N O6N 1_555 1_555
Zn2C O7 1_555 1_555
Zn2J O10 1_555 1_555
Zn2L O12 1_555 1_555
Zn2E O10N 1_555 1_555
Zn4C O5N 1_555 1_555
Zn4B O5 1_555 1_555
Zn5B O11 1_555 1_555
Zn5A O5 1_555 1_555
O1N Zn1N 1_555 1_555
O2N Zn3 1_555 1_555
O3N Zn5A 1_555 1_555
O3O Zn5 1_555 1_555
O4N C12N 1_555 1_555
O4B Zn1 1_555 1_555
O4M Zn1N 1_555 1_555
O5N Zn5 1_555 1_555
O5C Zn4 1_555 1_555
O5L Zn4 1_555 1_555
O5A Zn5 1_555 1_555
O6N C13N 1_555 1_555
O7N Zn2L 1_555 1_555
O7B Zn2 1_555 1_555
O7M Zn2N 1_555 1_555
O8N Zn3 1_555 1_555
O9N C25 1_555 1_555
O10N C36 1_555 1_555
O10K Zn2 1_555 1_555
O10D Zn2N 1_555 1_555
O11C Zn5 1_555 1_555
O12B Zn2 1_555 1_555
O12C Zn2N 1_555 1_555
C1N O1N 1_555 1_555
C2N C1N 1_555 1_555
H1N C2N 1_555 1_555
C3N C2N 1_555 1_555
H2N C3N 1_555 1_555
C4N C3N 1_555 1_555
C5N C4N 1_555 1_555
H3N C5N 1_555 1_555
C6N C5N 1_555 1_555
H4N C6N 1_555 1_555
C7N C6N 1_555 1_555
C8N C7N 1_555 1_555
H5N C8N 1_555 1_555
C9N C4N 1_555 1_555
H6N C9N 1_555 1_555
C10N C7N 1_555 1_555
H7N C10N 1_555 1_555
C11N C10N 1_555 1_555
H8N C11N 1_555 1_555
C12N O3N 1_555 1_555
C13N O5N 1_555 1_555
C14N C13N 1_555 1_555
H9N C14N 1_555 1_555
C15N C14N 1_555 1_555
H10N C15N 1_555 1_555
C16N C15N 1_555 1_555
C17N C16N 1_555 1_555
H11N C17N 1_555 1_555
C18N C17N 1_555 1_555
H12N C18N 1_555 1_555
C19N C18N 1_555 1_555
C20N C19N 1_555 1_555
H13N C20N 1_555 1_555
C21N C16N 1_555 1_555
H14N C21N 1_555 1_555
C22N C19N 1_555 1_555
H15N C22N 1_555 1_555
C23N C22N 1_555 1_555
H16N C23N 1_555 1_555
C24N O7N 1_555 1_555
H17N C26 1_555 1_555
C27N C26 1_555 1_555
H18N C27N 1_555 1_555
C28N C28 1_555 1_555
C29N C33 1_555 1_555
H19N C29N 1_555 1_555
C30N C29N 1_555 1_555
H20N C30N 1_555 1_555
C31N C31 1_555 1_555
C32N C31 1_555 1_555
H21N C30N 1_555 1_555
C33N C28 1_555 1_555
H22N C33 1_555 1_555
C34N C34 1_555 1_555
H23N C34N 1_555 1_555
H24N C35 1_555 1_555
Zn4 O11 1_555 1_555
Zn4 O12 1_555 1_555
Zn4 O2N 1_555 1_555
O12 Zn2C 1_555 1_555
C8 C9 1_555 1_555
C20 C21 1_555 1_555
C23 C24 1_555 1_555
H17 C27N 1_555 1_555
C27 H17N 1_555 1_555
C27 C27N 1_555 1_555
C29 H22 1_555 1_555
C29 C33N 1_555 1_555
C31 C32 1_555 1_555
C31 H21 1_555 1_555
C32 H21 1_555 1_555
C32 C33 1_555 1_555
C32 C31N 1_555 1_555
C32 C32N 1_555 1_555
C32 C33N 1_555 1_555
C33 C28N 1_555 1_555
C33 C32N 1_555 1_555
C33 C33N 1_555 1_555
H22 C33N 1_555 1_555
C35 H24 1_555 1_555
C35 C34N 1_555 1_555
Zn1N O9N 1_555 1_555
Zn1C O11C 1_555 1_555
Zn4C O5A 1_555 1_555
Zn4C O11C 1_555 1_555
Zn4C O12C 1_555 1_555
Zn4B O12B 1_555 1_555
Zn5B O5C 1_555 1_555
Zn5B O5L 1_555 1_555
O2N C1N 1_555 1_555
O8N C24N 1_555 1_555
C8N C9N 1_555 1_555
C11N C12N 1_555 1_555
C20N C21N 1_555 1_555
C23N C24N 1_555 1_555
C27N C28N 1_555 1_555
C28N C29N 1_555 1_555
C28N C33N 1_555 1_555
C28N H22N 1_555 1_555
C29N H22N 1_555 1_555
C30N C31N 1_555 1_555
C30N C32N 1_555 1_555
C31N C32N 1_555 1_555
C31N H21N 1_555 1_555
C31N C34N 1_555 1_555
C32N H21N 1_555 1_555
C32N C33N 1_555 1_555
C34N H24N 1_555 1_555

#END
