
#######################################################################
#
#                 Cambridge Crystallographic Data Centre
#                                CCDC 
#
#######################################################################
#
# If this CIF has been generated from an entry in the Cambridge 
# Structural Database, then it will include bibliographic, chemical, 
# crystal, experimental, refinement or atomic coordinate data resulting 
# from the CCDC's data processing and validation procedures.
#
#######################################################################

data_WUXCAU
_chemical_formula_moiety         '(C9 H12 N12 O9 Zn3)n,n(C4 H8 O2)'
_chemical_name_systematic        
'catena-[bis(\m~4~-Tetrazol-5-ylacetato)-(\m~3~-tetrazol-5-ylacetato)-triaqua-tri-zinc(ii) 1,4-dioxane solvate]'
_symmetry_cell_setting           monoclinic
_symmetry_space_group_name_H-M   'P 21/n'
_symmetry_Int_Tables_number      14
_space_group_name_Hall           '-P 2yn'
loop_
_symmetry_equiv_pos_site_id
_symmetry_equiv_pos_as_xyz
1 x,y,z
2 1/2-x,1/2+y,1/2-z
3 -x,-y,-z
4 1/2+x,1/2-y,1/2+z
_cell_length_a                   16.284(3)
_cell_length_b                   8.8620(18)
_cell_length_c                   16.829(3)
_cell_angle_alpha                90
_cell_angle_beta                 107.69(3)
_cell_angle_gamma                90
_cell_volume                     2313.74
_exptl_crystal_colour            colorless
_exptl_crystal_description       platelet
_cell_formula_units_Z            4
loop_
_atom_site_label
_atom_site_type_symbol
_atom_site_fract_x
_atom_site_fract_y
_atom_site_fract_z
Zn1 Zn 0.98122(2) 0.12439(4) 0.200368(19)
Zn2 Zn 0.81987(2) 0.62310(4) -0.048409(19)
Zn3 Zn 0.66811(2) 0.55264(4) 0.059957(19)
N1 N 0.78184(17) 0.4173(3) 0.08391(15)
N2 N 0.84371(17) 0.4575(3) 0.04978(14)
N3 N 0.91354(18) 0.3807(3) 0.08220(15)
N4 N 0.89862(16) 0.2862(3) 0.13955(14)
N5 N 0.96243(17) -0.0495(3) 0.11707(15)
N6 N 1.02753(18) -0.1477(3) 0.12262(16)
N7 N 0.99865(17) -0.2564(3) 0.06882(15)
N8 N 0.91482(17) -0.2308(3) 0.02637(15)
N9 N 1.19708(17) -0.0081(3) 0.39098(14)
N10 N 1.13781(17) 0.0039(3) 0.43222(14)
N11 N 1.07397(17) 0.0690(3) 0.30663(15)
N12 N 1.06442(17) 0.0503(3) 0.38233(15)
C1 C 0.8179(2) 0.3103(3) 0.13943(17)
C2 C 0.7690(2) 0.2310(4) 0.18849(18)
H1 H 0.7271 0.1657 0.1507
H2 H 0.7371 0.3061 0.2089
C3 C 0.8203(2) 0.1358(3) 0.26276(18)
C4 C 0.8946(2) -0.1026(3) 0.05718(18)
C5 C 0.8077(2) -0.0326(3) 0.02710(19)
H3 H 0.7953 -0.0083 -0.0316
H4 H 0.8084 0.0613 0.0570
C6 C 0.7352(2) -0.1320(3) 0.03797(18)
C7 C 1.15582(19) 0.0339(3) 0.31285(17)
C8 C 1.1941(2) 0.0413(3) 0.24335(18)
H5 H 1.2562 0.0506 0.2668
H6 H 1.1824 -0.0530 0.2127
C9 C 1.1609(2) 0.1722(3) 0.18177(17)
O1 O 0.88939(14) 0.0718(2) 0.26254(13)
O2 O 0.78510(14) 0.1226(2) 0.31883(13)
O3 O 0.73930(14) -0.2728(2) 0.02154(12)
O4 O 0.67660(15) -0.0725(3) 0.05856(15)
O5 O 1.21273(14) 0.2202(2) 0.14546(12)
O6 O 1.08593(14) 0.2213(2) 0.16932(13)
O7 O 0.58850(15) 0.3879(2) 0.08789(13)
H15 H 0.5374 0.4103 0.0868
H16 H 0.6073 0.2988 0.1003
O8 O 0.89508(14) 0.5060(2) -0.10470(12)
H17 H 0.9117 0.4171 -0.0886
H18 H 0.9098 0.5462 -0.1442
O9 O 0.56077(14) 0.7099(3) 0.04133(13)
H19 H 0.5650 0.7993 0.0247
H20 H 0.5147 0.6818 0.0508
Zn2_2 Zn 0.81987(2) -0.37690(4) -0.048409(19)
Zn2C Zn 1.31987(2) -0.12310(4) 0.451591(19)
Zn2B Zn 1.18013(2) 0.37690(4) 0.048409(19)
Zn3C Zn 1.16811(2) -0.05264(4) 0.559957(19)
Zn3A Zn 0.83189(2) 0.05264(4) 0.440043(19)
Zn3_2 Zn 0.66811(2) -0.44736(4) 0.059957(19)
N8_2 N 0.91482(17) 0.7692(3) 0.02637(15)
N9C N 0.69708(17) 0.5081(3) -0.10902(14)
N10C N 0.63781(17) 0.4961(3) -0.06778(14)
O2A O 0.71490(14) 0.6226(2) 0.18117(13)
O3_2 O 0.73930(14) 0.7272(2) 0.02154(12)
O5B O 0.78727(14) 0.7798(2) -0.14546(12)
C10 C 0.9214(2) -0.4805(4) 0.3113(2)
H7 H 0.9201 -0.4447 0.3654
H8 H 0.8646 -0.5193 0.2817
C11 C 0.9427(3) -0.3507(4) 0.2628(2)
H9 H 0.9433 -0.3854 0.2083
H10 H 0.8992 -0.2727 0.2549
C12 C 1.0878(3) -0.4076(5) 0.3185(3)
H11 H 1.1439 -0.3679 0.3495
H12 H 1.0906 -0.4407 0.2645
C13 C 1.0665(3) -0.5408(5) 0.3649(3)
H13 H 1.1093 -0.6192 0.3700
H14 H 1.0682 -0.5096 0.4207
O10 O 0.98344(18) -0.5991(3) 0.32251(16)
O11 O 1.02470(19) -0.2913(3) 0.30735(17)
loop_
_geom_bond_atom_site_label_1
_geom_bond_atom_site_label_2
_geom_bond_site_symmetry_1
_geom_bond_site_symmetry_2
Zn1 N4 1_555 1_555
Zn2 N2 1_555 1_555
Zn3 N1 1_555 1_555
N1 N2 1_555 1_555
N2 N3 1_555 1_555
N3 N4 1_555 1_555
N4 C1 1_555 1_555
N5 Zn1 1_555 1_555
N6 N5 1_555 1_555
N7 N6 1_555 1_555
N8 N7 1_555 1_555
N9 N10 1_555 1_555
N10 N12 1_555 1_555
N11 Zn1 1_555 1_555
N12 N11 1_555 1_555
C1 N1 1_555 1_555
C2 C1 1_555 1_555
H1 C2 1_555 1_555
H2 C2 1_555 1_555
C3 C2 1_555 1_555
C4 N5 1_555 1_555
C5 C4 1_555 1_555
H3 C5 1_555 1_555
H4 C5 1_555 1_555
C6 C5 1_555 1_555
C7 N9 1_555 1_555
C8 C7 1_555 1_555
H5 C8 1_555 1_555
H6 C8 1_555 1_555
C9 C8 1_555 1_555
C10 H7 1_555 1_555
H8 C10 1_555 1_555
C11 C10 1_555 1_555
H9 C11 1_555 1_555
H10 C11 1_555 1_555
C12 H11 1_555 1_555
H12 C12 1_555 1_555
C13 C12 1_555 1_555
H13 C13 1_555 1_555
H14 C13 1_555 1_555
O1 Zn1 1_555 1_555
O2 C3 1_555 1_555
O3 C6 1_555 1_555
O4 C6 1_555 1_555
O5 C9 1_555 1_555
O6 Zn1 1_555 1_555
O7 Zn3 1_555 1_555
H15 O7 1_555 1_555
H16 O7 1_555 1_555
O8 Zn2 1_555 1_555
H17 O8 1_555 1_555
H18 O8 1_555 1_555
O9 Zn3 1_555 1_555
H19 O9 1_555 1_555
H20 O9 1_555 1_555
O10 C10 1_555 1_555
O11 C11 1_555 1_555
Zn2_2 N8 1_555 1_555
Zn2C N9 1_555 1_555
Zn2B O5 1_555 1_555
Zn3C N10 1_555 1_555
Zn3A O2 1_555 1_555
Zn3_2 O3 1_555 1_555
N8_2 Zn2 1_555 1_555
N9C Zn2 1_555 1_555
N10C Zn3 1_555 1_555
O2A Zn3 1_555 1_555
O3_2 Zn2 1_555 1_555
O5B Zn2 1_555 1_555
Zn3 O3_2 1_555 1_555
N8 C4 1_555 1_555
N11 C7 1_555 1_555
C3 O1 1_555 1_555
C9 O6 1_555 1_555
C12 O11 1_555 1_555
C13 O10 1_555 1_555
O3 Zn2_2 1_555 1_555
N9C N10C 1_555 1_555

#END
