
#######################################################################
#
#                 Cambridge Crystallographic Data Centre
#                                CCDC 
#
#######################################################################
#
# If this CIF has been generated from an entry in the Cambridge 
# Structural Database, then it will include bibliographic, chemical, 
# crystal, experimental, refinement or atomic coordinate data resulting 
# from the CCDC's data processing and validation procedures.
#
#######################################################################

data_WUXCEY
_chemical_formula_moiety         '(C9 H12 N12 O9 Zn3)n,n(C2 H6 O1 S1)'
_chemical_name_systematic        
'catena-[bis(\m~4~-Tetrazol-5-ylacetato)-(\m~3~-tetrazol-5-ylacetato)-triaqua-tri-zinc dimethylsulfoxide solvate]'
_symmetry_cell_setting           monoclinic
_symmetry_space_group_name_H-M   'P 21/n'
_symmetry_Int_Tables_number      14
_space_group_name_Hall           '-P 2yn'
loop_
_symmetry_equiv_pos_site_id
_symmetry_equiv_pos_as_xyz
1 x,y,z
2 1/2-x,1/2+y,1/2-z
3 -x,-y,-z
4 1/2+x,1/2-y,1/2+z
_cell_length_a                   16.1397(14)
_cell_length_b                   8.7667(5)
_cell_length_c                   16.9326(15)
_cell_angle_alpha                90
_cell_angle_beta                 107.818(5)
_cell_angle_gamma                90
_cell_volume                     2280.91
_exptl_crystal_colour            colorless
_exptl_crystal_description       block
_cell_formula_units_Z            4
loop_
_atom_site_label
_atom_site_type_symbol
_atom_site_fract_x
_atom_site_fract_y
_atom_site_fract_z
Zn1 Zn 0.47872(2) 0.36796(4) 0.20466(2)
Zn2 Zn 0.32190(2) -0.13206(4) -0.04818(2)
Zn3 Zn 0.16739(2) -0.07442(4) 0.06050(2)
O1 O 0.58766(12) 0.2709(2) 0.17877(11)
O2 O 0.39526(12) -0.0057(2) -0.10437(11)
H1 H 0.4069 0.0870 -0.0907
H2 H 0.4140 -0.0462 -0.1412
O3 O 0.08713(12) 0.0999(2) 0.07918(12)
H3 H 0.1080 0.1883 0.0936
H4 H 0.0336 0.0825 0.0724
O4 O 0.71188(12) 0.2839(2) 0.14698(11)
O5 O 0.38270(12) 0.4264(2) 0.25782(12)
O6 O 0.06091(12) -0.2328(2) 0.04209(12)
H5 H 0.0613 -0.2978 0.0795
H6 H 0.0186 -0.2304 -0.0025
O7 O 0.28467(12) 0.3580(2) 0.31942(11)
O8 O 0.17140(13) 0.5433(2) 0.03783(14)
O9 O 0.24195(12) 0.7547(2) 0.02070(11)
N1 N 0.69676(14) 0.5203(3) 0.39178(13)
N2 N 0.63512(14) 0.5225(3) 0.43044(13)
N3 N 0.56001(15) 0.4838(3) 0.37934(13)
N4 N 0.57106(14) 0.4541(3) 0.30550(13)
N5 N 0.39699(14) 0.2051(3) 0.13894(13)
N6 N 0.41350(15) 0.1131(3) 0.08170(13)
N7 N 0.34392(14) 0.0310(3) 0.04923(13)
N8 N 0.28128(14) 0.0665(3) 0.08364(13)
N9 N 0.41864(14) 0.7180(3) 0.02392(14)
N10 N 0.50126(15) 0.7497(3) 0.07057(14)
N11 N 0.46374(15) 0.5401(3) 0.11774(14)
N12 N 0.52848(15) 0.6436(3) 0.12658(15)
C1 C 0.65533(17) 0.4770(3) 0.31448(16)
C2 C 0.69677(17) 0.4584(3) 0.24744(16)
H7 H 0.7600 0.4433 0.2736
H8 H 0.6890 0.5545 0.2153
C3 C 0.66213(17) 0.3271(3) 0.18717(15)
C4 C 0.31589(17) 0.1750(3) 0.13928(16)
C5 C 0.26653(18) 0.2512(3) 0.18953(17)
H9 H 0.2370 0.1710 0.2121
H10 H 0.2206 0.3147 0.1517
C6 C 0.31740(17) 0.3512(3) 0.26124(16)
C7 C 0.39744(18) 0.5888(3) 0.05388(16)
C8 C 0.31098(17) 0.5133(3) 0.02011(17)
H11 H 0.3012 0.4893 -0.0392
H12 H 0.3119 0.4157 0.0498
C9 C 0.23526(18) 0.6097(3) 0.02793(16)
Zn2C Zn 0.82190(2) 0.63206(4) 0.45182(2)
Zn2B Zn 0.67810(2) 0.13206(4) 0.04818(2)
Zn2_2 Zn 0.32190(2) 0.86794(4) -0.04818(2)
Zn3C Zn 0.66739(2) 0.57442(4) 0.56050(2)
Zn3A Zn 0.33261(2) 0.42558(4) 0.43950(2)
Zn3_2 Zn 0.16739(2) 0.92558(4) 0.06050(2)
O4B O 0.28812(12) -0.2839(2) -0.14698(11)
O7A O 0.21533(12) -0.1420(2) 0.18058(11)
O9_2 O 0.24195(12) -0.2453(2) 0.02070(11)
N1C N 0.19676(14) -0.0203(3) -0.10822(13)
N2C N 0.13512(14) -0.0225(3) -0.06956(13)
N9_2 N 0.41864(14) -0.2820(3) 0.02392(14)
O10 O 1.02522(16) 0.6429(3) 0.17792(14)
C10 C 0.8959(2) 0.4578(5) 0.1720(2)
C11 C 1.0615(2) 0.3655(4) 0.2434(2)
S1 S 1.00026(5) 0.47841(9) 0.15682(5)
S2? S 0.9916(6) 0.4920(11) 0.2321(6)
loop_
_geom_bond_atom_site_label_1
_geom_bond_atom_site_label_2
_geom_bond_site_symmetry_1
_geom_bond_site_symmetry_2
Zn1 O1 1_555 1_555
Zn2 O2 1_555 1_555
Zn3 O3 1_555 1_555
O1 C3 1_555 1_555
O2 H1 1_555 1_555
H2 O2 1_555 1_555
O3 H3 1_555 1_555
H4 O3 1_555 1_555
O4 C3 1_555 1_555
O5 Zn1 1_555 1_555
O6 Zn3 1_555 1_555
H5 O6 1_555 1_555
H6 O6 1_555 1_555
O7 C6 1_555 1_555
O8 C9 1_555 1_555
O9 C9 1_555 1_555
N1 N2 1_555 1_555
N2 N3 1_555 1_555
N3 N4 1_555 1_555
N4 Zn1 1_555 1_555
N5 Zn1 1_555 1_555
N6 N5 1_555 1_555
N7 Zn2 1_555 1_555
N8 Zn3 1_555 1_555
N9 N10 1_555 1_555
N10 N12 1_555 1_555
N11 Zn1 1_555 1_555
N12 N11 1_555 1_555
C1 N1 1_555 1_555
C2 C1 1_555 1_555
H7 C2 1_555 1_555
H8 C2 1_555 1_555
C3 C2 1_555 1_555
C4 N5 1_555 1_555
C5 C4 1_555 1_555
H9 C5 1_555 1_555
H10 C5 1_555 1_555
C6 O5 1_555 1_555
C7 N9 1_555 1_555
C8 C7 1_555 1_555
H11 C8 1_555 1_555
H12 C8 1_555 1_555
C9 C8 1_555 1_555
O10 S1 1_555 1_555
C10 S1 1_555 1_555
C11 S1 1_555 1_555
Zn2C N1 1_555 1_555
Zn2B O4 1_555 1_555
Zn2_2 O9 1_555 1_555
Zn3C N2 1_555 1_555
Zn3A O7 1_555 1_555
Zn3_2 O9 1_555 1_555
O4B Zn2 1_555 1_555
O7A Zn3 1_555 1_555
O9_2 Zn2 1_555 1_555
N1C Zn2 1_555 1_555
N2C Zn3 1_555 1_555
N9_2 Zn2 1_555 1_555
Zn3 O9_2 1_555 1_555
N4 C1 1_555 1_555
N6 N7 1_555 1_555
N7 N8 1_555 1_555
N8 C4 1_555 1_555
N9 Zn2_2 1_555 1_555
N11 C7 1_555 1_555
C5 C6 1_555 1_555
N1C N2C 1_555 1_555

#END
