
#######################################################################
#
#                 Cambridge Crystallographic Data Centre
#                                CCDC 
#
#######################################################################
#
# If this CIF has been generated from an entry in the Cambridge 
# Structural Database, then it will include bibliographic, chemical, 
# crystal, experimental, refinement or atomic coordinate data resulting 
# from the CCDC's data processing and validation procedures.
#
#######################################################################

data_KIPKIF
_chemical_formula_moiety         '(C62 H50 N8 O12 Zn4)n'
_chemical_name_systematic        
catena-[bis(\m~4~-Biphenyl-4,4'-dicarboxylato)-bis(\m~3~-4-(3,5-dimethyl-1H-pyrazol-4-yl)-3,5-dimethyl-pyrazolato)-(\m~2~-biphenyl-4,4'-dicarboxylato)-tetra-zinc]
_symmetry_cell_setting           tetragonal
_symmetry_space_group_name_H-M   'I 41/a'
_symmetry_Int_Tables_number      88
_space_group_name_Hall           '-I 4ad'
loop_
_symmetry_equiv_pos_site_id
_symmetry_equiv_pos_as_xyz
1 x,y,z
2 1/2-x,-y,1/2+z
3 3/4-y,1/4+x,1/4+z
4 3/4+y,3/4-x,3/4+z
5 1/2+x,1/2+y,1/2+z
6 -x,1/2-y,z
7 1/4-y,3/4+x,3/4+z
8 1/4+y,1/4-x,1/4+z
9 -x,-y,-z
10 1/2+x,y,1/2-z
11 1/4+y,3/4-x,3/4-z
12 1/4-y,1/4+x,1/4-z
13 1/2-x,1/2-y,1/2-z
14 x,1/2+y,-z
15 3/4+y,1/4-x,1/4-z
16 3/4-y,3/4+x,3/4-z
_cell_length_a                   43.719(6)
_cell_length_b                   43.719(6)
_cell_length_c                   8.5159(17)
_cell_angle_alpha                90
_cell_angle_beta                 90
_cell_angle_gamma                90
_cell_volume                     16276.9
_exptl_crystal_colour            light-yellow
_exptl_crystal_description       block
_cell_formula_units_Z            8
loop_
_atom_site_label
_atom_site_type_symbol
_atom_site_fract_x
_atom_site_fract_y
_atom_site_fract_z
_atom_site_U_iso_or_equiv
_atom_site_thermal_displace_type
Zn1 Zn 0.345943(11) 0.197710(11) 0.43989(7) 0.0227 Uani
Zn2 Zn 0.380932(11) 0.175517(11) 0.75533(7) 0.0231 Uani
C1 C 0.35985(14) 0.27606(11) 0.4171(7) 0.0563 Uani
H1 H 0.3463 0.2630 0.3589 0.0840 Uiso
H2 H 0.3740 0.2857 0.3464 0.0840 Uiso
H3 H 0.3482 0.2915 0.4708 0.0840 Uiso
C2 C 0.37716(11) 0.25732(9) 0.5347(6) 0.0293 Uani
C3 C 0.39884(10) 0.26642(10) 0.6424(6) 0.0267 Uani
C4 C 0.40716(11) 0.24032(10) 0.7261(6) 0.0313 Uani
C5 C 0.42994(13) 0.23726(12) 0.8546(8) 0.0610 Uani
H4 H 0.4306 0.2164 0.8896 0.0910 Uiso
H5 H 0.4242 0.2503 0.9406 0.0910 Uiso
H6 H 0.4498 0.2431 0.8167 0.0910 Uiso
C6 C 0.38206(15) 0.30388(13) 0.9482(7) 0.0643 Uani
H7 H 0.3812 0.3196 1.0268 0.0960 Uiso
H8 H 0.3903 0.2855 0.9935 0.0960 Uiso
H9 H 0.3618 0.2999 0.9093 0.0960 Uiso
C7 C 0.40195(11) 0.31411(10) 0.8167(6) 0.0303 Uani
C8 C 0.40909(11) 0.29797(10) 0.6798(6) 0.0290 Uani
C9 C 0.42725(12) 0.31744(10) 0.5920(6) 0.0327 Uani
C10 C 0.44270(15) 0.31309(12) 0.4373(7) 0.0583 Uani
H10 H 0.4535 0.3314 0.4096 0.0880 Uiso
H11 H 0.4277 0.3087 0.3584 0.0880 Uiso
H12 H 0.4569 0.2964 0.4444 0.0880 Uiso
C11 C 0.31589(10) 0.17221(12) 0.7313(7) 0.0380 Uani
C12 C 0.28518(10) 0.16502(12) 0.7988(7) 0.0383 Uani
C13 C 0.28255(12) 0.15391(14) 0.9486(8) 0.0540 Uani
H13 H 0.3001 0.1503 1.0075 0.0650 Uiso
C14 C 0.25405(12) 0.14802(14) 1.0135(7) 0.0547 Uani
H14 H 0.2526 0.1404 1.1153 0.0660 Uiso
C15 C 0.22742(11) 0.15350(14) 0.9255(7) 0.0470 Uani
C16 C 0.23061(12) 0.16484(14) 0.7754(8) 0.0550 Uani
H15 H 0.2132 0.1688 0.7160 0.0660 Uiso
C17 C 0.25906(11) 0.17051(13) 0.7110(7) 0.0500 Uani
H16 H 0.2607 0.1780 0.6091 0.0600 Uiso
C18 C 0.10953(10) 0.12918(10) 1.2056(7) 0.0323 Uani
C19 C 0.13974(11) 0.13573(11) 1.1310(7) 0.0357 Uani
C20 C 0.14475(12) 0.13066(13) 0.9734(7) 0.0483 Uani
H17 H 0.1290 0.1231 0.9113 0.0580 Uiso
C21 C 0.17282(12) 0.13665(15) 0.9068(8) 0.0553 Uani
H18 H 0.1757 0.1332 0.8001 0.0660 Uiso
C22 C 0.19696(12) 0.14781(14) 0.9959(8) 0.0467 Uani
C23 C 0.19188(12) 0.15304(14) 1.1542(8) 0.0527 Uani
H19 H 0.2077 0.1605 1.2165 0.0630 Uiso
C24 C 0.16331(11) 0.14732(13) 1.2215(7) 0.0467 Uani
H20 H 0.1601 0.1513 1.3275 0.0560 Uiso
C25 C 0.33075(12) 0.22098(11) 0.1476(7) 0.0370 Uani
C26 C 0.30741(11) 0.23218(12) 0.0316(7) 0.0393 Uani
C27 C 0.27684(13) 0.23221(17) 0.0709(8) 0.0680 Uani
H21 H 0.2710 0.2270 0.1725 0.0810 Uiso
C28 C 0.25454(13) 0.23982(18) -0.0385(8) 0.0757 Uani
H22 H 0.2341 0.2400 -0.0078 0.0910 Uiso
C29 C 0.26186(11) 0.24702(13) -0.1899(6) 0.0407 Uani
C30 C 0.29289(11) 0.24777(12) -0.2282(7) 0.0403 Uani
H23 H 0.2987 0.2533 -0.3293 0.0490 Uiso
C31 C 0.31517(11) 0.24050(12) -0.1185(7) 0.0380 Uani
H24 H 0.3357 0.2413 -0.1472 0.0450 Uiso
N1 N 0.37239(8) 0.22704(8) 0.5498(5) 0.0252 Uani
N2 N 0.39090(8) 0.21652(8) 0.6700(5) 0.0258 Uani
N3 N 0.41507(9) 0.34185(8) 0.8138(5) 0.0270 Uani
N4 N 0.43023(9) 0.34325(8) 0.6743(5) 0.0290 Uani
O1 O 0.31650(7) 0.18102(9) 0.5903(5) 0.0425 Uani
O2 O 0.33897(7) 0.16924(8) 0.8191(5) 0.0404 Uani
O3 O 0.10634(7) 0.13702(8) 1.3456(5) 0.0404 Uani
O4 O 0.08934(7) 0.11702(8) 1.1210(4) 0.0383 Uani
O5 O 0.31998(8) 0.21331(8) 0.2809(5) 0.0447 Uani
O6 O 0.35816(8) 0.21978(8) 0.1105(5) 0.0467 Uani
H25 H 0.4429(13) 0.3599(13) 0.651(7) 0.0700 Uiso
C25L C 0.16925(12) 0.27902(11) -0.6476(7) 0.0370 Uani
C26L C 0.19259(11) 0.26782(12) -0.5316(7) 0.0393 Uani
C27L C 0.22316(13) 0.26779(17) -0.5709(8) 0.0680 Uani
H21L H 0.2290 0.2730 -0.6725 0.0810 Uiso
C28L C 0.24546(13) 0.26018(18) -0.4615(8) 0.0757 Uani
H22L H 0.2659 0.2600 -0.4922 0.0910 Uiso
C29L C 0.23814(11) 0.25298(13) -0.3101(6) 0.0407 Uani
C30L C 0.20711(11) 0.25223(12) -0.2718(7) 0.0403 Uani
H23L H 0.2013 0.2467 -0.1707 0.0490 Uiso
C31L C 0.18483(11) 0.25950(12) -0.3815(7) 0.0380 Uani
H24L H 0.1643 0.2587 -0.3528 0.0450 Uiso
O5L O 0.18002(8) 0.28669(8) -0.7809(5) 0.0447 Uani
O6L O 0.14184(8) 0.28022(8) -0.6105(5) 0.0467 Uani
Zn1J Zn 0.447710(11) 0.404057(11) 1.31011(7) 0.0227 Uani
Zn2J Zn 0.425517(11) 0.369068(11) 0.99467(7) 0.0231 Uani
C1J C 0.52606(11) 0.39015(14) 1.3329(7) 0.0563 Uani
H1J H 0.5130 0.4037 1.3911 0.0840 Uiso
H2J H 0.5357 0.3760 1.4036 0.0840 Uiso
H3J H 0.5415 0.4018 1.2792 0.0840 Uiso
C2J C 0.50732(9) 0.37284(11) 1.2153(6) 0.0293 Uani
C3J C 0.51642(10) 0.35116(10) 1.1076(6) 0.0267 Uani
C4J C 0.49032(10) 0.34284(11) 1.0239(6) 0.0313 Uani
C5J C 0.48726(12) 0.32006(13) 0.8954(8) 0.0610 Uani
H4J H 0.4664 0.3194 0.8604 0.0910 Uiso
H5J H 0.5003 0.3258 0.8094 0.0910 Uiso
H6J H 0.4931 0.3002 0.9333 0.0910 Uiso
C6J C 0.55388(13) 0.36794(15) 0.8018(7) 0.0643 Uani
H7J H 0.5696 0.3688 0.7232 0.0960 Uiso
H8J H 0.5355 0.3597 0.7565 0.0960 Uiso
H9J H 0.5499 0.3882 0.8407 0.0960 Uiso
C7J C 0.56411(10) 0.34805(11) 0.9333(6) 0.0303 Uani
C8J C 0.54797(10) 0.34091(11) 1.0702(6) 0.0290 Uani
C9J C 0.56744(10) 0.32275(12) 1.1580(6) 0.0327 Uani
C10J C 0.56309(12) 0.30730(15) 1.3127(7) 0.0583 Uani
H10J H 0.5814 0.2965 1.3404 0.0880 Uiso
H11J H 0.5587 0.3223 1.3916 0.0880 Uiso
H12J H 0.5464 0.2931 1.3056 0.0880 Uiso
C11J C 0.42221(12) 0.43411(10) 1.0187(7) 0.0380 Uani
C12J C 0.41502(12) 0.46482(10) 0.9512(7) 0.0383 Uani
C13J C 0.40391(14) 0.46745(12) 0.8014(8) 0.0540 Uani
H13J H 0.4003 0.4499 0.7425 0.0650 Uiso
C14J C 0.39802(14) 0.49595(12) 0.7365(7) 0.0547 Uani
H14J H 0.3904 0.4974 0.6347 0.0660 Uiso
C15J C 0.40350(14) 0.52258(11) 0.8245(7) 0.0470 Uani
C16J C 0.41484(14) 0.51939(12) 0.9746(8) 0.0550 Uani
H15J H 0.4188 0.5368 1.0340 0.0660 Uiso
C17J C 0.42051(13) 0.49094(11) 1.0390(7) 0.0500 Uani
H16J H 0.4280 0.4893 1.1409 0.0600 Uiso
C18J C 0.37918(10) 0.64047(10) 0.5444(7) 0.0323 Uani
C19J C 0.38573(11) 0.61026(11) 0.6190(7) 0.0357 Uani
C20J C 0.38066(13) 0.60525(12) 0.7766(7) 0.0483 Uani
H17J H 0.3731 0.6210 0.8387 0.0580 Uiso
C21J C 0.38665(15) 0.57718(12) 0.8432(8) 0.0553 Uani
H18J H 0.3832 0.5743 0.9499 0.0660 Uiso
C22J C 0.39781(14) 0.55304(12) 0.7541(8) 0.0467 Uani
C23J C 0.40304(14) 0.55812(12) 0.5958(8) 0.0527 Uani
H19J H 0.4105 0.5423 0.5335 0.0630 Uiso
C24J C 0.39732(13) 0.58669(11) 0.5285(7) 0.0467 Uani
H20J H 0.4013 0.5899 0.4225 0.0560 Uiso
N1J N 0.47704(8) 0.37761(8) 1.2002(5) 0.0252 Uani
N2J N 0.46652(8) 0.35910(8) 1.0800(5) 0.0258 Uani
N3J N 0.59185(8) 0.33493(9) 0.9362(5) 0.0270 Uani
N4J N 0.59325(8) 0.31977(9) 1.0757(5) 0.0290 Uani
O1J O 0.43102(9) 0.43350(7) 1.1597(5) 0.0425 Uani
O2J O 0.41924(8) 0.41103(7) 0.9309(5) 0.0404 Uani
O3J O 0.38702(8) 0.64366(7) 0.4044(5) 0.0404 Uani
O4J O 0.36702(8) 0.66066(7) 0.6290(4) 0.0383 Uani
H25J H 0.6099(13) 0.3071(13) 1.099(7) 0.0700 Uiso
Zn1F Zn 0.052290(11) 0.095943(11) 1.18989(7) 0.0227 Uani
Zn1L Zn 0.154057(11) 0.302290(11) -0.93989(7) 0.0227 Uani
Zn1M Zn 0.345943(11) 0.697710(11) 0.56011(7) 0.0227 Uani
Zn2E Zn 0.619068(11) 0.324483(11) 0.75533(7) 0.0231 Uani
Zn2F Zn 0.074483(11) 0.130932(11) 1.50533(7) 0.0231 Uani
Zn2M Zn 0.380932(11) 0.675517(11) 0.24467(7) 0.0231 Uani
N3O N 0.40815(8) 0.16507(9) 0.9362(5) 0.0270 Uani
O3G O 0.38702(8) 0.14366(7) 0.5956(5) 0.0404 Uani
O3L O 0.39366(7) 0.36298(8) 1.1544(5) 0.0404 Uani
O4G O 0.36702(8) 0.16066(7) 0.3710(4) 0.0383 Uani
O4L O 0.41066(7) 0.38298(8) 1.3790(4) 0.0383 Uani
O5J O 0.46331(8) 0.43002(8) 1.4691(5) 0.0447 Uani
loop_
_atom_site_aniso_label
_atom_site_aniso_U_11
_atom_site_aniso_U_22
_atom_site_aniso_U_33
_atom_site_aniso_U_23
_atom_site_aniso_U_13
_atom_site_aniso_U_12
Zn1 0.0206(3) 0.0234(3) 0.0240(3) -0.0018(2) -0.0040(2) 0.0010(2)
Zn2 0.0190(3) 0.0215(3) 0.0288(4) 0.0028(2) -0.0028(2) 0.0005(2)
C1 0.078(4) 0.023(3) 0.068(5) 0.011(3) -0.039(4) -0.004(3)
C2 0.042(3) 0.017(2) 0.029(3) 0.002(2) -0.007(2) -0.0038(19)
C3 0.033(3) 0.021(2) 0.026(3) -0.003(2) -0.004(2) -0.0053(19)
C4 0.036(3) 0.023(2) 0.035(4) -0.002(2) -0.002(2) -0.010(2)
C5 0.063(4) 0.043(3) 0.077(5) 0.012(3) -0.042(4) -0.025(3)
C6 0.088(5) 0.044(4) 0.061(5) -0.015(3) 0.028(4) -0.033(3)
C7 0.037(3) 0.028(3) 0.026(3) 0.002(2) -0.003(2) -0.010(2)
C8 0.042(3) 0.019(2) 0.026(3) -0.002(2) -0.010(2) -0.003(2)
C9 0.048(3) 0.020(2) 0.030(4) 0.004(2) -0.007(2) -0.004(2)
C10 0.097(5) 0.038(3) 0.040(4) -0.004(3) 0.028(4) -0.007(3)
C11 0.021(2) 0.040(3) 0.053(4) -0.002(3) 0.001(3) -0.003(2)
C12 0.021(2) 0.050(3) 0.044(4) 0.009(3) 0.004(2) -0.006(2)
C13 0.027(3) 0.082(5) 0.053(5) 0.012(4) -0.003(3) 0.000(3)
C14 0.029(3) 0.089(5) 0.046(5) 0.026(4) 0.008(3) -0.005(3)
C15 0.025(3) 0.070(4) 0.046(4) 0.014(3) 0.006(3) -0.005(3)
C16 0.023(3) 0.083(5) 0.059(5) 0.018(4) 0.004(3) -0.006(3)
C17 0.025(3) 0.074(4) 0.051(5) 0.019(3) 0.004(3) -0.007(3)
C18 0.019(2) 0.024(2) 0.054(4) 0.004(2) 0.010(2) 0.0047(18)
C19 0.024(3) 0.038(3) 0.045(4) 0.002(3) 0.008(2) 0.002(2)
C20 0.029(3) 0.072(4) 0.044(5) -0.001(3) 0.007(3) -0.014(3)
C21 0.036(3) 0.095(5) 0.035(4) -0.007(3) 0.015(3) -0.015(3)
C22 0.030(3) 0.073(4) 0.037(4) 0.006(3) 0.010(3) -0.012(3)
C23 0.027(3) 0.077(4) 0.054(5) 0.003(3) 0.007(3) -0.014(3)
C24 0.029(3) 0.069(4) 0.042(4) -0.003(3) 0.012(3) -0.006(3)
C25 0.036(3) 0.032(3) 0.043(4) -0.008(3) -0.015(3) 0.010(2)
C26 0.028(3) 0.053(3) 0.037(4) -0.004(3) -0.007(2) 0.014(2)
C27 0.045(4) 0.135(7) 0.024(4) 0.017(4) -0.008(3) 0.024(4)
C28 0.031(3) 0.164(8) 0.032(5) 0.014(4) 0.003(3) 0.040(4)
C29 0.032(3) 0.067(4) 0.023(4) -0.003(3) -0.011(2) 0.019(3)
C30 0.040(3) 0.049(3) 0.032(4) 0.009(3) -0.009(3) 0.002(2)
C31 0.026(3) 0.044(3) 0.044(4) -0.005(3) -0.006(2) 0.007(2)
N1 0.028(2) 0.0225(19) 0.025(3) 0.0008(17) -0.0143(18) -0.0020(15)
N2 0.030(2) 0.0193(19) 0.028(3) 0.0010(17) -0.0103(18) -0.0012(16)
N3 0.035(2) 0.022(2) 0.024(3) -0.0038(17) -0.0001(19) -0.0058(16)
N4 0.040(2) 0.021(2) 0.026(3) 0.0015(18) 0.000(2) -0.0080(18)
O1 0.0276(19) 0.062(3) 0.038(3) 0.006(2) 0.0037(17) -0.0104(17)
O2 0.0253(19) 0.052(2) 0.044(3) 0.0057(19) 0.0093(17) -0.0078(16)
O3 0.0273(19) 0.043(2) 0.051(3) -0.0141(19) 0.0119(18) -0.0087(16)
O4 0.0238(18) 0.048(2) 0.043(3) 0.0024(18) 0.0060(17) -0.0079(16)
O5 0.036(2) 0.059(3) 0.039(3) 0.009(2) -0.0156(18) 0.0026(18)
O6 0.033(2) 0.053(2) 0.054(3) -0.001(2) -0.0135(18) 0.0205(18)
C25L 0.036 0.032 0.043 -0.008 -0.015 0.01
C26L 0.028 0.053 0.037 -0.004 -0.007 0.014
C27L 0.045 0.135 0.024 0.017 -0.008 0.024
C28L 0.031 0.164 0.032 0.014 0.003 0.04
C29L 0.032 0.067 0.023 -0.003 -0.011 0.019
C30L 0.04 0.049 0.032 0.009 -0.009 0.002
C31L 0.026 0.044 0.044 -0.005 -0.006 0.007
O5L 0.036 0.059 0.039 0.009 -0.0156 0.0026
O6L 0.033 0.053 0.054 -0.001 -0.0135 0.0205
Zn1J 0.0234 0.0206 0.024 -0.004 0.0018 -0.001
Zn2J 0.0215 0.019 0.0288 -0.0028 -0.0028 -0.0005
C1J 0.023 0.078 0.068 -0.039 -0.011 0.004
C2J 0.017 0.042 0.029 -0.007 -0.002 0.0038
C3J 0.021 0.033 0.026 -0.004 0.003 0.0053
C4J 0.023 0.036 0.035 -0.002 0.002 0.01
C5J 0.043 0.063 0.077 -0.042 -0.012 0.025
C6J 0.044 0.088 0.061 0.028 0.015 0.033
C7J 0.028 0.037 0.026 -0.003 -0.002 0.01
C8J 0.019 0.042 0.026 -0.01 0.002 0.003
C9J 0.02 0.048 0.03 -0.007 -0.004 0.004
C10J 0.038 0.097 0.04 0.028 0.004 0.007
C11J 0.04 0.021 0.053 0.001 0.002 0.003
C12J 0.05 0.021 0.044 0.004 -0.009 0.006
C13J 0.082 0.027 0.053 -0.003 -0.012 0
C14J 0.089 0.029 0.046 0.008 -0.026 0.005
C15J 0.07 0.025 0.046 0.006 -0.014 0.005
C16J 0.083 0.023 0.059 0.004 -0.018 0.006
C17J 0.074 0.025 0.051 0.004 -0.019 0.007
C18J 0.024 0.019 0.054 0.01 -0.004 -0.0047
C19J 0.038 0.024 0.045 0.008 -0.002 -0.002
C20J 0.072 0.029 0.044 0.007 0.001 0.014
C21J 0.095 0.036 0.035 0.015 0.007 0.015
C22J 0.073 0.03 0.037 0.01 -0.006 0.012
C23J 0.077 0.027 0.054 0.007 -0.003 0.014
C24J 0.069 0.029 0.042 0.012 0.003 0.006
N1J 0.0225 0.028 0.025 -0.0143 -0.0008 0.002
N2J 0.0193 0.03 0.028 -0.0103 -0.001 0.0012
N3J 0.022 0.035 0.024 -0.0001 0.0038 0.0058
N4J 0.021 0.04 0.026 0 -0.0015 0.008
O1J 0.062 0.0276 0.038 0.0037 -0.006 0.0104
O2J 0.052 0.0253 0.044 0.0093 -0.0057 0.0078
O3J 0.043 0.0273 0.051 0.0119 0.0141 0.0087
O4J 0.048 0.0238 0.043 0.006 -0.0024 0.0079
Zn1F 0.0234 0.0206 0.024 -0.004 0.0018 -0.001
Zn1L 0.0206 0.0234 0.024 -0.0018 -0.004 0.001
Zn1M 0.0206 0.0234 0.024 0.0018 0.004 0.001
Zn2E 0.019 0.0215 0.0288 -0.0028 0.0028 0.0005
Zn2F 0.0215 0.019 0.0288 -0.0028 -0.0028 -0.0005
Zn2M 0.019 0.0215 0.0288 -0.0028 0.0028 0.0005
N3O 0.022 0.035 0.024 0.0001 -0.0038 0.0058
O3G 0.043 0.0273 0.051 -0.0119 -0.0141 0.0087
O3L 0.0273 0.043 0.051 -0.0141 0.0119 -0.0087
O4G 0.048 0.0238 0.043 -0.006 0.0024 0.0079
O4L 0.0238 0.048 0.043 0.0024 0.006 -0.0079
O5J 0.059 0.036 0.039 -0.0156 -0.009 -0.0026
loop_
_geom_bond_atom_site_label_1
_geom_bond_atom_site_label_2
_geom_bond_site_symmetry_1
_geom_bond_site_symmetry_2
Zn1 N1 1_555 1_555
Zn2 N2 1_555 1_555
C1 H1 1_555 1_555
H2 C1 1_555 1_555
H3 C1 1_555 1_555
C2 C1 1_555 1_555
C3 C2 1_555 1_555
C4 C3 1_555 1_555
C5 C4 1_555 1_555
H4 C5 1_555 1_555
H5 C5 1_555 1_555
H6 C5 1_555 1_555
C6 H7 1_555 1_555
H8 C6 1_555 1_555
H9 C6 1_555 1_555
C7 C6 1_555 1_555
C8 C3 1_555 1_555
C9 C8 1_555 1_555
C10 C9 1_555 1_555
H10 C10 1_555 1_555
H11 C10 1_555 1_555
H12 C10 1_555 1_555
C11 C12 1_555 1_555
C12 C13 1_555 1_555
C13 H13 1_555 1_555
C14 C13 1_555 1_555
H14 C14 1_555 1_555
C15 C14 1_555 1_555
C16 C15 1_555 1_555
H15 C16 1_555 1_555
C17 C12 1_555 1_555
H16 C17 1_555 1_555
C18 C19 1_555 1_555
C19 C20 1_555 1_555
C20 H17 1_555 1_555
C21 C20 1_555 1_555
H18 C21 1_555 1_555
C22 C15 1_555 1_555
C23 C22 1_555 1_555
H19 C23 1_555 1_555
C24 C19 1_555 1_555
H20 C24 1_555 1_555
C25 C26 1_555 1_555
C26 C27 1_555 1_555
C27 H21 1_555 1_555
C28 C27 1_555 1_555
H22 C28 1_555 1_555
C29 C28 1_555 1_555
C30 C29 1_555 1_555
H23 C30 1_555 1_555
C31 C26 1_555 1_555
H24 C31 1_555 1_555
N1 C2 1_555 1_555
N2 C4 1_555 1_555
N3 C7 1_555 1_555
N4 C9 1_555 1_555
O1 Zn1 1_555 1_555
O2 Zn2 1_555 1_555
O3 C18 1_555 1_555
O4 C18 1_555 1_555
O5 Zn1 1_555 1_555
O6 C25 1_555 1_555
H25 N4 1_555 1_555
C25L C26L 1_555 1_555
C26L C27L 1_555 1_555
C27L H21L 1_555 1_555
C28L C27L 1_555 1_555
H22L C28L 1_555 1_555
C29L C29 1_555 1_555
C30L C29L 1_555 1_555
H23L C30L 1_555 1_555
C31L C26L 1_555 1_555
H24L C31L 1_555 1_555
O5L C25L 1_555 1_555
O6L C25L 1_555 1_555
Zn1J N1J 1_555 1_555
Zn2J N3 1_555 1_555
C1J H1J 1_555 1_555
H2J C1J 1_555 1_555
H3J C1J 1_555 1_555
C2J C1J 1_555 1_555
C3J C2J 1_555 1_555
C4J C3J 1_555 1_555
C5J C4J 1_555 1_555
H4J C5J 1_555 1_555
H5J C5J 1_555 1_555
H6J C5J 1_555 1_555
C6J H7J 1_555 1_555
H8J C6J 1_555 1_555
H9J C6J 1_555 1_555
C7J C6J 1_555 1_555
C8J C3J 1_555 1_555
C9J C8J 1_555 1_555
C10J C9J 1_555 1_555
H10J C10J 1_555 1_555
H11J C10J 1_555 1_555
H12J C10J 1_555 1_555
C11J C12J 1_555 1_555
C12J C13J 1_555 1_555
C13J H13J 1_555 1_555
C14J C13J 1_555 1_555
H14J C14J 1_555 1_555
C15J C14J 1_555 1_555
C16J C15J 1_555 1_555
H15J C16J 1_555 1_555
C17J C12J 1_555 1_555
H16J C17J 1_555 1_555
C18J C19J 1_555 1_555
C19J C20J 1_555 1_555
C20J H17J 1_555 1_555
C21J C20J 1_555 1_555
H18J C21J 1_555 1_555
C22J C15J 1_555 1_555
C23J C22J 1_555 1_555
H19J C23J 1_555 1_555
C24J C19J 1_555 1_555
H20J C24J 1_555 1_555
N1J C2J 1_555 1_555
N2J Zn2J 1_555 1_555
N3J C7J 1_555 1_555
N4J C9J 1_555 1_555
O1J Zn1J 1_555 1_555
O2J Zn2J 1_555 1_555
O3J C18J 1_555 1_555
O4J C18J 1_555 1_555
H25J N4J 1_555 1_555
Zn1F O4 1_555 1_555
Zn1L O5L 1_555 1_555
Zn1M O4J 1_555 1_555
Zn2E N3J 1_555 1_555
Zn2F O3 1_555 1_555
Zn2M O3J 1_555 1_555
N3O Zn2 1_555 1_555
O3G Zn2 1_555 1_555
O3L Zn2J 1_555 1_555
O4G Zn1 1_555 1_555
O4L Zn1J 1_555 1_555
O5J Zn1J 1_555 1_555
C7 C8 1_555 1_555
C11 O1 1_555 1_555
C11 O2 1_555 1_555
C16 C17 1_555 1_555
C21 C22 1_555 1_555
C23 C24 1_555 1_555
C25 O5 1_555 1_555
C30 C31 1_555 1_555
N1 N2 1_555 1_555
N3 N4 1_555 1_555
C28L C29L 1_555 1_555
C30L C31L 1_555 1_555
C4J N2J 1_555 1_555
C7J C8J 1_555 1_555
C11J O1J 1_555 1_555
C11J O2J 1_555 1_555
C16J C17J 1_555 1_555
C21J C22J 1_555 1_555
C23J C24J 1_555 1_555
N1J N2J 1_555 1_555
N3J N4J 1_555 1_555

#END
