
#######################################################################
#
#                 Cambridge Crystallographic Data Centre
#                                CCDC 
#
#######################################################################
#
# If this CIF has been generated from an entry in the Cambridge 
# Structural Database, then it will include bibliographic, chemical, 
# crystal, experimental, refinement or atomic coordinate data resulting 
# from the CCDC's data processing and validation procedures.
#
#######################################################################

data_VICYIR
_chemical_name_common            NU-301
_chemical_formula_moiety         '(C80 H58 N4 O26 Zn4)n,6.5n(C3 H7 N1 O1)'
_chemical_name_systematic        
"catena-[bis(\m~6~-5,5'-(1H-Imidazol-3-ium-1,3-diyl)bis(4,6-dimethylbenzene-1,3-dicarboxylato))-(\m~4~-3,6-bis(4-carboxyphenyl)-2,5-bis(4-carboxylatophenyl)benzene)-diaqua-tetra-zinc(ii) N,N-dimethylformamide solvate]"
_symmetry_cell_setting           monoclinic
_symmetry_space_group_name_H-M   'C 2/m'
_symmetry_Int_Tables_number      12
_space_group_name_Hall           '-C 2y'
loop_
_symmetry_equiv_pos_site_id
_symmetry_equiv_pos_as_xyz
1 x,y,z
2 -x,y,-z
3 1/2+x,1/2+y,z
4 1/2-x,1/2+y,-z
5 -x,-y,-z
6 x,-y,z
7 1/2-x,1/2-y,-z
8 1/2+x,1/2-y,z
_cell_length_a                   14.8149(18)
_cell_length_b                   54.114(6)
_cell_length_c                   9.2584(12)
_cell_angle_alpha                90
_cell_angle_beta                 110.055(9)
_cell_angle_gamma                90
_cell_volume                     6972.33
_exptl_crystal_colour            colorless
_exptl_crystal_description       needle
_cell_formula_units_Z            2
loop_
_atom_site_label
_atom_site_type_symbol
_atom_site_fract_x
_atom_site_fract_y
_atom_site_fract_z
Zn1 Zn -0.08344(10) 0.32452(3) -0.17761(13)
O1 O -0.1509(5) 0.32116(15) -0.3957(6)
O2 O -0.1826(5) 0.28304(14) -0.3327(7)
O3 O -0.0312(6) 0.35802(12) -0.1309(8)
N1 N -0.4281(5) 0.27069(16) -0.9181(7)
C1 C -0.1835(8) 0.2993(3) -0.4272(12)
C2 C -0.2177(7) 0.29384(18) -0.5964(10)
C3 C -0.3085(7) 0.28283(19) -0.6741(10)
C4 C -0.3350(7) 0.28029(18) -0.8324(9)
C5 C -0.2736(7) 0.28609(18) -0.9188(9)
C6 C -0.1850(7) 0.29699(18) -0.8350(9)
C7 C -0.1563(7) 0.29960(18) -0.6798(9)
H1 H -0.0933 0.3055 -0.6257
C8 C -0.3761(7) 0.27570(19) -0.5943(10)
H2 H -0.4408 0.2816 -0.6534
H3 H -0.3551 0.2831 -0.4915
H4 H -0.3770 0.2577 -0.5852
C9 C -0.3100(7) 0.28146(19) -1.0922(8)
H5 H -0.3411 0.2652 -1.1139
H6 H -0.2558 0.2819 -1.1300
H7 H -0.3565 0.2943 -1.1440
C10 C -0.4549(6) 0.2458(2) -0.9480(9)
H8 H -0.4171 0.2317 -0.9039
C11 C -0.5000 0.2871(3) -1.0000
C12 C 0.0000 0.3676(3) 0.0000
C13 C 0.0000 0.3950(3) 0.0000
C14 C -0.0384(12) 0.4080(2) -0.1387(13)
H9 H -0.0638 0.3995 -0.2339
C15 C -0.0380(14) 0.4338(3) -0.1327(15)
H10 H -0.0654 0.4429 -0.2252
C16 C 0.0000 0.4459(4) 0.0000
C17 C 0.0000 0.4745(4) 0.0000
O4 O -0.1532(4) 0.31534(12) -1.0395(6)
O5 O -0.0294(4) 0.30382(12) -0.8374(7)
C18 C -0.044(3) 0.4856(5) 0.079(3)
C19 C -0.107(3) 0.4711(7) 0.152(4)
C20 C -0.079(2) 0.4790(6) 0.304(5)
C21 C -0.126(2) 0.4700(6) 0.401(4)
C22 C -0.2005(18) 0.4531(4) 0.345(3)
C23 C -0.228(2) 0.4452(5) 0.193(3)
C24 C -0.182(3) 0.4542(7) 0.097(3)
C25 C -0.269(2) 0.4392(6) 0.401(4)
O6 O -0.324(2) 0.4240(7) 0.303(5)
O7 O -0.264(3) 0.4418(9) 0.534(4)
C26 C -0.1176(7) 0.30562(19) -0.9101(10)
O1A O -0.8491(5) 0.32116(15) -1.6043(6)
O2A O -0.8174(5) 0.28304(14) -1.6673(7)
N1A N -0.5719(5) 0.27069(16) -1.0819(7)
C1A C -0.8165(8) 0.2993(3) -1.5728(12)
C2A C -0.7823(7) 0.29384(18) -1.4036(10)
C3A C -0.6915(7) 0.28283(19) -1.3259(10)
C4A C -0.6650(7) 0.28029(18) -1.1676(9)
C5A C -0.7264(7) 0.28609(18) -1.0812(9)
C6A C -0.8150(7) 0.29699(18) -1.1650(9)
C7A C -0.8437(7) 0.29960(18) -1.3202(9)
H1A H -0.9067 0.3055 -1.3743
C8A C -0.6239(7) 0.27570(19) -1.4057(10)
H2A H -0.5592 0.2816 -1.3466
H3A H -0.6449 0.2831 -1.5085
H4A H -0.6230 0.2577 -1.4148
C9A C -0.6900(7) 0.28146(19) -0.9078(8)
H5A H -0.6589 0.2652 -0.8861
H6A H -0.7442 0.2819 -0.8700
H7A H -0.6435 0.2943 -0.8560
C10A C -0.5451(6) 0.2458(2) -1.0520(9)
H8A H -0.5829 0.2317 -1.0961
C26A C -0.8824(7) 0.30562(19) -1.0899(10)
O4A O -0.8468(4) 0.31534(12) -0.9605(6)
O5A O -0.9706(4) 0.30382(12) -1.1626(7)
O3A O 0.0312(6) 0.35802(12) 0.1309(8)
C14A C 0.0384(12) 0.4080(2) 0.1387(13)
H9A H 0.0638 0.3995 0.2339
C15A C 0.0380(14) 0.4338(3) 0.1327(15)
H10A H 0.0654 0.4429 0.2252
C18A C 0.044(3) 0.4856(5) -0.079(3)
C19A C 0.107(3) 0.4711(7) -0.152(4)
C20A C 0.079(2) 0.4790(6) -0.304(5)
C21A C 0.126(2) 0.4700(6) -0.401(4)
C22A C 0.2005(18) 0.4531(4) -0.345(3)
C23A C 0.228(2) 0.4452(5) -0.193(3)
C24A C 0.182(3) 0.4542(7) -0.097(3)
C25A C 0.269(2) 0.4392(6) -0.401(4)
O6A O 0.324(2) 0.4240(7) -0.303(5)
O7A O 0.264(3) 0.4418(9) -0.534(4)
O3D O 0.0312(6) 0.64198(12) 0.1309(8)
C12D C 0.0000 0.6324(3) 0.0000
C13D C 0.0000 0.6050(3) 0.0000
C14D C 0.0384(12) 0.5920(2) 0.1387(13)
H9D H 0.0638 0.6005 0.2339
C15D C 0.0380(14) 0.5662(3) 0.1327(15)
H10D H 0.0654 0.5571 0.2252
C16D C 0.0000 0.5541(4) 0.0000
C17D C 0.0000 0.5255(4) 0.0000
C18D C 0.044(3) 0.5144(5) -0.079(3)
C19D C 0.107(3) 0.5289(7) -0.152(4)
C20D C 0.079(2) 0.5210(6) -0.304(5)
C21D C 0.126(2) 0.5300(6) -0.401(4)
C22D C 0.2005(18) 0.5469(4) -0.345(3)
C23D C 0.228(2) 0.5548(5) -0.193(3)
C24D C 0.182(3) 0.5458(7) -0.097(3)
C25D C 0.269(2) 0.5608(6) -0.401(4)
O6D O 0.324(2) 0.5760(7) -0.303(5)
O7D O 0.264(3) 0.5582(9) -0.534(4)
O3E O -0.0312(6) 0.64198(12) -0.1309(8)
C14E C -0.0384(12) 0.5920(2) -0.1387(13)
H9E H -0.0638 0.6005 -0.2339
C15E C -0.0380(14) 0.5662(3) -0.1327(15)
H10E H -0.0654 0.5571 -0.2252
C18E C -0.044(3) 0.5144(5) 0.079(3)
C19E C -0.107(3) 0.5289(7) 0.152(4)
C20E C -0.079(2) 0.5210(6) 0.304(5)
C21E C -0.126(2) 0.5300(6) 0.401(4)
C22E C -0.2005(18) 0.5469(4) 0.345(3)
C23E C -0.228(2) 0.5548(5) 0.193(3)
C24E C -0.182(3) 0.5458(7) 0.097(3)
C25E C -0.269(2) 0.5608(6) 0.401(4)
O6E O -0.324(2) 0.5760(7) 0.303(5)
O7E O -0.264(3) 0.5582(9) 0.534(4)
Zn1A Zn -0.91656(10) 0.32452(3) -1.82239(13)
Zn1D Zn -0.91656(10) 0.67548(3) -1.82239(13)
O1D O -0.8491(5) 0.67884(15) -1.6043(6)
O2D O -0.8174(5) 0.71696(14) -1.6673(7)
N1D N -0.5719(5) 0.72931(16) -1.0819(7)
C1D C -0.8165(8) 0.7007(3) -1.5728(12)
C2D C -0.7823(7) 0.70616(18) -1.4036(10)
C3D C -0.6915(7) 0.71717(19) -1.3259(10)
C4D C -0.6650(7) 0.71971(18) -1.1676(9)
C5D C -0.7264(7) 0.71391(18) -1.0812(9)
C6D C -0.8150(7) 0.70301(18) -1.1650(9)
C7D C -0.8437(7) 0.70040(18) -1.3202(9)
H1D H -0.9067 0.6945 -1.3743
C8D C -0.6239(7) 0.72430(19) -1.4057(10)
H2D H -0.5592 0.7184 -1.3466
H3D H -0.6449 0.7169 -1.5085
H4D H -0.6230 0.7423 -1.4148
C9D C -0.6900(7) 0.71854(19) -0.9078(8)
H5D H -0.6589 0.7348 -0.8861
H6D H -0.7442 0.7181 -0.8700
H7D H -0.6435 0.7057 -0.8560
C10D C -0.5451(6) 0.7542(2) -1.0520(9)
H8D H -0.5829 0.7683 -1.0961
C11D C -0.5000 0.7129(3) -1.0000
O4D O -0.8468(4) 0.68466(12) -0.9605(6)
O5D O -0.9706(4) 0.69618(12) -1.1626(7)
C26D C -0.8824(7) 0.69438(19) -1.0899(10)
O1E O -0.1509(5) 0.67884(15) -0.3957(6)
O2E O -0.1826(5) 0.71696(14) -0.3327(7)
N1E N -0.4281(5) 0.72931(16) -0.9181(7)
C1E C -0.1835(8) 0.7007(3) -0.4272(12)
C2E C -0.2177(7) 0.70616(18) -0.5964(10)
C3E C -0.3085(7) 0.71717(19) -0.6741(10)
C4E C -0.3350(7) 0.71971(18) -0.8324(9)
C5E C -0.2736(7) 0.71391(18) -0.9188(9)
C6E C -0.1850(7) 0.70301(18) -0.8350(9)
C7E C -0.1563(7) 0.70040(18) -0.6798(9)
H1E H -0.0933 0.6945 -0.6257
C8E C -0.3761(7) 0.72430(19) -0.5943(10)
H2E H -0.4408 0.7184 -0.6534
H3E H -0.3551 0.7169 -0.4915
H4E H -0.3770 0.7423 -0.5852
C9E C -0.3100(7) 0.71854(19) -1.0922(8)
H5E H -0.3411 0.7348 -1.1139
H6E H -0.2558 0.7181 -1.1300
H7E H -0.3565 0.7057 -1.1440
C10E C -0.4549(6) 0.7542(2) -0.9480(9)
H8E H -0.4171 0.7683 -0.9039
C26E C -0.1176(7) 0.69438(19) -0.9101(10)
O4E O -0.1532(4) 0.68466(12) -1.0395(6)
O5E O -0.0294(4) 0.69618(12) -0.8374(7)
Zn1E Zn -0.08344(10) 0.67548(3) -0.17761(13)
Zn1_2 Zn -1.08344(10) 0.32452(3) -1.17761(13)
Zn1_3 Zn -0.08344(10) 0.32452(3) -1.17761(13)
Zn1A_2 Zn -0.91656(10) 0.32452(3) -0.82239(13)
Zn1A_3 Zn 0.08344(10) 0.32452(3) -0.82239(13)
Zn1A_4 Zn 0.08344(10) 0.32452(3) 0.17761(13)
Zn1D_2 Zn -0.91656(10) 0.67548(3) -0.82239(13)
Zn1D_3 Zn 0.08344(10) 0.67548(3) -0.82239(13)
Zn1D_4 Zn 0.08344(10) 0.67548(3) 0.17761(13)
Zn1E_2 Zn -1.08344(10) 0.67548(3) -1.17761(13)
Zn1E_3 Zn -0.08344(10) 0.67548(3) -1.17761(13)
O3A_2 O -0.9688(6) 0.35802(12) -1.8691(8)
O3D_2 O -0.9688(6) 0.64198(12) -1.8691(8)
O4_2 O -0.1532(4) 0.31534(12) -0.0395(6)
O4A_2 O -0.8468(4) 0.31534(12) -1.9605(6)
O4D_2 O -0.8468(4) 0.68466(12) -1.9605(6)
O4E_2 O -0.1532(4) 0.68466(12) -0.0395(6)
O5_2 O -1.0294(4) 0.30382(12) -1.8374(7)
O5A_2 O 0.0294(4) 0.30382(12) -0.1626(7)
O5D_2 O 0.0294(4) 0.69618(12) -0.1626(7)
O5E_2 O -1.0294(4) 0.69618(12) -1.8374(7)
C27? C -0.086(3) 0.4867(5) -0.078(4)
C28? C -0.174(2) 0.4779(10) -0.138(5)
C29? C -0.244(3) 0.4941(6) -0.227(5)
C30? C -0.329(3) 0.4848(5) -0.329(5)
C31? C -0.3452(16) 0.4595(5) -0.342(3)
C32? C -0.275(2) 0.4433(5) -0.252(5)
C33? C -0.189(2) 0.4526(9) -0.150(5)
C34? C -0.4137(14) 0.4396(5) -0.423(5)
O8? O -0.5000 0.4476(5) -0.5000
O9? O -0.3810(15) 0.4201(4) -0.449(3)
loop_
_geom_bond_atom_site_label_1
_geom_bond_atom_site_label_2
_geom_bond_site_symmetry_1
_geom_bond_site_symmetry_2
Zn1 O1 1_555 1_555
O1 C1 1_555 1_555
O2 C1 1_555 1_555
O3 Zn1 1_555 1_555
N1 C4 1_555 1_555
C1 C2 1_555 1_555
C2 C3 1_555 1_555
C3 C4 1_555 1_555
C4 C5 1_555 1_555
C5 C6 1_555 1_555
C6 C7 1_555 1_555
C7 C2 1_555 1_555
H1 C7 1_555 1_555
C8 C3 1_555 1_555
H2 C8 1_555 1_555
H3 C8 1_555 1_555
H4 C8 1_555 1_555
C9 C5 1_555 1_555
H5 C9 1_555 1_555
H6 C9 1_555 1_555
H7 C9 1_555 1_555
C10 N1 1_555 1_555
H8 C10 1_555 1_555
C11 N1 1_555 1_555
C12 O3 1_555 1_555
C13 C12 1_555 1_555
C14 C13 1_555 1_555
H9 C14 1_555 1_555
C15 C14 1_555 1_555
H10 C15 1_555 1_555
C16 C15 1_555 1_555
C17 C16 1_555 1_555
O4 C26 1_555 1_555
O5 C26 1_555 1_555
C18 C17 1_555 1_555
C19 C18 1_555 1_555
C20 C19 1_555 1_555
C21 C20 1_555 1_555
C22 C21 1_555 1_555
C23 C22 1_555 1_555
C24 C19 1_555 1_555
C25 C22 1_555 1_555
O6 C25 1_555 1_555
O7 C25 1_555 1_555
C26 C6 1_555 1_555
O1A C1A 1_555 1_555
O2A C1A 1_555 1_555
N1A C11 1_555 1_555
C1A C2A 1_555 1_555
C2A C3A 1_555 1_555
C3A C4A 1_555 1_555
C4A N1A 1_555 1_555
C5A C4A 1_555 1_555
C6A C5A 1_555 1_555
C7A C2A 1_555 1_555
H1A C7A 1_555 1_555
C8A C3A 1_555 1_555
H2A C8A 1_555 1_555
H3A C8A 1_555 1_555
H4A C8A 1_555 1_555
C9A C5A 1_555 1_555
H5A C9A 1_555 1_555
H6A C9A 1_555 1_555
H7A C9A 1_555 1_555
C10A C10 1_555 1_555
H8A C10A 1_555 1_555
C26A C6A 1_555 1_555
O4A C26A 1_555 1_555
O5A C26A 1_555 1_555
O3A C12 1_555 1_555
C14A C13 1_555 1_555
H9A C14A 1_555 1_555
C15A C16 1_555 1_555
H10A C15A 1_555 1_555
C18A C17 1_555 1_555
C19A C18A 1_555 1_555
C20A C19A 1_555 1_555
C21A C20A 1_555 1_555
C22A C21A 1_555 1_555
C23A C22A 1_555 1_555
C24A C19A 1_555 1_555
C25A C22A 1_555 1_555
O6A C25A 1_555 1_555
O7A C25A 1_555 1_555
O3D C12D 1_555 1_555
C12D C13D 1_555 1_555
C13D C14D 1_555 1_555
C14D H9D 1_555 1_555
C15D C14D 1_555 1_555
H10D C15D 1_555 1_555
C16D C15D 1_555 1_555
C17D C16D 1_555 1_555
C18D C18A 1_555 1_555
C19D C18D 1_555 1_555
C20D C19D 1_555 1_555
C21D C20D 1_555 1_555
C22D C21D 1_555 1_555
C23D C22D 1_555 1_555
C24D C19D 1_555 1_555
C25D C22D 1_555 1_555
O6D C25D 1_555 1_555
O7D C25D 1_555 1_555
O3E C12D 1_555 1_555
C14E C13D 1_555 1_555
H9E C14E 1_555 1_555
C15E C16D 1_555 1_555
H10E C15E 1_555 1_555
C18E C18 1_555 1_555
C19E C18E 1_555 1_555
C20E C19E 1_555 1_555
C21E C20E 1_555 1_555
C22E C21E 1_555 1_555
C23E C22E 1_555 1_555
C24E C19E 1_555 1_555
C25E C22E 1_555 1_555
O6E C25E 1_555 1_555
O7E C25E 1_555 1_555
Zn1A O1A 1_555 1_555
Zn1D O1D 1_555 1_555
O1D C1D 1_555 1_555
O2D C1D 1_555 1_555
N1D C4D 1_555 1_555
C1D C2D 1_555 1_555
C2D C3D 1_555 1_555
C3D C4D 1_555 1_555
C4D C5D 1_555 1_555
C5D C6D 1_555 1_555
C6D C7D 1_555 1_555
C7D C2D 1_555 1_555
H1D C7D 1_555 1_555
C8D C3D 1_555 1_555
H2D C8D 1_555 1_555
H3D C8D 1_555 1_555
H4D C8D 1_555 1_555
C9D C5D 1_555 1_555
H5D C9D 1_555 1_555
H6D C9D 1_555 1_555
H7D C9D 1_555 1_555
C10D N1D 1_555 1_555
H8D C10D 1_555 1_555
C11D N1D 1_555 1_555
O4D C26D 1_555 1_555
O5D C26D 1_555 1_555
C26D C6D 1_555 1_555
O1E C1E 1_555 1_555
O2E C1E 1_555 1_555
N1E C11D 1_555 1_555
C1E C2E 1_555 1_555
C2E C3E 1_555 1_555
C3E C4E 1_555 1_555
C4E N1E 1_555 1_555
C5E C4E 1_555 1_555
C6E C5E 1_555 1_555
C7E C2E 1_555 1_555
H1E C7E 1_555 1_555
C8E C3E 1_555 1_555
H2E C8E 1_555 1_555
H3E C8E 1_555 1_555
H4E C8E 1_555 1_555
C9E C5E 1_555 1_555
H5E C9E 1_555 1_555
H6E C9E 1_555 1_555
H7E C9E 1_555 1_555
C10E C10D 1_555 1_555
H8E C10E 1_555 1_555
C26E C6E 1_555 1_555
O4E C26E 1_555 1_555
O5E C26E 1_555 1_555
Zn1E O3E 1_555 1_555
Zn1_2 O5A 1_555 1_555
Zn1_3 O4 1_555 1_555
Zn1A_2 O4A 1_555 1_555
Zn1A_3 O5 1_555 1_555
Zn1A_4 O3A 1_555 1_555
Zn1D_2 O4D 1_555 1_555
Zn1D_3 O5E 1_555 1_555
Zn1D_4 O3D 1_555 1_555
Zn1E_2 O5D 1_555 1_555
Zn1E_3 O4E 1_555 1_555
O3A_2 Zn1A 1_555 1_555
O3D_2 Zn1D 1_555 1_555
O4_2 Zn1 1_555 1_555
O4A_2 Zn1A 1_555 1_555
O4D_2 Zn1D 1_555 1_555
O4E_2 Zn1E 1_555 1_555
O5_2 Zn1A 1_555 1_555
O5A_2 Zn1 1_555 1_555
O5D_2 Zn1E 1_555 1_555
O5E_2 Zn1D 1_555 1_555
C23 C24 1_555 1_555
N1A C10A 1_555 1_555
C6A C7A 1_555 1_555
C14A C15A 1_555 1_555
C23A C24A 1_555 1_555
C17D C18D 1_555 1_555
C17D C18E 1_555 1_555
C23D C24D 1_555 1_555
C14E C15E 1_555 1_555
C23E C24E 1_555 1_555
O1E Zn1E 1_555 1_555
N1E C10E 1_555 1_555
C6E C7E 1_555 1_555

#END
