
#######################################################################
#
#                 Cambridge Crystallographic Data Centre
#                                CCDC 
#
#######################################################################
#
# If this CIF has been generated from an entry in the Cambridge 
# Structural Database, then it will include bibliographic, chemical, 
# crystal, experimental, refinement or atomic coordinate data resulting 
# from the CCDC's data processing and validation procedures.
#
#######################################################################

data_OFERUN02
_chemical_name_common            ZIF8
_chemical_formula_moiety         '(C8 H10 N4 Zn1)n'
_chemical_name_systematic        catena-(bis(\m~2~-2-Methylimidazolato)-zinc)
_symmetry_cell_setting           cubic
_symmetry_space_group_name_H-M   'I -4 3 m'
_symmetry_Int_Tables_number      217
_space_group_name_Hall           'I -4 2 3'
loop_
_symmetry_equiv_pos_site_id
_symmetry_equiv_pos_as_xyz
1 x,y,z
2 y,-x,-z
3 x,-y,-z
4 z,x,y
5 -x,-y,z
6 -y,-x,z
7 x,-z,-y
8 -y,x,-z
9 -x,y,-z
10 -z,-x,y
11 y,x,z
12 -x,z,-y
13 z,-x,-y
14 x,z,y
15 -z,x,-y
16 -x,-z,y
17 y,z,x
18 z,-y,-x
19 -z,-y,x
20 y,-z,-x
21 z,y,x
22 -y,z,-x
23 -y,-z,x
24 -z,y,-x
25 1/2+x,1/2+y,1/2+z
26 1/2+y,1/2-x,1/2-z
27 1/2+x,1/2-y,1/2-z
28 1/2+z,1/2+x,1/2+y
29 1/2-x,1/2-y,1/2+z
30 1/2-y,1/2-x,1/2+z
31 1/2+x,1/2-z,1/2-y
32 1/2-y,1/2+x,1/2-z
33 1/2-x,1/2+y,1/2-z
34 1/2-z,1/2-x,1/2+y
35 1/2+y,1/2+x,1/2+z
36 1/2-x,1/2+z,1/2-y
37 1/2+z,1/2-x,1/2-y
38 1/2+x,1/2+z,1/2+y
39 1/2-z,1/2+x,1/2-y
40 1/2-x,1/2-z,1/2+y
41 1/2+y,1/2+z,1/2+x
42 1/2+z,1/2-y,1/2-x
43 1/2-z,1/2-y,1/2+x
44 1/2+y,1/2-z,1/2-x
45 1/2+z,1/2+y,1/2+x
46 1/2-y,1/2+z,1/2-x
47 1/2-y,1/2-z,1/2+x
48 1/2-z,1/2+y,1/2-x
_cell_length_a                   17.00517(14)
_cell_length_b                   17.00517(14)
_cell_length_c                   17.00517(14)
_cell_angle_alpha                90
_cell_angle_beta                 90
_cell_angle_gamma                90
_cell_volume                     4917.48
_cell_formula_units_Z            12
loop_
_atom_site_label
_atom_site_type_symbol
_atom_site_fract_x
_atom_site_fract_y
_atom_site_fract_z
_atom_site_U_iso_or_equiv
_atom_site_thermal_displace_type
C1 C 0.41590(17) 0.09210(13) 0.09210(13) 0.0291 Uiso
N1 N 0.53240(15) 0.18202(4) 0.08944(4) 0.0144 Uiso
C2 C 0.59989(15) 0.18927(8) 0.13274(8) 0.0252 Uiso
C3 C 0.49353(15) 0.12117(5) 0.12117(5) 0.0391 Uiso
Zn1 Zn 0.50000 0.25000 0.00000 0.0117 Uiso
C1H C 0.58410(17) 0.09210(13) -0.09210(13) 0.0291 Uiso
N1M N 0.53240(15) 0.08944(4) 0.18202(4) 0.0144 Uiso
N1H N 0.46760(15) 0.18202(4) -0.08944(4) 0.0144 Uiso
N1K N 0.46760(15) 0.08944(4) -0.18202(4) 0.0144 Uiso
N1OA N 0.58944(4) 0.31798(4) -0.03240(15) 0.0144 Uiso
N1PA N 0.41056(4) 0.31798(4) 0.03240(15) 0.0144 Uiso
C2M C 0.59989(15) 0.13274(8) 0.18927(8) 0.0252 Uiso
C2H C 0.40011(15) 0.18927(8) -0.13274(8) 0.0252 Uiso
C2K C 0.40011(15) 0.13274(8) -0.18927(8) 0.0252 Uiso
C3H C 0.50647(15) 0.12117(5) -0.12117(5) 0.0391 Uiso
Zn1M Zn 0.50000 0.00000 0.25000 0.0117 Uiso
Zn1F Zn 0.50000 0.00000 -0.25000 0.0117 Uiso
loop_
_geom_bond_atom_site_label_1
_geom_bond_atom_site_label_2
_geom_bond_site_symmetry_1
_geom_bond_site_symmetry_2
C1 C3 1_555 1_555
N1 C2 1_555 1_555
C2 C2M 1_555 1_555
C3 N1 1_555 1_555
Zn1 N1 1_555 1_555
C1H C3H 1_555 1_555
N1M C3 1_555 1_555
N1H Zn1 1_555 1_555
N1K C2K 1_555 1_555
N1OA Zn1 1_555 1_555
N1PA Zn1 1_555 1_555
C2M N1M 1_555 1_555
C2H N1H 1_555 1_555
C2K C2H 1_555 1_555
C3H N1H 1_555 1_555
Zn1M N1M 1_555 1_555
Zn1F N1K 1_555 1_555
N1K C3H 1_555 1_555

#END
