
#######################################################################
#
#                 Cambridge Crystallographic Data Centre
#                                CCDC 
#
#######################################################################
#
# If this CIF has been generated from an entry in the Cambridge 
# Structural Database, then it will include bibliographic, chemical, 
# crystal, experimental, refinement or atomic coordinate data resulting 
# from the CCDC's data processing and validation procedures.
#
#######################################################################

data_PEMRIK
_chemical_name_common            MTAF-3
_chemical_formula_moiety         
'(C28 H17 N5 O8 Zn2)n,n(C5 H11 N1 O1),0.5n(H2 O1)'
_chemical_name_systematic        
"catena-(bis(\m~4~-terephthalato)-(\m~2~-4,4'-(2H-1,2,3-triazole-2,4-diyl)dipyridine)-di-zinc N,N-diethylformamide unknown solvate hemihydrate)"
_symmetry_cell_setting           monoclinic
_symmetry_space_group_name_H-M   'C 2/c'
_symmetry_Int_Tables_number      15
_space_group_name_Hall           '-C 2yc'
loop_
_symmetry_equiv_pos_site_id
_symmetry_equiv_pos_as_xyz
1 x,y,z
2 -x,y,1/2-z
3 1/2+x,1/2+y,z
4 1/2-x,1/2+y,1/2-z
5 -x,-y,-z
6 x,-y,1/2+z
7 1/2-x,1/2-y,-z
8 1/2+x,1/2-y,1/2+z
_cell_length_a                   34.6925(7)
_cell_length_b                   16.6027(4)
_cell_length_c                   13.7633(3)
_cell_angle_alpha                90
_cell_angle_beta                 105.3030(10)
_cell_angle_gamma                90
_cell_volume                     7646.43
_exptl_crystal_colour            green
_exptl_crystal_description       polyhedron
_cell_formula_units_Z            8
loop_
_atom_site_label
_atom_site_type_symbol
_atom_site_fract_x
_atom_site_fract_y
_atom_site_fract_z
Zn1 Zn 1.174439(9) 0.254488(17) 1.24412(2)
Zn2 Zn 1.086229(9) 0.244780(17) 1.18370(2)
O1 O 1.17212(6) -0.15284(11) 0.82397(16)
O2 O 1.10560(6) -0.14783(11) 0.77419(17)
O3 O 1.10388(6) 0.18245(13) 1.07413(16)
O4 O 1.17021(6) 0.18601(12) 1.12033(15)
O5 O 1.08784(6) 0.65265(12) 1.60350(16)
O6 O 1.15427(6) 0.64802(11) 1.65478(15)
O7 O 1.09062(6) 0.31724(12) 1.30392(15)
O8 O 1.15731(6) 0.31624(12) 1.35601(15)
N1 N 1.02780(6) 0.21086(13) 1.13028(17)
N2 N 0.73381(6) 0.21876(13) 0.78574(16)
C1 C 1.13886(9) -0.12152(15) 0.8214(2)
C2 C 1.13750(8) 0.15918(15) 1.06870(19)
C3 C 1.13840(8) 0.09167(15) 0.9969(2)
C4 C 1.10284(9) 0.05785(18) 0.9405(2)
H1 H 1.0783 0.0813 0.9420
C5 C 1.10320(8) -0.00946(18) 0.8826(2)
H2 H 1.0790 -0.0314 0.8441
C6 C 1.13922(8) -0.04534(15) 0.88065(19)
C7 C 1.17457(8) -0.01025(17) 0.9338(2)
H3 H 1.1991 -0.0331 0.9312
C8 C 1.17421(8) 0.05835(16) 0.9908(2)
H4 H 1.1985 0.0824 1.0257
C9 C 1.12108(8) 0.62177(15) 1.6062(2)
C10 C 1.12115(8) 0.54670(16) 1.54554(19)
C11 C 1.08554(8) 0.51260(17) 1.4887(2)
H5 H 1.0610 0.5355 1.4906
C12 C 1.15722(8) 0.51074(17) 1.5444(2)
H6 H 1.1814 0.5325 1.5836
C13 C 1.12341(8) 0.34194(15) 1.35767(19)
C14 C 1.12235(8) 0.41039(15) 1.4277(2)
C15 C 1.15777(8) 0.44321(16) 1.4861(2)
H7 H 1.1823 0.4193 1.4860
C16 C 1.08615(8) 0.44576(16) 1.4302(2)
H8 H 1.0620 0.4237 1.3915
C17 C 1.02022(9) 0.13531(18) 1.1010(3)
H9 H 1.0408 0.0971 1.1206
C18 C 0.98354(9) 0.11003(19) 1.0432(3)
H10 H 0.9794 0.0560 1.0227
C19 C 0.95301(7) 0.16545(17) 1.0160(2)
C20 C 0.96012(9) 0.24283(19) 1.0507(3)
H11 H 0.9397 0.2816 1.0359
C21 C 0.99771(8) 0.26253(18) 1.1074(3)
H12 H 1.0024 0.3156 1.1314
N3 N 0.91547(7) 0.14262(14) 0.9524(2)
N4 N 0.88221(6) 0.18569(14) 0.94531(18)
C22 C 0.85457(7) 0.14615(17) 0.8766(2)
C23 C 0.87152(10) 0.0798(2) 0.8434(3)
H13 H 0.8581 0.0429 0.7944
N5 N 0.91045(8) 0.07688(19) 0.8930(3)
C24 C 0.81317(7) 0.17221(17) 0.8455(2)
C25 C 0.79719(8) 0.22015(18) 0.9072(2)
H14 H 0.8130 0.2372 0.9704
C26 C 0.75757(8) 0.24241(17) 0.8740(2)
H15 H 0.7468 0.2758 0.9155
C27 C 0.74958(8) 0.1744(2) 0.7250(2)
H16 H 0.7333 0.1591 0.6616
C28 C 0.78913(8) 0.1501(2) 0.7523(2)
H17 H 0.7995 0.1190 0.7080
Zn1E Zn 1.174439(9) -0.254488(17) 0.74412(2)
Zn1E_2 Zn 1.174439(9) 0.745512(17) 1.74412(2)
Zn1G Zn 0.674439(9) 0.245512(17) 0.74412(2)
Zn2E Zn 1.086229(9) -0.244780(17) 0.68370(2)
Zn2E_2 Zn 1.086229(9) 0.755220(17) 1.68370(2)
O1E O 1.17212(6) 0.15284(11) 1.32397(16)
O2E O 1.10560(6) 0.14783(11) 1.27419(17)
O5E O 1.08784(6) 0.34735(12) 1.10350(16)
O6E O 1.15427(6) 0.35198(11) 1.15478(15)
N2G N 1.23381(6) 0.28124(13) 1.28574(16)
O9 O 0.73587(11) 0.1222(4) 0.4990(3)
C29 C 0.70660(17) 0.1469(5) 0.4332(5)
H18 H 0.6929 0.1924 0.4477
N6 N 0.69332(13) 0.1125(3) 0.3421(3)
C30 C 0.65829(19) 0.1433(4) 0.2695(5)
H19 H 0.6638 0.1462 0.2033
H20 H 0.6530 0.1981 0.2889
C31 C 0.62226(18) 0.0933(5) 0.2614(5)
H21 H 0.6276 0.0385 0.2445
H22 H 0.6002 0.1150 0.2092
H23 H 0.6153 0.0938 0.3252
C32 C 0.74183(16) 0.0621(3) 0.2517(4)
H24 H 0.7266 0.0869 0.1896
H25 H 0.7552 0.0145 0.2362
H26 H 0.7616 0.1001 0.2887
C33 C 0.71416(15) 0.0389(3) 0.3145(4)
H27 H 0.7294 0.0121 0.3761
H28 H 0.6941 0.0008 0.2769
O10 O 1.0202(3) 0.4583(7) 1.1684(10)
loop_
_geom_bond_atom_site_label_1
_geom_bond_atom_site_label_2
_geom_bond_site_symmetry_1
_geom_bond_site_symmetry_2
Zn1 O4 1_555 1_555
Zn2 O3 1_555 1_555
O1 C1 1_555 1_555
O2 C1 1_555 1_555
O3 C2 1_555 1_555
O4 C2 1_555 1_555
O5 C9 1_555 1_555
O6 C9 1_555 1_555
O7 Zn2 1_555 1_555
O8 Zn1 1_555 1_555
N1 Zn2 1_555 1_555
N2 C26 1_555 1_555
C1 C6 1_555 1_555
C2 C3 1_555 1_555
C3 C4 1_555 1_555
C4 H1 1_555 1_555
C5 C4 1_555 1_555
H2 C5 1_555 1_555
C6 C5 1_555 1_555
C7 C6 1_555 1_555
H3 C7 1_555 1_555
C8 C3 1_555 1_555
H4 C8 1_555 1_555
C9 C10 1_555 1_555
C10 C11 1_555 1_555
C11 H5 1_555 1_555
C12 C10 1_555 1_555
H6 C12 1_555 1_555
C13 O7 1_555 1_555
C14 C13 1_555 1_555
C15 C12 1_555 1_555
H7 C15 1_555 1_555
C16 C11 1_555 1_555
H8 C16 1_555 1_555
C17 N1 1_555 1_555
H9 C17 1_555 1_555
C18 C17 1_555 1_555
H10 C18 1_555 1_555
C19 C18 1_555 1_555
C20 C19 1_555 1_555
H11 C20 1_555 1_555
C21 N1 1_555 1_555
H12 C21 1_555 1_555
N3 C19 1_555 1_555
N4 N3 1_555 1_555
C22 N4 1_555 1_555
C23 C22 1_555 1_555
H13 C23 1_555 1_555
N5 N3 1_555 1_555
C24 C22 1_555 1_555
C25 C24 1_555 1_555
H14 C25 1_555 1_555
C26 C25 1_555 1_555
H15 C26 1_555 1_555
C27 N2 1_555 1_555
H16 C27 1_555 1_555
C28 C24 1_555 1_555
H17 C28 1_555 1_555
O9 C29 1_555 1_555
C29 H18 1_555 1_555
N6 C29 1_555 1_555
C30 N6 1_555 1_555
H19 C30 1_555 1_555
H20 C30 1_555 1_555
C31 C30 1_555 1_555
H21 C31 1_555 1_555
H22 C31 1_555 1_555
H23 C31 1_555 1_555
C32 H24 1_555 1_555
H25 C32 1_555 1_555
H26 C32 1_555 1_555
C33 N6 1_555 1_555
H27 C33 1_555 1_555
H28 C33 1_555 1_555
Zn1E O1 1_555 1_555
Zn1E_2 O6 1_555 1_555
Zn1G N2 1_555 1_555
Zn2E O2 1_555 1_555
Zn2E_2 O5 1_555 1_555
O1E Zn1 1_555 1_555
O2E Zn2 1_555 1_555
O5E Zn2 1_555 1_555
O6E Zn1 1_555 1_555
N2G Zn1 1_555 1_555
O8 C13 1_555 1_555
C7 C8 1_555 1_555
C14 C15 1_555 1_555
C14 C16 1_555 1_555
C20 C21 1_555 1_555
C23 N5 1_555 1_555
C27 C28 1_555 1_555
C32 C33 1_555 1_555

#END
