
#######################################################################
#
#                 Cambridge Crystallographic Data Centre
#                                CCDC 
#
#######################################################################
#
# If this CIF has been generated from an entry in the Cambridge 
# Structural Database, then it will include bibliographic, chemical, 
# crystal, experimental, refinement or atomic coordinate data resulting 
# from the CCDC's data processing and validation procedures.
#
#######################################################################

data_RAYKEJ
_chemical_formula_moiety         '(C32 H22 N4 O6 Zn1)n'
_chemical_name_systematic        
catena-[(\m~2~-N,N'-Di(pyridin-4-yl)biphenyl-4,4'-dicarboxamido)-(\m~2~-isophthalato)-zinc]
_symmetry_cell_setting           hexagonal
_symmetry_space_group_name_H-M   'P 64 2 2'
_symmetry_Int_Tables_number      181
_space_group_name_Hall           'P 64 2 (0 0 2)'
loop_
_symmetry_equiv_pos_site_id
_symmetry_equiv_pos_as_xyz
1 x,y,z
2 -y,x-y,1/3+z
3 -x+y,-x,2/3+z
4 -x,-y,z
5 y,-x+y,1/3+z
6 x-y,x,2/3+z
7 y,x,1/3-z
8 x-y,-y,-z
9 -x,-x+y,2/3-z
10 -y,-x,1/3-z
11 -x+y,y,-z
12 x,x-y,2/3-z
_cell_length_a                   16.5528(2)
_cell_length_b                   16.5528(2)
_cell_length_c                   25.5559(8)
_cell_angle_alpha                90
_cell_angle_beta                 90
_cell_angle_gamma                120
_cell_volume                     6064.08
_exptl_crystal_colour            colorless
_exptl_crystal_description       block
_cell_formula_units_Z            6
loop_
_atom_site_label
_atom_site_type_symbol
_atom_site_fract_x
_atom_site_fract_y
_atom_site_fract_z
_atom_site_U_iso_or_equiv
_atom_site_thermal_displace_type
Zn1 Zn 0.714742(14) 0.285259(14) 0.1667 0.0358 Uani
O1 O 0.70854(13) 0.32692(12) 0.09491(7) 0.0514 Uani
O2 O 0.76452(14) 0.45786(15) 0.13801(8) 0.0651 Uani
C1 C 0.73955(18) 0.41345(19) 0.09639(10) 0.0444 Uani
C2 C 0.74690(18) 0.46322(17) 0.04607(10) 0.0443 Uani
C3 C 0.70774(11) 0.4155(2) 0.0000 0.0409 Uani
H1 H 0.6753 0.3506 0.0000 0.0490 Uiso
C4 C 0.7943(3) 0.5592(2) 0.04587(14) 0.0792 Uani
H2 H 0.8201 0.5919 0.0767 0.0950 Uiso
C5 C 0.80348(16) 0.6070(3) 0.0000 0.1047 Uani
H3 H 0.8359 0.6718 0.0000 0.1250 Uiso
O3 O 0.5972(3) -0.12027(17) 0.02176(9) 0.1396 Uani
N1 N 0.66358(14) 0.14701(13) 0.14816(8) 0.0408 Uani
N2 N 0.56525(17) -0.13183(14) 0.10757(8) 0.0505 Uani
H4 H 0.5402 -0.1709 0.1329 0.0610 Uiso
C6 C 0.6541(2) 0.1209(2) 0.09865(11) 0.0635 Uani
H5 H 0.6694 0.1663 0.0731 0.0760 Uiso
C7 C 0.6231(3) 0.0313(2) 0.08261(11) 0.0704 Uani
H6 H 0.6200 0.0178 0.0471 0.0850 Uiso
C8 C 0.59617(19) -0.03956(17) 0.11924(10) 0.0433 Uani
C9 C 0.6025(2) -0.01316(19) 0.17047(11) 0.0584 Uani
H7 H 0.5834 -0.0578 0.1968 0.0700 Uiso
C10 C 0.6373(3) 0.0798(2) 0.18327(11) 0.0670 Uani
H8 H 0.6424 0.0957 0.2185 0.0800 Uiso
C11 C 0.5697(3) -0.16811(19) 0.06091(11) 0.0647 Uani
C12 C 0.5424(2) -0.26831(19) 0.05912(11) 0.0511 Uani
C13 C 0.5567(4) -0.3033(3) 0.01492(15) 0.1234 Uani
H9 H 0.5766 -0.2658 -0.0148 0.1480 Uiso
C14 C 0.5428(4) -0.3935(2) 0.01180(15) 0.1082 Uani
H10 H 0.5571 -0.4139 -0.0189 0.1290 Uiso
C15 C 0.5081(2) -0.45151(18) 0.05386(11) 0.0516 Uani
C16 C 0.4807(3) -0.4210(2) 0.09468(14) 0.0830 Uani
H11 H 0.4490 -0.4621 0.1219 0.0990 Uiso
C17 C 0.4983(3) -0.3288(2) 0.09796(14) 0.0742 Uani
H12 H 0.4792 -0.3097 0.1274 0.0890 Uiso
Zn1J Zn 0.570517(20) 0.285259(14) -0.1667 0.0358 Uani
Zn1C Zn 0.285258(14) -1.285259(14) 0.1667 0.0358 Uani
O1J O 0.61838(18) 0.32692(12) -0.09491(7) 0.0514 Uani
O1I O 0.67308(12) 0.29146(13) 0.23842(7) 0.0514 Uani
O2J O 0.69334(21) 0.45786(15) -0.13801(8) 0.0651 Uani
C1J C 0.67390(26) 0.41345(19) -0.09639(10) 0.0444 Uani
C2J C 0.71632(25) 0.46322(17) -0.04607(10) 0.0443 Uani
C4J C 0.7649(4) 0.5592(2) -0.04587(14) 0.0792 Uani
H2J H 0.7718 0.5919 -0.0767 0.0950 Uiso
O3C O 0.4028(3) -0.87973(17) 0.02176(9) 0.1396 Uani
N1C N 0.33642(14) -1.14701(13) 0.14816(8) 0.0408 Uani
N1I N 0.85299(13) 0.33642(14) 0.18517(8) 0.0408 Uani
N2C N 0.43475(17) -0.86817(14) 0.10757(8) 0.0505 Uani
H4C H 0.4598 -0.8291 0.1329 0.0610 Uiso
C6C C 0.3459(2) -1.1209(2) 0.09865(11) 0.0635 Uani
H5C H 0.3306 -1.1663 0.0731 0.0760 Uiso
C7C C 0.3769(3) -1.0313(2) 0.08261(11) 0.0704 Uani
H6C H 0.3800 -1.0178 0.0471 0.0850 Uiso
C8C C 0.40383(19) -0.96044(17) 0.11924(10) 0.0433 Uani
C9C C 0.3975(2) -0.98684(19) 0.17047(11) 0.0584 Uani
H7C H 0.4166 -0.9422 0.1968 0.0700 Uiso
C10C C 0.3627(3) -1.0798(2) 0.18327(11) 0.0670 Uani
H8C H 0.3576 -1.0957 0.2185 0.0800 Uiso
C11C C 0.4303(3) -0.83189(19) 0.06091(11) 0.0647 Uani
C12C C 0.4576(2) -0.73169(19) 0.05912(11) 0.0511 Uani
C13C C 0.4433(4) -0.6967(3) 0.01492(15) 0.1234 Uani
H9C H 0.4234 -0.7342 -0.0148 0.1480 Uiso
C14C C 0.4572(4) -0.6065(2) 0.01180(15) 0.1082 Uani
H10C H 0.4429 -0.5861 -0.0189 0.1290 Uiso
C15C C 0.4919(2) -0.54849(18) 0.05386(11) 0.0516 Uani
C16C C 0.5193(3) -0.5790(2) 0.09468(14) 0.0830 Uani
H11C H 0.5510 -0.5379 0.1219 0.0990 Uiso
C17C C 0.5017(3) -0.6712(2) 0.09796(14) 0.0742 Uani
H12C H 0.5208 -0.6903 0.1274 0.0890 Uiso
loop_
_atom_site_aniso_label
_atom_site_aniso_U_11
_atom_site_aniso_U_22
_atom_site_aniso_U_33
_atom_site_aniso_U_23
_atom_site_aniso_U_13
_atom_site_aniso_U_12
Zn1 0.03822(11) 0.03822(11) 0.02760(17) -0.00215(15) -0.00215(15) 0.01666(15)
O1 0.0664(10) 0.0483(10) 0.0331(9) 0.0056(8) -0.0075(8) 0.0238(8)
O2 0.0733(11) 0.0842(13) 0.0401(11) -0.0208(10) -0.0193(9) 0.0412(10)
C1 0.0449(12) 0.0522(14) 0.0353(13) -0.0086(11) -0.0095(11) 0.0237(11)
C2 0.0516(13) 0.0406(12) 0.0424(14) -0.0064(10) -0.0151(12) 0.0243(10)
C3 0.0460(14) 0.0289(17) 0.0423(18) 0.000 -0.0103(16) 0.0145(9)
C4 0.107(3) 0.0400(15) 0.072(2) -0.0144(15) -0.048(2) 0.0227(17)
C5 0.143(4) 0.029(2) 0.104(4) 0.000 -0.057(4) 0.0145(11)
O3 0.318(4) 0.0593(13) 0.0430(12) 0.0148(11) 0.0389(19) 0.0955(18)
N1 0.0506(12) 0.0328(10) 0.0352(11) 0.0004(8) 0.0018(9) 0.0179(9)
N2 0.0765(14) 0.0361(11) 0.0383(12) 0.0101(9) 0.0160(11) 0.0278(10)
C6 0.111(2) 0.0422(14) 0.0291(14) 0.0072(11) 0.0141(15) 0.0322(15)
C7 0.132(3) 0.0432(15) 0.0317(15) 0.0015(12) 0.0076(16) 0.0405(16)
C8 0.0571(14) 0.0325(12) 0.0395(14) 0.0059(11) 0.0114(12) 0.0218(10)
C9 0.0924(18) 0.0406(13) 0.0387(14) 0.0084(13) 0.0088(15) 0.0306(13)
C10 0.112(2) 0.0531(16) 0.0327(14) 0.0017(12) 0.0082(15) 0.0389(16)
C11 0.114(2) 0.0399(14) 0.0405(16) 0.0079(12) 0.0151(17) 0.0388(15)
C12 0.0749(17) 0.0415(13) 0.0402(15) 0.0029(12) 0.0089(14) 0.0316(12)
C13 0.258(5) 0.061(2) 0.057(2) 0.0010(17) 0.014(3) 0.084(3)
C14 0.210(4) 0.0576(18) 0.065(2) 0.0001(17) 0.023(3) 0.073(2)
C15 0.0686(16) 0.0411(13) 0.0499(16) 0.0006(12) 0.0049(14) 0.0311(12)
C16 0.132(3) 0.0512(17) 0.069(2) 0.0157(16) 0.030(2) 0.0481(18)
C17 0.107(2) 0.0471(16) 0.073(2) 0.0077(16) 0.030(2) 0.0420(16)
Zn1J 0.04312 0.03822 0.0276 0.00215 0 0.02156
Zn1C 0.03822 0.03822 0.0276 0.00215 0.00215 0.01666
O1J 0.0671 0.0483 0.0331 -0.0056 -0.0131 0.0245
O1I 0.0483 0.0664 0.0331 -0.0075 0.0056 0.0238
O2J 0.0751 0.0842 0.0401 0.0208 0.0015 0.043
C1J 0.0497 0.0522 0.0353 0.0086 -0.0009 0.0285
C2J 0.0436 0.0406 0.0424 0.0064 -0.0087 0.0163
C4J 0.1016 0.04 0.072 0.0144 -0.0336 0.0173
O3C 0.318 0.0593 0.043 -0.0148 -0.0389 0.0955
N1C 0.0506 0.0328 0.0352 -0.0004 -0.0018 0.0179
N1I 0.0328 0.0506 0.0352 0.0018 0.0004 0.0179
N2C 0.0765 0.0361 0.0383 -0.0101 -0.016 0.0278
C6C 0.111 0.0422 0.0291 -0.0072 -0.0141 0.0322
C7C 0.132 0.0432 0.0317 -0.0015 -0.0076 0.0405
C8C 0.0571 0.0325 0.0395 -0.0059 -0.0114 0.0218
C9C 0.0924 0.0406 0.0387 -0.0084 -0.0088 0.0306
C10C 0.112 0.0531 0.0327 -0.0017 -0.0082 0.0389
C11C 0.114 0.0399 0.0405 -0.0079 -0.0151 0.0388
C12C 0.0749 0.0415 0.0402 -0.0029 -0.0089 0.0316
C13C 0.258 0.061 0.057 -0.001 -0.014 0.084
C14C 0.21 0.0576 0.065 -0.0001 -0.023 0.073
C15C 0.0686 0.0411 0.0499 -0.0006 -0.0049 0.0311
C16C 0.132 0.0512 0.069 -0.0157 -0.03 0.0481
C17C 0.107 0.0471 0.073 -0.0077 -0.03 0.042
loop_
_geom_bond_atom_site_label_1
_geom_bond_atom_site_label_2
_geom_bond_site_symmetry_1
_geom_bond_site_symmetry_2
Zn1 O1 1_555 1_555
O1 C1 1_555 1_555
O2 C1 1_555 1_555
C1 C2 1_555 1_555
C2 C3 1_555 1_555
C3 H1 1_555 1_555
C4 C2 1_555 1_555
H2 C4 1_555 1_555
C5 C4 1_555 1_555
H3 C5 1_555 1_555
O3 C11 1_555 1_555
N1 Zn1 1_555 1_555
N2 H4 1_555 1_555
C6 N1 1_555 1_555
H5 C6 1_555 1_555
C7 C6 1_555 1_555
H6 C7 1_555 1_555
C8 N2 1_555 1_555
C9 C8 1_555 1_555
H7 C9 1_555 1_555
C10 N1 1_555 1_555
H8 C10 1_555 1_555
C11 N2 1_555 1_555
C12 C11 1_555 1_555
C13 C12 1_555 1_555
H9 C13 1_555 1_555
C14 C13 1_555 1_555
H10 C14 1_555 1_555
C15 C14 1_555 1_555
C16 C15 1_555 1_555
H11 C16 1_555 1_555
C17 C12 1_555 1_555
H12 C17 1_555 1_555
Zn1J O1J 1_555 1_555
Zn1C N1C 1_555 1_555
O1J C1J 1_555 1_555
O1I Zn1 1_555 1_555
O2J C1J 1_555 1_555
C1J C2J 1_555 1_555
C2J C3 1_555 1_555
C4J C5 1_555 1_555
H2J C4J 1_555 1_555
O3C C11C 1_555 1_555
N1C C6C 1_555 1_555
N1I Zn1 1_555 1_555
N2C H4C 1_555 1_555
C6C H5C 1_555 1_555
C7C C6C 1_555 1_555
H6C C7C 1_555 1_555
C8C N2C 1_555 1_555
C9C C8C 1_555 1_555
H7C C9C 1_555 1_555
C10C N1C 1_555 1_555
H8C C10C 1_555 1_555
C11C N2C 1_555 1_555
C12C C11C 1_555 1_555
C13C C12C 1_555 1_555
H9C C13C 1_555 1_555
C14C C13C 1_555 1_555
H10C C14C 1_555 1_555
C15C C15 1_555 1_555
C16C C15C 1_555 1_555
H11C C16C 1_555 1_555
C17C C12C 1_555 1_555
H12C C17C 1_555 1_555
C7 C8 1_555 1_555
C9 C10 1_555 1_555
C16 C17 1_555 1_555
C2J C4J 1_555 1_555
C7C C8C 1_555 1_555
C9C C10C 1_555 1_555
C14C C15C 1_555 1_555
C16C C17C 1_555 1_555

#END
