
#######################################################################
#
#                 Cambridge Crystallographic Data Centre
#                                CCDC 
#
#######################################################################
#
# If this CIF has been generated from an entry in the Cambridge 
# Structural Database, then it will include bibliographic, chemical, 
# crystal, experimental, refinement or atomic coordinate data resulting 
# from the CCDC's data processing and validation procedures.
#
#######################################################################

data_QEDZEG
_chemical_formula_moiety         '(C34 H18 O8 Zn2)n,3n(H2 O1)'
_chemical_name_systematic        
'catena-((\m~8~-Benzene-1,2,4,5-tetrakis(benzoato))-di-zinc trihydrate)'
_symmetry_cell_setting           monoclinic
_symmetry_space_group_name_H-M   'C 2/c'
_symmetry_Int_Tables_number      15
_space_group_name_Hall           '-C 2yc'
loop_
_symmetry_equiv_pos_site_id
_symmetry_equiv_pos_as_xyz
1 x,y,z
2 1/2+x,1/2+y,z
3 -x,y,1/2-z
4 1/2-x,1/2+y,1/2-z
5 -x,-y,-z
6 1/2-x,1/2-y,-z
7 x,-y,1/2+z
8 1/2+x,1/2-y,1/2+z
_cell_length_a                   31.97(4)
_cell_length_b                   6.334(9)
_cell_length_c                   20.49(3)
_cell_angle_alpha                90
_cell_angle_beta                 120.078(13)
_cell_angle_gamma                90
_cell_volume                     3590.47
_exptl_crystal_colour            colorless
_exptl_crystal_description       prism
_cell_formula_units_Z            4
loop_
_atom_site_label
_atom_site_type_symbol
_atom_site_fract_x
_atom_site_fract_y
_atom_site_fract_z
_atom_site_U_iso_or_equiv
_atom_site_thermal_displace_type
Zn1 Zn -0.02347(5) 0.2488(3) -0.01248(9) 0.0561 Uani
O1 O 0.0220(3) 0.2817(14) 0.0926(5) 0.0520 Uani
O2 O 0.0183(3) 0.8033(17) 0.4462(5) 0.0561 Uani
O3 O 0.0667(4) 0.5489(15) 0.0837(6) 0.0679 Uani
O4 O 0.0703(3) 1.0568(15) 0.5143(5) 0.0654 Uani
C1 C 0.1316(5) 0.519(2) 0.2385(9) 0.0660 Uani
H1 H 0.1302 0.6465 0.2130 0.0800 Uiso
C2 C 0.1662(5) 0.499(3) 0.3115(8) 0.0796 Uani
H2 H 0.1874 0.6137 0.3369 0.0960 Uiso
C3 C 0.1377(6) 0.143(3) 0.3082(10) 0.0818 Uani
H3 H 0.1395 0.0096 0.3306 0.0980 Uiso
C4 C 0.1010(6) 0.178(3) 0.2320(9) 0.0784 Uani
H4 H 0.0786 0.0688 0.2047 0.0930 Uiso
C5 C 0.2089(5) 0.272(2) 0.4258(8) 0.0527 Uani
C6 C 0.0879(6) 0.564(3) 0.4385(9) 0.0735 Uani
H5 H 0.0563 0.5054 0.4148 0.0890 Uiso
C7 C 0.0595(5) 0.401(2) 0.1195(9) 0.0640 Uani
C8 C 0.0979(5) 0.363(3) 0.1987(8) 0.0672 Uani
C9 C 0.0604(5) 0.887(2) 0.4773(7) 0.0557 Uani
C10 C 0.1708(4) 0.527(3) 0.4778(7) 0.0581 Uani
C11 C 0.1263(5) 0.460(2) 0.4441(8) 0.0628 Uani
H6 H 0.1203 0.3241 0.4213 0.0750 Uiso
C12 C 0.0984(5) 0.768(3) 0.4709(9) 0.0754 Uani
C13 C 0.1711(4) 0.301(3) 0.3513(8) 0.0697 Uani
C14 C 0.2468(6) 0.139(3) 0.4409(8) 0.0748 Uani
H7 H 0.2458 0.0636 0.4002 0.0890 Uiso
C15 C 0.2134(5) 0.390(2) 0.4868(7) 0.0560 Uani
C16 C 0.1450(5) 0.853(3) 0.5063(8) 0.0644 Uani
H8 H 0.1509 0.9914 0.5272 0.0770 Uiso
C17 C 0.1807(5) 0.738(2) 0.5102(8) 0.0594 Uani
H9 H 0.2127 0.7921 0.5342 0.0710 Uiso
Zn1E Zn 0.52347(5) 0.2512(3) 1.01248(9) 0.0561 Uani
Zn1F Zn -0.02347(5) 0.7512(3) 0.48752(9) 0.0561 Uani
Zn1D Zn 0.02347(5) 0.7512(3) 0.01248(9) 0.0561 Uani
Zn1B Zn 0.02347(5) 1.2488(3) 0.51248(9) 0.0561 Uani
Zn1A Zn 0.47653(5) -0.2512(3) 0.98752(9) 0.0561 Uani
Zn1C Zn 0.52347(5) -0.2512(3) 0.51248(9) 0.0561 Uani
Zn1G Zn 0.47653(5) -0.7488(3) 0.48752(9) 0.0561 Uani
O1E O 0.4780(3) 0.2183(14) 0.9074(5) 0.0520 Uani
O2E O 0.4817(3) -0.3033(17) 0.5538(5) 0.0561 Uani
O2F O 0.0183(3) 0.1967(17) -0.0538(5) 0.0561 Uani
O2C O 0.4817(3) 0.3033(17) 1.0538(5) 0.0561 Uani
O3E O 0.4333(4) -0.0489(15) 0.9163(6) 0.0679 Uani
O3D O -0.0667(4) 0.4511(15) -0.0837(6) 0.0679 Uani
O3A O 0.5667(4) 0.0489(15) 1.0837(6) 0.0679 Uani
O4E O 0.4297(3) -0.5568(15) 0.4857(5) 0.0654 Uani
O4B O -0.0703(3) 0.0568(15) -0.0143(5) 0.0654 Uani
O4G O 0.5703(3) 0.4432(15) 1.0143(5) 0.0654 Uani
C1E C 0.3684(5) -0.019(2) 0.7615(9) 0.0660 Uani
H1E H 0.3698 -0.1465 0.7870 0.0800 Uiso
C2E C 0.3338(5) 0.001(3) 0.6885(8) 0.0796 Uani
H2E H 0.3126 -0.1137 0.6631 0.0960 Uiso
C3E C 0.3623(6) 0.357(3) 0.6918(10) 0.0818 Uani
H3E H 0.3605 0.4904 0.6694 0.0980 Uiso
C4E C 0.3990(6) 0.322(3) 0.7680(9) 0.0784 Uani
H4E H 0.4214 0.4312 0.7953 0.0930 Uiso
C5E C 0.2911(5) 0.228(2) 0.5742(8) 0.0527 Uani
C6E C 0.4121(6) -0.064(3) 0.5615(9) 0.0735 Uani
H5E H 0.4437 -0.0054 0.5852 0.0890 Uiso
C7E C 0.4405(5) 0.099(2) 0.8805(9) 0.0640 Uani
C8E C 0.4021(5) 0.137(3) 0.8013(8) 0.0672 Uani
C9E C 0.4396(5) -0.387(2) 0.5227(7) 0.0557 Uani
C10E C 0.3292(4) -0.027(3) 0.5222(7) 0.0581 Uani
C11E C 0.3737(5) 0.040(2) 0.5559(8) 0.0628 Uani
H6E H 0.3797 0.1759 0.5787 0.0750 Uiso
C12E C 0.4016(5) -0.268(3) 0.5291(9) 0.0754 Uani
C13E C 0.3289(4) 0.199(3) 0.6487(8) 0.0697 Uani
C14E C 0.2532(6) 0.361(3) 0.5591(8) 0.0748 Uani
H7E H 0.2542 0.4364 0.5998 0.0890 Uiso
C15E C 0.2866(5) 0.110(2) 0.5132(7) 0.0560 Uani
C16E C 0.3550(5) -0.353(3) 0.4937(8) 0.0644 Uani
H8E H 0.3491 -0.4914 0.4728 0.0770 Uiso
C17E C 0.3193(5) -0.238(2) 0.4898(8) 0.0594 Uani
H9E H 0.2873 -0.2921 0.4658 0.0710 Uiso
loop_
_atom_site_aniso_label
_atom_site_aniso_U_11
_atom_site_aniso_U_22
_atom_site_aniso_U_33
_atom_site_aniso_U_23
_atom_site_aniso_U_13
_atom_site_aniso_U_12
Zn1 0.0457(11) 0.0624(12) 0.0536(11) 0.0048(7) 0.0200(8) -0.0045(7)
O1 0.034(4) 0.076(6) 0.036(4) 0.009(4) 0.010(4) -0.006(4)
O2 0.023(4) 0.107(7) 0.037(4) -0.026(5) 0.014(4) -0.003(4)
O3 0.066(6) 0.061(6) 0.070(6) 0.006(5) 0.029(5) -0.002(5)
O4 0.061(6) 0.068(6) 0.065(6) -0.018(5) 0.030(5) 0.007(5)
C1 0.056(9) 0.050(8) 0.084(10) 0.023(8) 0.029(8) 0.007(7)
C2 0.048(8) 0.104(13) 0.054(9) 0.012(9) 0.001(7) 0.021(9)
C3 0.086(12) 0.068(10) 0.093(12) -0.001(10) 0.046(11) 0.016(9)
C4 0.090(12) 0.067(9) 0.062(9) 0.026(8) 0.026(9) 0.037(9)
C5 0.051(7) 0.054(8) 0.057(8) -0.011(6) 0.030(7) 0.009(6)
C6 0.067(10) 0.067(10) 0.084(11) -0.022(8) 0.036(9) -0.005(8)
C7 0.065(9) 0.052(8) 0.092(11) 0.001(8) 0.052(9) 0.004(7)
C8 0.047(8) 0.076(10) 0.061(9) -0.005(8) 0.014(7) 0.005(8)
C9 0.054(8) 0.063(9) 0.042(7) -0.018(6) 0.018(6) 0.015(7)
C10 0.037(7) 0.093(11) 0.040(7) -0.018(7) 0.016(6) 0.009(7)
C11 0.045(8) 0.071(10) 0.070(9) -0.001(8) 0.027(7) 0.014(7)
C12 0.035(7) 0.130(16) 0.054(8) 0.009(9) 0.017(7) 0.029(8)
C13 0.030(7) 0.109(13) 0.046(8) -0.010(8) 0.001(6) 0.017(7)
C14 0.076(10) 0.083(11) 0.047(8) 0.001(8) 0.017(8) 0.029(9)
C15 0.052(7) 0.068(9) 0.045(7) -0.017(6) 0.022(6) 0.010(7)
C16 0.050(8) 0.073(10) 0.069(9) -0.003(8) 0.029(7) 0.012(7)
C17 0.039(7) 0.078(10) 0.047(8) -0.017(7) 0.011(6) -0.010(7)
Zn1E 0.0457 0.0624 0.0536 0.0048 0.02 -0.0045
Zn1F 0.0457 0.0624 0.0536 -0.0048 0.02 0.0045
Zn1D 0.0457 0.0624 0.0536 0.0048 0.02 -0.0045
Zn1B 0.0457 0.0624 0.0536 -0.0048 0.02 0.0045
Zn1A 0.0457 0.0624 0.0536 0.0048 0.02 -0.0045
Zn1C 0.0457 0.0624 0.0536 -0.0048 0.02 0.0045
Zn1G 0.0457 0.0624 0.0536 -0.0048 0.02 0.0045
O1E 0.034 0.076 0.036 0.009 0.01 -0.006
O2E 0.023 0.107 0.037 -0.026 0.014 -0.003
O2F 0.023 0.107 0.037 0.026 0.014 0.003
O2C 0.023 0.107 0.037 0.026 0.014 0.003
O3E 0.066 0.061 0.07 0.006 0.029 -0.002
O3D 0.066 0.061 0.07 0.006 0.029 -0.002
O3A 0.066 0.061 0.07 0.006 0.029 -0.002
O4E 0.061 0.068 0.065 -0.018 0.03 0.007
O4B 0.061 0.068 0.065 0.018 0.03 -0.007
O4G 0.061 0.068 0.065 0.018 0.03 -0.007
C1E 0.056 0.05 0.084 0.023 0.029 0.007
C2E 0.048 0.104 0.054 0.012 0.001 0.021
C3E 0.086 0.068 0.093 -0.001 0.046 0.016
C4E 0.09 0.067 0.062 0.026 0.026 0.037
C5E 0.051 0.054 0.057 -0.011 0.03 0.009
C6E 0.067 0.067 0.084 -0.022 0.036 -0.005
C7E 0.065 0.052 0.092 0.001 0.052 0.004
C8E 0.047 0.076 0.061 -0.005 0.014 0.005
C9E 0.054 0.063 0.042 -0.018 0.018 0.015
C10E 0.037 0.093 0.04 -0.018 0.016 0.009
C11E 0.045 0.071 0.07 -0.001 0.027 0.014
C12E 0.035 0.13 0.054 0.009 0.017 0.029
C13E 0.03 0.109 0.046 -0.01 0.001 0.017
C14E 0.076 0.083 0.047 0.001 0.017 0.029
C15E 0.052 0.068 0.045 -0.017 0.022 0.01
C16E 0.05 0.073 0.069 -0.003 0.029 0.012
C17E 0.039 0.078 0.047 -0.017 0.011 -0.01
loop_
_geom_bond_atom_site_label_1
_geom_bond_atom_site_label_2
_geom_bond_site_symmetry_1
_geom_bond_site_symmetry_2
Zn1 O1 1_555 1_555
O1 C7 1_555 1_555
O2 C9 1_555 1_555
O3 C7 1_555 1_555
O4 C9 1_555 1_555
C1 H1 1_555 1_555
C2 C1 1_555 1_555
H2 C2 1_555 1_555
C3 H3 1_555 1_555
C4 C3 1_555 1_555
H4 C4 1_555 1_555
C5 C13 1_555 1_555
C6 H5 1_555 1_555
C7 C8 1_555 1_555
C8 C1 1_555 1_555
C9 C12 1_555 1_555
C10 C11 1_555 1_555
C11 C6 1_555 1_555
H6 C11 1_555 1_555
C12 C6 1_555 1_555
C13 C2 1_555 1_555
C14 C5 1_555 1_555
H7 C14 1_555 1_555
C15 C5 1_555 1_555
C16 C12 1_555 1_555
H8 C16 1_555 1_555
C17 C10 1_555 1_555
H9 C17 1_555 1_555
Zn1E O1E 1_555 1_555
Zn1F O2 1_555 1_555
Zn1D O3 1_555 1_555
Zn1B O4 1_555 1_555
Zn1A O3E 1_555 1_555
Zn1C O2E 1_555 1_555
Zn1G O4E 1_555 1_555
O1E C7E 1_555 1_555
O2E C9E 1_555 1_555
O2F Zn1 1_555 1_555
O2C Zn1E 1_555 1_555
O3E C7E 1_555 1_555
O3D Zn1 1_555 1_555
O3A Zn1E 1_555 1_555
O4E C9E 1_555 1_555
O4B Zn1 1_555 1_555
O4G Zn1E 1_555 1_555
C1E H1E 1_555 1_555
C2E C1E 1_555 1_555
H2E C2E 1_555 1_555
C3E H3E 1_555 1_555
C4E C3E 1_555 1_555
H4E C4E 1_555 1_555
C5E C13E 1_555 1_555
C6E H5E 1_555 1_555
C7E C8E 1_555 1_555
C8E C1E 1_555 1_555
C9E C12E 1_555 1_555
C10E C11E 1_555 1_555
C11E C6E 1_555 1_555
H6E C11E 1_555 1_555
C12E C6E 1_555 1_555
C13E C2E 1_555 1_555
C14E C15 1_555 1_555
H7E C14E 1_555 1_555
C15E C14 1_555 1_555
C16E C12E 1_555 1_555
H8E C16E 1_555 1_555
C17E C10E 1_555 1_555
H9E C17E 1_555 1_555
C3 C13 1_555 1_555
C4 C8 1_555 1_555
C10 C15 1_555 1_555
C16 C17 1_555 1_555
C3E C13E 1_555 1_555
C4E C8E 1_555 1_555
C5E C14E 1_555 1_555
C5E C15E 1_555 1_555
C10E C15E 1_555 1_555
C16E C17E 1_555 1_555

#END
