
#######################################################################
#
#                 Cambridge Crystallographic Data Centre
#                                CCDC 
#
#######################################################################
#
# If this CIF has been generated from an entry in the Cambridge 
# Structural Database, then it will include bibliographic, chemical, 
# crystal, experimental, refinement or atomic coordinate data resulting 
# from the CCDC's data processing and validation procedures.
#
#######################################################################

data_OGIKAR
_chemical_formula_moiety         
'(C55 H37 Cu3 N7 O14)n,3n(C2 H6 O1 S1),2n(H2 O1)'
_chemical_name_systematic        
"catena-(bis(\m~6~-3,3',3''-(1,3,5-triazine-2,4,6-triyl)-tribenzoato)-bis(methanol)-(pyridine)-tri-copper dimethylsulfoxide solvate dihydrate)"
_symmetry_cell_setting           tetragonal
_symmetry_space_group_name_H-M   'I 41/a'
_symmetry_Int_Tables_number      88
_space_group_name_Hall           '-I 4ad'
loop_
_symmetry_equiv_pos_site_id
_symmetry_equiv_pos_as_xyz
1 x,y,z
2 1/2-x,-y,1/2+z
3 3/4-y,1/4+x,1/4+z
4 3/4+y,3/4-x,3/4+z
5 1/2+x,1/2+y,1/2+z
6 -x,1/2-y,z
7 1/4-y,3/4+x,3/4+z
8 1/4+y,1/4-x,1/4+z
9 -x,-y,-z
10 1/2+x,y,1/2-z
11 1/4+y,3/4-x,3/4-z
12 1/4-y,1/4+x,1/4-z
13 1/2-x,1/2-y,1/2-z
14 x,1/2+y,-z
15 3/4+y,1/4-x,1/4-z
16 3/4-y,3/4+x,3/4-z
_cell_length_a                   29.3618(6)
_cell_length_b                   29.3618(6)
_cell_length_c                   37.1534(14)
_cell_angle_alpha                90
_cell_angle_beta                 90
_cell_angle_gamma                90
_cell_volume                     32030.5
_exptl_crystal_colour            blue
_exptl_crystal_description       block
_cell_formula_units_Z            16
loop_
_atom_site_label
_atom_site_type_symbol
_atom_site_fract_x
_atom_site_fract_y
_atom_site_fract_z
Cu1 Cu 0.719616(19) 0.50611(2) 0.103152(16)
Cu2 Cu 0.78884(2) 0.50160(2) 0.149316(18)
Cu3 Cu 0.53707(2) 0.72299(3) 0.372156(19)
O1 O 0.68342(11) 0.51394(13) 0.14740(9)
O2 O 0.74162(12) 0.51413(13) 0.18608(10)
O3 O 0.50005(15) 0.68972(16) 0.33642(13)
O4 O 0.44171(15) 0.73834(17) 0.33317(14)
O5 O 0.32105(12) 0.51492(14) 0.14488(11)
O6 O 0.31738(14) 0.45511(14) 0.10742(11)
O7 O 0.82450(12) 0.49163(15) 0.10495(11)
O8 O 0.76575(13) 0.49757(15) 0.06623(11)
O9 O 0.99483(19) 0.30979(18) -0.08954(14)
O10 O 1.05966(18) 0.27128(19) -0.09495(14)
O11 O 1.18675(12) 0.47823(13) 0.10104(10)
O12 O 1.18972(12) 0.53463(14) 0.14146(10)
O13 O 0.66414(17) 0.51096(18) 0.06605(14)
O14 O 0.84427(18) 0.49409(17) 0.18601(14)
N1 N 0.52536(16) 0.52056(19) 0.19571(13)
N2 N 0.51896(17) 0.5781(2) 0.23966(14)
N3 N 0.45583(17) 0.5584(2) 0.20513(17)
N4 N 0.97986(15) 0.4778(2) 0.05286(14)
N5 N 0.98388(17) 0.4289(2) 0.00178(16)
N6 N 1.0513(2) 0.4490(2) 0.03413(17)
N7 N 0.59901(18) 0.68365(18) 0.37348(14)
C1 C 0.54349(19) 0.5472(2) 0.22131(18)
C2 C 0.4768(2) 0.5833(3) 0.2298(2)
C3 C 0.4815(2) 0.5272(2) 0.18948(17)
C4 C 0.5926(2) 0.5443(2) 0.22908(19)
C5 C 0.6224(2) 0.5312(2) 0.20163(19)
H1 H 0.6110 0.5232 0.1791
C6 C 0.6688(2) 0.5300(2) 0.20784(19)
C7 C 0.6849(2) 0.5415(2) 0.24243(19)
H2 H 0.7159 0.5397 0.2474
C8 C 0.6554(2) 0.5554(2) 0.26879(19)
H3 H 0.6663 0.5636 0.2914
C9 C 0.6100(2) 0.5571(2) 0.26162(18)
H4 H 0.5902 0.5674 0.2794
C10 C 0.70107(17) 0.51792(15) 0.17821(14)
C11 C 0.4499(3) 0.6201(3) 0.2479(2)
C12 C 0.4674(2) 0.6427(2) 0.2768(2)
H5 H 0.4957 0.6345 0.2859
C13 C 0.4434(3) 0.6772(3) 0.2924(2)
C14 C 0.4014(2) 0.6915(2) 0.27743(18)
H6 H 0.3859 0.7161 0.2873
C15 C 0.3843(2) 0.6697(2) 0.24936(19)
H7 H 0.3556 0.6774 0.2408
C16 C 0.4089(2) 0.6355(2) 0.23268(19)
H8 H 0.3983 0.6228 0.2113
C17 C 0.4632(2) 0.7035(2) 0.32366(18)
C18 C 0.4586(2) 0.4973(2) 0.16237(17)
C19 C 0.4128(2) 0.5024(2) 0.15690(16)
H9 H 0.3973 0.5249 0.1696
C20 C 0.3886(2) 0.4748(2) 0.13273(18)
C21 C 0.4121(3) 0.4422(3) 0.1139(2)
H10 H 0.3967 0.4235 0.0978
C22 C 0.4596(4) 0.4367(3) 0.1189(2)
H11 H 0.4755 0.4152 0.1054
C23 C 0.4819(2) 0.4633(3) 0.1437(2)
H12 H 0.5127 0.4586 0.1480
C24 C 0.3386(2) 0.4821(2) 0.12760(17)
C25 C 0.96130(19) 0.4551(2) 0.02631(17)
C26 C 1.0295(3) 0.4291(3) 0.0070(2)
C27 C 1.0246(2) 0.4733(2) 0.05620(18)
C28 C 0.9114(3) 0.4578(3) 0.0205(2)
C29 C 0.8848(3) 0.4733(3) 0.0488(2)
H13 H 0.8978 0.4797 0.0711
C30 C 0.8369(3) 0.4795(3) 0.0431(2)
C31 C 0.8191(3) 0.4710(3) 0.0091(2)
H14 H 0.7881 0.4750 0.0052
C32 C 0.8464(3) 0.4567(3) -0.0191(2)
H15 H 0.8339 0.4520 -0.0418
C33 C 0.8940(3) 0.4492(3) -0.0130(2)
H16 H 0.9127 0.4388 -0.0314
C34 C 0.80719(18) 0.48976(19) 0.07350(17)
C35 C 1.0559(3) 0.4013(3) -0.0173(2)
C36 C 1.0354(3) 0.3675(3) -0.0391(2)
H17 H 1.0040 0.3639 -0.0377
C37 C 1.0589(3) 0.3401(3) -0.0620(2)
C38 C 1.1089(3) 0.3468(3) -0.0638(2)
H18 H 1.1265 0.3269 -0.0774
C39 C 1.1300(3) 0.3827(3) -0.0452(2)
H19 H 1.1607 0.3890 -0.0489
C40 C 1.1045(3) 0.4090(3) -0.0209(2)
H20 H 1.1187 0.4313 -0.0072
C41 C 1.0372(3) 0.3042(3) -0.0835(2)
C42 C 1.0485(2) 0.5004(3) 0.08413(18)
C43 C 1.09483(19) 0.4920(2) 0.09027(17)
H21 H 1.1093 0.4682 0.0783
C44 C 1.11913(19) 0.5189(2) 0.11414(17)
C45 C 1.0968(2) 0.5552(3) 0.13244(18)
H22 H 1.1133 0.5734 0.1483
C46 C 1.0514(3) 0.5639(3) 0.1269(2)
H23 H 1.0372 0.5875 0.1392
C47 C 1.0258(2) 0.5364(3) 0.1021(2)
H24 H 0.9951 0.5421 0.0979
C48 C 1.1684(2) 0.5102(2) 0.11991(15)
C49 C 0.6236(3) 0.6800(3) 0.3447(2)
H25 H 0.6117 0.6919 0.3235
C50 C 0.6674(3) 0.6591(3) 0.3428(3)
H26 H 0.6844 0.6568 0.3217
C51 C 0.6821(3) 0.6425(3) 0.3760(2)
H27 H 0.7100 0.6275 0.3766
C52 C 0.6600(3) 0.6462(3) 0.4058(2)
H28 H 0.6716 0.6353 0.4275
C53 C 0.6161(3) 0.6682(3) 0.4036(3)
H29 H 0.5993 0.6717 0.4246
C54 C 0.6533(3) 0.5478(3) 0.0413(2)
H30 H 0.6261 0.5404 0.0282
H31 H 0.6780 0.5520 0.0248
H32 H 0.6485 0.5754 0.0547
C55 C 0.8871(5) 0.5274(5) 0.1755(4)
H33 H 0.8859 0.5343 0.1502
H34 H 0.9152 0.5122 0.1809
H35 H 0.8852 0.5551 0.1891
Cu1N Cu 0.25611(2) 0.530384(19) 0.146848(16)
Cu1N_2 Cu 1.25611(2) 0.530384(19) 0.146848(16)
Cu2N Cu 0.25160(2) 0.46116(2) 0.100684(18)
Cu2N_2 Cu 1.25160(2) 0.46116(2) 0.100684(18)
Cu3E Cu 0.46293(2) 0.77701(3) 0.372156(19)
Cu3A Cu 0.96293(2) 0.27701(3) -0.127844(19)
Cu3D Cu 1.03707(2) 0.22299(3) -0.127844(19)
O4E O 0.55829(15) 0.76166(17) 0.33317(14)
O5K O 0.73508(14) 0.57105(12) 0.10512(11)
O6K O 0.79489(14) 0.56738(14) 0.14258(11)
O9A O 0.50517(19) 0.69021(18) 0.41046(14)
O10D O 0.55966(18) 0.77128(19) 0.40505(14)
O11K O 0.77177(13) 0.43675(12) 0.14896(10)
O12K O 0.71537(14) 0.43972(12) 0.10854(10)
C56? C 0.1611(5) 1.0199(5) 0.2223(4)
H36? H 0.1873 1.0393 0.2242
H37? H 0.1653 0.9936 0.2373
H38? H 0.1345 1.0362 0.2299
loop_
_geom_bond_atom_site_label_1
_geom_bond_atom_site_label_2
_geom_bond_site_symmetry_1
_geom_bond_site_symmetry_2
Cu1 O1 1_555 1_555
Cu2 O2 1_555 1_555
Cu3 O3 1_555 1_555
O1 C10 1_555 1_555
O2 C10 1_555 1_555
O3 C17 1_555 1_555
O4 C17 1_555 1_555
O5 C24 1_555 1_555
O6 C24 1_555 1_555
O7 Cu2 1_555 1_555
O8 Cu1 1_555 1_555
O9 C41 1_555 1_555
O10 C41 1_555 1_555
O11 C48 1_555 1_555
O12 C48 1_555 1_555
O13 Cu1 1_555 1_555
O14 Cu2 1_555 1_555
N1 C1 1_555 1_555
N2 C1 1_555 1_555
N3 C2 1_555 1_555
N4 C25 1_555 1_555
N5 C25 1_555 1_555
N6 C26 1_555 1_555
N7 Cu3 1_555 1_555
C1 C4 1_555 1_555
C2 N2 1_555 1_555
C3 N1 1_555 1_555
C4 C5 1_555 1_555
C5 H1 1_555 1_555
C6 C5 1_555 1_555
C7 C6 1_555 1_555
H2 C7 1_555 1_555
C8 C7 1_555 1_555
H3 C8 1_555 1_555
C9 C4 1_555 1_555
H4 C9 1_555 1_555
C10 C6 1_555 1_555
C11 C2 1_555 1_555
C12 C11 1_555 1_555
H5 C12 1_555 1_555
C13 C12 1_555 1_555
C14 C13 1_555 1_555
H6 C14 1_555 1_555
C15 C14 1_555 1_555
H7 C15 1_555 1_555
C16 C11 1_555 1_555
H8 C16 1_555 1_555
C17 C13 1_555 1_555
C18 C3 1_555 1_555
C19 C18 1_555 1_555
H9 C19 1_555 1_555
C20 C19 1_555 1_555
C21 C20 1_555 1_555
H10 C21 1_555 1_555
C22 C21 1_555 1_555
H11 C22 1_555 1_555
C23 C18 1_555 1_555
H12 C23 1_555 1_555
C24 C20 1_555 1_555
C25 C28 1_555 1_555
C26 N5 1_555 1_555
C27 N4 1_555 1_555
C28 C29 1_555 1_555
C29 H13 1_555 1_555
C30 C29 1_555 1_555
C31 C30 1_555 1_555
H14 C31 1_555 1_555
C32 C31 1_555 1_555
H15 C32 1_555 1_555
C33 C28 1_555 1_555
H16 C33 1_555 1_555
C34 O7 1_555 1_555
C35 C26 1_555 1_555
C36 C35 1_555 1_555
H17 C36 1_555 1_555
C37 C36 1_555 1_555
C38 C37 1_555 1_555
H18 C38 1_555 1_555
C39 C38 1_555 1_555
H19 C39 1_555 1_555
C40 C35 1_555 1_555
H20 C40 1_555 1_555
C41 C37 1_555 1_555
C42 C27 1_555 1_555
C43 C42 1_555 1_555
H21 C43 1_555 1_555
C44 C43 1_555 1_555
C45 C44 1_555 1_555
H22 C45 1_555 1_555
C46 C45 1_555 1_555
H23 C46 1_555 1_555
C47 C42 1_555 1_555
H24 C47 1_555 1_555
C48 C44 1_555 1_555
C49 N7 1_555 1_555
H25 C49 1_555 1_555
C50 C49 1_555 1_555
H26 C50 1_555 1_555
C51 C50 1_555 1_555
H27 C51 1_555 1_555
C52 C51 1_555 1_555
H28 C52 1_555 1_555
C53 N7 1_555 1_555
H29 C53 1_555 1_555
C54 O13 1_555 1_555
H30 C54 1_555 1_555
H31 C54 1_555 1_555
H32 C54 1_555 1_555
C55 O14 1_555 1_555
H33 C55 1_555 1_555
H34 C55 1_555 1_555
H35 C55 1_555 1_555
Cu1N O5 1_555 1_555
Cu1N_2 O12 1_555 1_555
Cu2N O6 1_555 1_555
Cu2N_2 O11 1_555 1_555
Cu3E O4 1_555 1_555
Cu3A O9 1_555 1_555
Cu3D O10 1_555 1_555
O4E Cu3 1_555 1_555
O5K Cu1 1_555 1_555
O6K Cu2 1_555 1_555
O9A Cu3 1_555 1_555
O10D Cu3 1_555 1_555
O11K Cu2 1_555 1_555
O12K Cu1 1_555 1_555
O8 C34 1_555 1_555
N3 C3 1_555 1_555
N6 C27 1_555 1_555
C8 C9 1_555 1_555
C15 C16 1_555 1_555
C22 C23 1_555 1_555
C30 C34 1_555 1_555
C32 C33 1_555 1_555
C39 C40 1_555 1_555
C46 C47 1_555 1_555
C52 C53 1_555 1_555

#END
