
#######################################################################
#
#                 Cambridge Crystallographic Data Centre
#                                CCDC 
#
#######################################################################
#
# If this CIF has been generated from an entry in the Cambridge 
# Structural Database, then it will include bibliographic, chemical, 
# crystal, experimental, refinement or atomic coordinate data resulting 
# from the CCDC's data processing and validation procedures.
#
#######################################################################

data_ETAXIH
_chemical_formula_moiety         '(C48 H60 N12 O35 Zn11)n'
_chemical_name_systematic        
catena-(hexakis(\m~4~-2-Propylimidazole-4,5-dicarboxylato)-bis(\m~3~-oxo)-nona-aqua-undeca-zinc)
_symmetry_cell_setting           trigonal
_symmetry_space_group_name_H-M   'P -3 c 1'
_symmetry_Int_Tables_number      165
_space_group_name_Hall           '-P 3 2"c'
loop_
_symmetry_equiv_pos_site_id
_symmetry_equiv_pos_as_xyz
1 x,y,z
2 -y,x-y,z
3 -x+y,-x,z
4 y,x,1/2-z
5 x-y,-y,1/2-z
6 -x,-x+y,1/2-z
7 -x,-y,-z
8 y,-x+y,-z
9 x-y,x,-z
10 -y,-x,1/2+z
11 -x+y,y,1/2+z
12 x,x-y,1/2+z
_cell_length_a                   14.3470(18)
_cell_length_b                   14.3470(18)
_cell_length_c                   20.408(2)
_cell_angle_alpha                90
_cell_angle_beta                 90
_cell_angle_gamma                120
_cell_volume                     3637.92
_exptl_crystal_colour            'light yellow'
_exptl_crystal_description       polyhedron
_cell_formula_units_Z            2
loop_
_atom_site_label
_atom_site_type_symbol
_atom_site_fract_x
_atom_site_fract_y
_atom_site_fract_z
Zn1 Zn -0.77367(11) 0.50551(8) 1.00580(5)
Zn2 Zn -0.6375 0.36250(12) 1.2500
Zn3 Zn -0.3333 0.3333 1.16412(9)
N1 N -0.6891(8) 0.4261(6) 1.0126(4)
N2 N -0.5808(8) 0.3544(6) 1.0078(4)
O1 O -0.4559(7) 0.3316(5) 1.0990(3)
O2 O -0.5266(9) 0.3762(7) 1.1833(3)
O3 O -0.7602(7) 0.5004(5) 1.1122(3)
O4 O -0.6748(8) 0.4596(6) 1.1900(3)
O5 O -0.6666 0.6667 1.0209(5)
O6 O -0.7980(36) 0.215(3) 1.2397(17)
H1 H -0.7993 0.1635 1.2616
H2 H -0.8455 0.2279 1.2544
O7 O -0.2208(6) 0.3169(8) 1.2254(3)
H3 H -0.1938 0.3686 1.2527
H4 H -0.2541 0.2585 1.2470
C1 C -0.5215(11) 0.3610(7) 1.1231(4)
C2 C -0.6974(10) 0.4632(7) 1.1306(5)
C3 C -0.6439(10) 0.3825(7) 0.9729(4)
C4 C -0.5880(10) 0.3783(7) 1.0732(4)
C5 C -0.6578(11) 0.4219(8) 1.0767(4)
C6 C -0.6669(12) 0.3631(8) 0.9008(5)
H5 H -0.6005 0.3823 0.8779
H6 H -0.6931 0.4095 0.8849
C7 C -0.752(3) 0.243(2) 0.8848(11)
H7 H -0.7622 0.2362 0.8377
H8 H -0.7233 0.1979 0.8984
C8 C -0.8623(28) 0.203(2) 0.9179(12)
H9 H -0.8523 0.2172 0.9641
H10 H -0.9066 0.1270 0.9108
H11 H -0.8967 0.2397 0.8994
Zn1A Zn -0.50551(8) -0.27918(14) 1.00580(5)
Zn1B Zn 0.27918(14) 0.77367(11) 1.00580(5)
Zn1G Zn -0.49449(8) 0.27918(14) 0.99420(5)
Zn1H Zn -0.27918(14) 0.22633(11) 0.99420(5)
Zn1F Zn -0.22633(11) 0.49449(8) 0.99420(5)
Zn1B_2 Zn -0.72082(14) 0.77367(11) 1.00580(5)
Zn1A_2 Zn -0.50551(8) 0.72082(14) 1.00580(5)
Zn1H_2 Zn -1.27918(14) 0.22633(11) 0.99420(5)
Zn1C Zn -0.49449(8) 0.22633(11) 1.49420(5)
Zn1J Zn -0.72082(14) 0.50551(8) 1.50580(5)
Zn1E Zn -0.22633(11) 0.27918(14) 1.49420(5)
Zn1I Zn -0.50551(8) -0.22633(11) 1.50580(5)
Zn1_2 Zn -0.77367(11) -0.49449(8) 1.00580(5)
Zn1B_3 Zn -0.72082(14) -0.22633(11) 1.00580(5)
Zn2A Zn -0.36250(12) 0.00000(12) 1.2500
Zn2B Zn 0.00000(12) 0.6375 1.2500
Zn2H Zn -1.00000(12) 0.3625 0.7500
Zn3H Zn -0.6666 0.6667 0.83588(9)
Zn3C Zn -0.6667 0.6667 1.33588(9)
Zn3E Zn -0.6667 -0.3334 1.33588(9)
N1A N -0.4261(6) -0.1152(10) 1.0126(4)
N1B N 0.1152(10) 0.6891(8) 1.0126(4)
N1H N -1.1152(10) 0.3109(8) 0.9874(4)
N1C N -0.5739(6) 0.3109(8) 1.4874(4)
N1E N -0.3109(8) 0.1152(10) 1.4874(4)
N1G N -0.5739(6) 0.1152(10) 0.9874(4)
N1H_2 N -0.1152(10) 0.3109(8) 0.9874(4)
N1F N -0.3109(8) 0.5739(6) 0.9874(4)
N2A N -0.3544(6) 0.0648(10) 1.0078(4)
N2B N -0.0648(10) 0.5808(8) 1.0078(4)
N2H N -0.9352(10) 0.4192(8) 0.9922(4)
N2C N -0.6456(6) 0.4192(8) 1.4922(4)
N2E N -0.4192(8) -0.0648(10) 1.4922(4)
N2F N -0.4192(8) -0.3544(6) 0.9922(4)
N2G N 0.3544(6) 0.9352(10) 0.9922(4)
O1A O -0.3316(5) 0.2125(9) 1.0990(3)
O1B O -0.2125(9) 0.4559(7) 1.0990(3)
O1H O -0.7875(9) 0.5441(7) 0.9010(3)
O1C O -0.6684(5) 0.5441(7) 1.4010(3)
O1E O -0.5441(7) -0.2125(9) 1.4010(3)
O1F O -0.5441(7) -0.3316(5) 0.9010(3)
O1G O 0.3316(5) 0.7875(9) 0.9010(3)
O1F_2 O -0.5441(7) 0.6684(5) 0.9010(3)
O1G_2 O -0.6684(5) 0.7875(9) 0.9010(3)
O2A O -0.3762(7) 0.0972(11) 1.1833(3)
O2B O -0.0972(11) 0.5266(9) 1.1833(3)
O2H O -0.9028(11) 0.4734(9) 0.8167(3)
O2C O -0.6238(7) 0.4734(9) 1.3167(3)
O2E O -0.4734(9) -0.0972(11) 1.3167(3)
O2D O 0.0972(11) 0.6238(7) 1.3167(3)
O3A O -0.5004(5) -0.2606(9) 1.1122(3)
O3B O 0.2606(9) 0.7602(7) 1.1122(3)
O3H O -1.2606(9) 0.2398(7) 0.8878(3)
O3C O -0.4996(5) 0.2398(7) 1.3878(3)
O3E O -0.2398(7) 0.2606(9) 1.3878(3)
O3G O -0.4996(5) 0.2606(9) 0.8878(3)
O3H_2 O -0.2606(9) 0.2398(7) 0.8878(3)
O3F O -0.2398(7) 0.4996(5) 0.8878(3)
O4A O -0.4596(6) -0.1344(10) 1.1900(3)
O4B O 0.1344(10) 0.6748(8) 1.1900(3)
O4H O -1.1344(10) 0.3252(8) 0.8100(3)
O4C O -0.5404(6) 0.3252(8) 1.3100(3)
O4E O -0.3252(8) 0.1344(10) 1.3100(3)
O4D O -0.1344(10) 0.5404(6) 1.3100(3)
O5A O -0.6667 -0.3333 1.0209(5)
O5B O 0.3333 0.6666 1.0209(5)
O5G O -0.3333 0.3333 0.9791(5)
O6C O -0.785(3) 0.2020(36) 1.2603(17)
O6A O -0.215(3) -0.0130(47) 1.2397(17)
O6E O -0.2020(36) 0.0130(47) 1.2603(17)
O6B O 0.0130(47) 0.7980(36) 1.2397(17)
O6D O -0.0130(47) 0.785(3) 1.2603(17)
H1C H -0.8365 0.2007 1.2384
H1A H -0.1635 0.0372 1.2616
H1E H -0.2007 -0.0372 1.2384
H1B H -0.0372 0.7993 1.2616
H1D H 0.0372 0.8365 1.2384
H2C H -0.7721 0.1545 1.2456
H2A H -0.2279 -0.0734 1.2544
H2E H -0.1545 0.0734 1.2456
H2B H 0.0734 0.8455 1.2544
H2D H -0.0734 0.7721 1.2456
O7A O -0.3169(8) 0.4623(10) 1.2254(3)
O7B O -0.4623(10) 0.2208(6) 1.2254(3)
O7H O -0.5377(10) 0.7792(6) 0.7746(3)
O7F O -0.7792(6) 0.6831(8) 0.7746(3)
O7G O -0.6831(8) 0.5377(10) 0.7746(3)
H3A H -0.3686 0.4376 1.2527
H3B H -0.4376 0.1938 1.2527
H3H H -0.5624 0.8062 0.7473
H3F H -0.8062 0.6314 0.7473
H3G H -0.6314 0.5624 0.7473
H4A H -0.2585 0.4874 1.2470
H4B H -0.4874 0.2541 1.2470
H4H H -0.5126 0.7459 0.7530
H4F H -0.7459 0.7415 0.7530
H4G H -0.7415 0.5126 0.7530
C1A C -0.3610(7) 0.1175(13) 1.1231(4)
C1B C -0.1175(13) 0.5215(11) 1.1231(4)
C1H C -0.8825(13) 0.4785(11) 0.8769(4)
C1C C -0.6390(7) 0.4785(11) 1.3769(4)
C1E C -0.4785(11) -0.1175(13) 1.3769(4)
C2A C -0.4632(7) -0.1606(12) 1.1306(5)
C2B C 0.1606(12) 0.6974(10) 1.1306(5)
C2H C -1.1606(12) 0.3026(10) 0.8694(5)
C2C C -0.5368(7) 0.3026(10) 1.3694(5)
C2E C -0.3026(10) 0.1606(12) 1.3694(5)
C3A C -0.3825(7) -0.0264(12) 0.9729(4)
C3B C 0.0264(12) 0.6439(10) 0.9729(4)
C3H C -1.0264(12) 0.3561(10) 1.0271(4)
C3C C -0.6175(7) 0.3561(10) 1.5271(4)
C3E C -0.3561(10) 0.0264(12) 1.5271(4)
C4A C -0.3783(7) 0.0337(12) 1.0732(4)
C4B C -0.0337(12) 0.5880(10) 1.0732(4)
C4H C -0.9663(12) 0.4120(10) 0.9268(4)
C4C C -0.6217(7) 0.4120(10) 1.4268(4)
C4E C -0.4120(10) -0.0337(12) 1.4268(4)
C5A C -0.4219(8) -0.0797(14) 1.0767(4)
C5B C 0.0797(14) 0.6578(11) 1.0767(4)
C5H C -1.0797(14) 0.3422(11) 0.9233(4)
C5C C -0.5781(8) 0.3422(11) 1.4233(4)
C5E C -0.3422(11) 0.0797(14) 1.4233(4)
C6A C -0.3631(8) -0.0300(14) 0.9008(5)
C6B C 0.0300(14) 0.6669(12) 0.9008(5)
C6H C -1.0300(14) 0.3331(12) 1.0992(5)
C6C C -0.6369(8) 0.3331(12) 1.5992(5)
C6E C -0.3331(12) 0.0300(14) 1.5992(5)
H5A H -0.3823 0.0172 0.8779
H5B H -0.0172 0.6005 0.8779
H5H H -0.9828 0.3995 1.1221
H5C H -0.6177 0.3995 1.6221
H5E H -0.3995 -0.0172 1.6221
H6A H -0.4095 -0.1026 0.8849
H6B H 0.1026 0.6931 0.8849
H6H H -1.1026 0.3069 1.1151
H6C H -0.5905 0.3069 1.6151
H6E H -0.3069 0.1026 1.6151
C7A C -0.243(2) 0.005(4) 0.8848(11)
C7B C -0.005(4) 0.752(3) 0.8848(11)
C7H C -0.995(4) 0.248(3) 1.1152(11)
C7C C -0.757(2) 0.248(3) 1.6152(11)
C7E C -0.248(3) -0.005(4) 1.6152(11)
H7A H -0.2362 0.0016 0.8377
H7B H -0.0016 0.7622 0.8377
H7H H -0.9984 0.2378 1.1623
H7C H -0.7638 0.2378 1.6623
H7E H -0.2378 -0.0016 1.6623
H8A H -0.1979 0.0788 0.8984
H8B H -0.0788 0.7233 0.8984
H8H H -0.9212 0.2767 1.1016
H8C H -0.8021 0.2767 1.6016
H8E H -0.2767 -0.0788 1.6016
C8A C -0.203(2) -0.0653(34) 0.9179(12)
C8B C 0.0653(34) 0.8623(28) 0.9179(12)
C8H C -1.0653(34) 0.1377(28) 1.0821(12)
C8C C -0.797(2) 0.1377(28) 1.5821(12)
C8E C -0.1377(28) 0.0653(34) 1.5821(12)
H9A H -0.2172 -0.0695 0.9641
H9B H 0.0695 0.8523 0.9641
H9H H -1.0695 0.1477 1.0359
H9C H -0.7828 0.1477 1.5359
H9E H -0.1477 0.0695 1.5359
H10A H -0.1270 -0.0336 0.9108
H10B H 0.0336 0.9066 0.9108
H10H H -1.0336 0.0934 1.0892
H10C H -0.8730 0.0934 1.5892
H10E H -0.0934 0.0336 1.5892
H11A H -0.2397 -0.1364 0.8994
H11B H 0.1364 0.8967 0.8994
H11H H -1.1364 0.1033 1.1006
H11C H -0.7603 0.1033 1.6006
H11E H -0.1033 0.1364 1.6006
C9? C 0.061(4) 0.785(3) 0.8855(19)
C10? C -0.022(4) 0.813(4) 0.923(2)
H12? H -0.0399 0.6187 0.8819
H13? H 0.0820 0.6521 0.8800
H14? H 0.0585 0.7943 0.8387
H15? H 0.1343 0.8334 0.9004
H16? H -0.0892 0.7793 0.8998
H17? H 0.0076 0.8892 0.9235
H18? H -0.0326 0.7858 0.9668
loop_
_geom_bond_atom_site_label_1
_geom_bond_atom_site_label_2
_geom_bond_site_symmetry_1
_geom_bond_site_symmetry_2
Zn1 N1 1_555 1_555
Zn2 O2 1_555 1_555
Zn3 O1 1_555 1_555
N1 C3 1_555 1_555
N2 C3 1_555 1_555
O1 C1 1_555 1_555
O2 C1 1_555 1_555
O3 Zn1 1_555 1_555
O4 Zn2 1_555 1_555
O5 Zn1 1_555 1_555
O6 Zn2 1_555 1_555
H1 O6 1_555 1_555
H2 O6 1_555 1_555
O7 Zn3 1_555 1_555
H3 O7 1_555 1_555
H4 O7 1_555 1_555
C1 C4 1_555 1_555
C2 O3 1_555 1_555
C3 C6 1_555 1_555
C4 N2 1_555 1_555
C5 N1 1_555 1_555
C6 H5 1_555 1_555
H6 C6 1_555 1_555
C7 C6 1_555 1_555
H7 C7 1_555 1_555
H8 C7 1_555 1_555
C8 C7 1_555 1_555
H9 C8 1_555 1_555
H10 C8 1_555 1_555
H11 C8 1_555 1_555
Zn1A N1A 1_555 1_555
Zn1B N1B 1_555 1_555
Zn1G N2 1_555 1_555
Zn1H N1H_2 1_555 1_555
Zn1F N1F 1_555 1_555
Zn1B_2 O5 1_555 1_555
Zn1A_2 O5 1_555 1_555
Zn1H_2 N1H 1_555 1_555
Zn1C N1C 1_555 1_555
Zn1J N2C 1_555 1_555
Zn1E N1E 1_555 1_555
Zn1I N2E 1_555 1_555
Zn1_2 O5A 1_555 1_555
Zn1B_3 O5A 1_555 1_555
Zn2A O2A 1_555 1_555
Zn2B O2B 1_555 1_555
Zn2H O2H 1_555 1_555
Zn3H O1H 1_555 1_555
Zn3C O1C 1_555 1_555
Zn3E O1E 1_555 1_555
N1A C3A 1_555 1_555
N1B C3B 1_555 1_555
N1H C3H 1_555 1_555
N1C C3C 1_555 1_555
N1E C3E 1_555 1_555
N1G Zn1G 1_555 1_555
N2A Zn1H 1_555 1_555
N2B Zn1F 1_555 1_555
N2H Zn1 1_555 1_555
N2C C3C 1_555 1_555
N2E C3E 1_555 1_555
N2F Zn1A 1_555 1_555
N2G Zn1B 1_555 1_555
O1A Zn3 1_555 1_555
O1B Zn3 1_555 1_555
O1H Zn1 1_555 1_555
O1C Zn1J 1_555 1_555
O1E Zn1I 1_555 1_555
O1F Zn1A 1_555 1_555
O1G Zn1B 1_555 1_555
O1F_2 Zn1A_2 1_555 1_555
O1G_2 Zn1B_2 1_555 1_555
O2A C1A 1_555 1_555
O2B C1B 1_555 1_555
O2H C1H 1_555 1_555
O2C Zn2 1_555 1_555
O2E Zn2A 1_555 1_555
O2D Zn2B 1_555 1_555
O3A Zn1A 1_555 1_555
O3B Zn1B 1_555 1_555
O3H Zn1H_2 1_555 1_555
O3C Zn1C 1_555 1_555
O3E Zn1E 1_555 1_555
O3G Zn1G 1_555 1_555
O3H_2 Zn1H 1_555 1_555
O3F Zn1F 1_555 1_555
O4A Zn2A 1_555 1_555
O4B Zn2B 1_555 1_555
O4H Zn2H 1_555 1_555
O4C Zn2 1_555 1_555
O4E Zn2A 1_555 1_555
O4D Zn2B 1_555 1_555
O5A Zn1A 1_555 1_555
O5B Zn1B 1_555 1_555
O5G Zn1G 1_555 1_555
O6C Zn2 1_555 1_555
O6A Zn2A 1_555 1_555
O6E Zn2A 1_555 1_555
O6B Zn2B 1_555 1_555
O6D Zn2B 1_555 1_555
H1C O6 1_555 1_555
H1A O6A 1_555 1_555
H1E O6A 1_555 1_555
H1B O6B 1_555 1_555
H1D O6B 1_555 1_555
H2C O6 1_555 1_555
H2A O6A 1_555 1_555
H2E O6A 1_555 1_555
H2B O6B 1_555 1_555
H2D O6B 1_555 1_555
O7A Zn3 1_555 1_555
O7B Zn3 1_555 1_555
O7H Zn3H 1_555 1_555
O7F Zn3H 1_555 1_555
O7G Zn3H 1_555 1_555
H3A O7A 1_555 1_555
H3B O7B 1_555 1_555
H3H O7H 1_555 1_555
H3F O7F 1_555 1_555
H3G O7G 1_555 1_555
H4A O7A 1_555 1_555
H4B O7B 1_555 1_555
H4H O7H 1_555 1_555
H4F O7F 1_555 1_555
H4G O7G 1_555 1_555
C1A O1A 1_555 1_555
C1B O1B 1_555 1_555
C1H O1H 1_555 1_555
C1C O1C 1_555 1_555
C1E O1E 1_555 1_555
C2A O3A 1_555 1_555
C2B O3B 1_555 1_555
C2H O3H 1_555 1_555
C2C O3C 1_555 1_555
C2E O3E 1_555 1_555
C3A N2A 1_555 1_555
C3B N2B 1_555 1_555
C3H N2H 1_555 1_555
C3C C6C 1_555 1_555
C3E C6E 1_555 1_555
C4A N2A 1_555 1_555
C4B N2B 1_555 1_555
C4H N2H 1_555 1_555
C4C N2C 1_555 1_555
C4E N2E 1_555 1_555
C5A N1A 1_555 1_555
C5B N1B 1_555 1_555
C5H N1H 1_555 1_555
C5C N1C 1_555 1_555
C5E N1E 1_555 1_555
C6A C3A 1_555 1_555
C6B C3B 1_555 1_555
C6H C3H 1_555 1_555
C6C H5C 1_555 1_555
C6E H5E 1_555 1_555
H5A C6A 1_555 1_555
H5B C6B 1_555 1_555
H5H C6H 1_555 1_555
H6A C6A 1_555 1_555
H6B C6B 1_555 1_555
H6H C6H 1_555 1_555
H6C C6C 1_555 1_555
H6E C6E 1_555 1_555
C7A C6A 1_555 1_555
C7B C6B 1_555 1_555
C7H C6H 1_555 1_555
C7C C6C 1_555 1_555
C7E C6E 1_555 1_555
H7A C7A 1_555 1_555
H7B C7B 1_555 1_555
H7H C7H 1_555 1_555
H7C C7C 1_555 1_555
H7E C7E 1_555 1_555
H8A C7A 1_555 1_555
H8B C7B 1_555 1_555
H8H C7H 1_555 1_555
H8C C7C 1_555 1_555
H8E C7E 1_555 1_555
C8A C7A 1_555 1_555
C8B C7B 1_555 1_555
C8H C7H 1_555 1_555
C8C C7C 1_555 1_555
C8E C7E 1_555 1_555
H9A C8A 1_555 1_555
H9B C8B 1_555 1_555
H9H C8H 1_555 1_555
H9C C8C 1_555 1_555
H9E C8E 1_555 1_555
H10A C8A 1_555 1_555
H10B C8B 1_555 1_555
H10H C8H 1_555 1_555
H10C C8C 1_555 1_555
H10E C8E 1_555 1_555
H11A C8A 1_555 1_555
H11B C8B 1_555 1_555
H11H C8H 1_555 1_555
H11C C8C 1_555 1_555
H11E C8E 1_555 1_555
O1 Zn1G 1_555 1_555
O4 C2 1_555 1_555
O6 O6C 1_555 1_555
H1 O6C 1_555 1_555
H1 H2C 1_555 1_555
H2 O6C 1_555 1_555
H2 H1C 1_555 1_555
C2 C5 1_555 1_555
C4 C5 1_555 1_555
Zn1H O1A 1_555 1_555
Zn1H O5G 1_555 1_555
Zn1F O1B 1_555 1_555
Zn1F O5G 1_555 1_555
Zn3H O1F_2 1_555 1_555
Zn3H O1G_2 1_555 1_555
O2C C1C 1_555 1_555
O2E C1E 1_555 1_555
O4A C2A 1_555 1_555
O4B C2B 1_555 1_555
O4H C2H 1_555 1_555
O4C C2C 1_555 1_555
O4E C2E 1_555 1_555
O6C H1C 1_555 1_555
O6C H2C 1_555 1_555
O6A O6E 1_555 1_555
O6E H1A 1_555 1_555
O6E H1E 1_555 1_555
O6E H2A 1_555 1_555
O6E H2E 1_555 1_555
O6B O6D 1_555 1_555
O6D H1B 1_555 1_555
O6D H1D 1_555 1_555
O6D H2B 1_555 1_555
O6D H2D 1_555 1_555
H1A H2E 1_555 1_555
H1E H2A 1_555 1_555
H1B H2D 1_555 1_555
H1D H2B 1_555 1_555
C1A C4A 1_555 1_555
C1B C4B 1_555 1_555
C1H C4H 1_555 1_555
C1C C4C 1_555 1_555
C1E C4E 1_555 1_555
C2A C5A 1_555 1_555
C2B C5B 1_555 1_555
C2H C5H 1_555 1_555
C2C C5C 1_555 1_555
C2E C5E 1_555 1_555
C4A C5A 1_555 1_555
C4B C5B 1_555 1_555
C4H C5H 1_555 1_555
C4C C5C 1_555 1_555
C4E C5E 1_555 1_555

#END
