
#######################################################################
#
#                 Cambridge Crystallographic Data Centre
#                                CCDC 
#
#######################################################################
#
# If this CIF has been generated from an entry in the Cambridge 
# Structural Database, then it will include bibliographic, chemical, 
# crystal, experimental, refinement or atomic coordinate data resulting 
# from the CCDC's data processing and validation procedures.
#
#######################################################################

data_TISPAO
_chemical_formula_moiety         '(C18 H6 Cu3 O12 S3)n,4.75n(S2)'
_chemical_name_systematic        
'catena-[bis(\m~6~-benzene-1,3,5-tricarboxylato)-tri-copper sulfur unknown solvate]'
_symmetry_cell_setting           cubic
_symmetry_space_group_name_H-M   'F m -3 m'
_symmetry_Int_Tables_number      225
_space_group_name_Hall           '-F 4 2 3'
loop_
_symmetry_equiv_pos_site_id
_symmetry_equiv_pos_as_xyz
1 x,y,z
2 -x,-y,z
3 -x,y,-z
4 x,-y,-z
5 z,x,y
6 z,-x,-y
7 -z,-x,y
8 -z,x,-y
9 y,z,x
10 -y,z,-x
11 y,-z,-x
12 -y,-z,x
13 y,x,-z
14 -y,-x,-z
15 y,-x,z
16 -y,x,z
17 x,z,-y
18 -x,z,y
19 -x,-z,-y
20 x,-z,y
21 z,y,-x
22 z,-y,x
23 -z,y,x
24 -z,-y,-x
25 x,1/2+y,1/2+z
26 -x,1/2-y,1/2+z
27 -x,1/2+y,1/2-z
28 x,1/2-y,1/2-z
29 z,1/2+x,1/2+y
30 z,1/2-x,1/2-y
31 -z,1/2-x,1/2+y
32 -z,1/2+x,1/2-y
33 y,1/2+z,1/2+x
34 -y,1/2+z,1/2-x
35 y,1/2-z,1/2-x
36 -y,1/2-z,1/2+x
37 y,1/2+x,1/2-z
38 -y,1/2-x,1/2-z
39 y,1/2-x,1/2+z
40 -y,1/2+x,1/2+z
41 x,1/2+z,1/2-y
42 -x,1/2+z,1/2+y
43 -x,1/2-z,1/2-y
44 x,1/2-z,1/2+y
45 z,1/2+y,1/2-x
46 z,1/2-y,1/2+x
47 -z,1/2+y,1/2+x
48 -z,1/2-y,1/2-x
49 1/2+x,y,1/2+z
50 1/2-x,-y,1/2+z
51 1/2-x,y,1/2-z
52 1/2+x,-y,1/2-z
53 1/2+z,x,1/2+y
54 1/2+z,-x,1/2-y
55 1/2-z,-x,1/2+y
56 1/2-z,x,1/2-y
57 1/2+y,z,1/2+x
58 1/2-y,z,1/2-x
59 1/2+y,-z,1/2-x
60 1/2-y,-z,1/2+x
61 1/2+y,x,1/2-z
62 1/2-y,-x,1/2-z
63 1/2+y,-x,1/2+z
64 1/2-y,x,1/2+z
65 1/2+x,z,1/2-y
66 1/2-x,z,1/2+y
67 1/2-x,-z,1/2-y
68 1/2+x,-z,1/2+y
69 1/2+z,y,1/2-x
70 1/2+z,-y,1/2+x
71 1/2-z,y,1/2+x
72 1/2-z,-y,1/2-x
73 1/2+x,1/2+y,z
74 1/2-x,1/2-y,z
75 1/2-x,1/2+y,-z
76 1/2+x,1/2-y,-z
77 1/2+z,1/2+x,y
78 1/2+z,1/2-x,-y
79 1/2-z,1/2-x,y
80 1/2-z,1/2+x,-y
81 1/2+y,1/2+z,x
82 1/2-y,1/2+z,-x
83 1/2+y,1/2-z,-x
84 1/2-y,1/2-z,x
85 1/2+y,1/2+x,-z
86 1/2-y,1/2-x,-z
87 1/2+y,1/2-x,z
88 1/2-y,1/2+x,z
89 1/2+x,1/2+z,-y
90 1/2-x,1/2+z,y
91 1/2-x,1/2-z,-y
92 1/2+x,1/2-z,y
93 1/2+z,1/2+y,-x
94 1/2+z,1/2-y,x
95 1/2-z,1/2+y,x
96 1/2-z,1/2-y,-x
97 -x,-y,-z
98 x,y,-z
99 x,-y,z
100 -x,y,z
101 -z,-x,-y
102 -z,x,y
103 z,x,-y
104 z,-x,y
105 -y,-z,-x
106 y,-z,x
107 -y,z,x
108 y,z,-x
109 -y,-x,z
110 y,x,z
111 -y,x,-z
112 y,-x,-z
113 -x,-z,y
114 x,-z,-y
115 x,z,y
116 -x,z,-y
117 -z,-y,x
118 -z,y,-x
119 z,-y,-x
120 z,y,x
121 -x,1/2-y,1/2-z
122 x,1/2+y,1/2-z
123 x,1/2-y,1/2+z
124 -x,1/2+y,1/2+z
125 -z,1/2-x,1/2-y
126 -z,1/2+x,1/2+y
127 z,1/2+x,1/2-y
128 z,1/2-x,1/2+y
129 -y,1/2-z,1/2-x
130 y,1/2-z,1/2+x
131 -y,1/2+z,1/2+x
132 y,1/2+z,1/2-x
133 -y,1/2-x,1/2+z
134 y,1/2+x,1/2+z
135 -y,1/2+x,1/2-z
136 y,1/2-x,1/2-z
137 -x,1/2-z,1/2+y
138 x,1/2-z,1/2-y
139 x,1/2+z,1/2+y
140 -x,1/2+z,1/2-y
141 -z,1/2-y,1/2+x
142 -z,1/2+y,1/2-x
143 z,1/2-y,1/2-x
144 z,1/2+y,1/2+x
145 1/2-x,-y,1/2-z
146 1/2+x,y,1/2-z
147 1/2+x,-y,1/2+z
148 1/2-x,y,1/2+z
149 1/2-z,-x,1/2-y
150 1/2-z,x,1/2+y
151 1/2+z,x,1/2-y
152 1/2+z,-x,1/2+y
153 1/2-y,-z,1/2-x
154 1/2+y,-z,1/2+x
155 1/2-y,z,1/2+x
156 1/2+y,z,1/2-x
157 1/2-y,-x,1/2+z
158 1/2+y,x,1/2+z
159 1/2-y,x,1/2-z
160 1/2+y,-x,1/2-z
161 1/2-x,-z,1/2+y
162 1/2+x,-z,1/2-y
163 1/2+x,z,1/2+y
164 1/2-x,z,1/2-y
165 1/2-z,-y,1/2+x
166 1/2-z,y,1/2-x
167 1/2+z,-y,1/2-x
168 1/2+z,y,1/2+x
169 1/2-x,1/2-y,-z
170 1/2+x,1/2+y,-z
171 1/2+x,1/2-y,z
172 1/2-x,1/2+y,z
173 1/2-z,1/2-x,-y
174 1/2-z,1/2+x,y
175 1/2+z,1/2+x,-y
176 1/2+z,1/2-x,y
177 1/2-y,1/2-z,-x
178 1/2+y,1/2-z,x
179 1/2-y,1/2+z,x
180 1/2+y,1/2+z,-x
181 1/2-y,1/2-x,z
182 1/2+y,1/2+x,z
183 1/2-y,1/2+x,-z
184 1/2+y,1/2-x,-z
185 1/2-x,1/2-z,y
186 1/2+x,1/2-z,-y
187 1/2+x,1/2+z,y
188 1/2-x,1/2+z,-y
189 1/2-z,1/2-y,x
190 1/2-z,1/2+y,-x
191 1/2+z,1/2-y,-x
192 1/2+z,1/2+y,x
_cell_length_a                   26.3657(9)
_cell_length_b                   26.3657(9)
_cell_length_c                   26.3657(9)
_cell_angle_alpha                90
_cell_angle_beta                 90
_cell_angle_gamma                90
_cell_volume                     18328.1
_exptl_crystal_colour            blue
_exptl_crystal_description       block
_cell_formula_units_Z            16
loop_
_atom_site_label
_atom_site_type_symbol
_atom_site_fract_x
_atom_site_fract_y
_atom_site_fract_z
_atom_site_U_iso_or_equiv
_atom_site_thermal_displace_type
Cu1 Cu 0.28491(4) 0.71509(4) 0.0000 0.0502 Uani
O1 O 0.24354(17) 0.68321(17) 0.05255(17) 0.0670 Uani
C1 C 0.2041(3) 0.7041(3) 0.0692(3) 0.0583 Uani
C2 C 0.1784(2) 0.6784(2) 0.1141(3) 0.0610 Uani
C3 C 0.1358(2) 0.7004(4) 0.1358(2) 0.0637 Uani
H1 H 0.1220 0.7298 0.1220 0.0760 Uiso
S1 S 0.3459(4) 0.6541(4) 0.0000 0.1723 Uani
O1BA O 0.05255(17) 0.74354(17) 0.18321(17) 0.0670 Uani
C1BA C 0.0692(3) 0.7041(3) 0.2041(3) 0.0583 Uani
C2BA C 0.1141(3) 0.6784(2) 0.1784(2) 0.0610 Uani
C3BA C 0.1358(2) 0.6358(2) 0.2004(4) 0.0637 Uani
H1BA H 0.1220 0.6220 0.2298 0.0760 Uiso
O1BC O 0.18321(17) 0.55255(17) 0.24354(17) 0.0670 Uani
C1BC C 0.2041(3) 0.5692(3) 0.2041(3) 0.0583 Uani
C2BC C 0.1784(2) 0.6141(3) 0.1784(2) 0.0610 Uani
C3BC C 0.2004(4) 0.6358(2) 0.1358(2) 0.0637 Uani
H1BC H 0.2298 0.6220 0.1220 0.0760 Uiso
O1OD O 0.05255(17) 0.68321(17) 0.24354(17) 0.0670 Uani
O1HE O 0.24354(17) 0.55255(17) 0.18321(17) 0.0670 Uani
O1YF O 0.18321(17) 0.74354(17) 0.05255(17) 0.0670 Uani
Cu1E Cu 0.0000 0.71509(4) 0.28491(4) 0.0502 Uani
O1E O 0.05255(17) 0.75646(17) 0.31679(17) 0.0670 Uani
C1E C 0.0692(3) 0.7959(3) 0.2959(3) 0.0583 Uani
C2E C 0.1141(3) 0.8216(2) 0.3216(2) 0.0610 Uani
C3E C 0.1358(2) 0.8642(2) 0.2996(4) 0.0637 Uani
H1E H 0.1220 0.8780 0.2702 0.0760 Uiso
S1E S 0.0000 0.6541(4) 0.3459(4) 0.1723 Uani
O1FB O 0.18321(17) 0.94745(17) 0.25646(17) 0.0670 Uani
C1FB C 0.2041(3) 0.9308(3) 0.2959(3) 0.0583 Uani
C2FB C 0.1784(2) 0.8859(3) 0.3216(2) 0.0610 Uani
C3FB C 0.2004(4) 0.8642(2) 0.3642(2) 0.0637 Uani
H1FB H 0.2298 0.8780 0.3780 0.0760 Uiso
O1AA O 0.24354(17) 0.81679(17) 0.44745(17) 0.0670 Uani
C1AA C 0.2041(3) 0.7959(3) 0.4308(3) 0.0583 Uani
C2AA C 0.1784(2) 0.8216(2) 0.3859(3) 0.0610 Uani
C3AA C 0.1358(2) 0.7996(4) 0.3642(2) 0.0637 Uani
H1AA H 0.1220 0.7702 0.3780 0.0760 Uiso
O1ID O 0.24354(17) 0.94745(17) 0.31679(17) 0.0670 Uani
O1CF O 0.18321(17) 0.75646(17) 0.44745(17) 0.0670 Uani
O1LE O 0.05255(17) 0.81679(17) 0.25646(17) 0.0670 Uani
Cu1K Cu 0.28491(4) 1.0000 0.28491(4) 0.0502 Uani
S1K S 0.3459(4) 1.0000 0.3459(4) 0.1723 Uani
Cu1AA Cu 0.28491(4) 0.78491(4) 0.5000 0.0502 Uani
Cu1BA Cu 0.0000 0.78491(4) 0.21509(4) 0.0502 Uani
Cu1GA Cu 0.28491(4) 0.5000 0.21509(4) 0.0502 Uani
Cu1XA Cu 0.21509(4) 0.71509(4) 0.5000 0.0502 Uani
Cu1FB Cu 0.21509(4) 1.0000 0.21509(4) 0.0502 Uani
Cu1UB Cu 0.21509(4) 0.78491(4) 0.0000 0.0502 Uani
Cu1BC Cu 0.21509(4) 0.5000 0.28491(4) 0.0502 Uani
O1K O 0.31679(17) 0.94745(17) 0.24354(17) 0.0670 Uani
O1M O 0.31679(17) 0.75646(17) -0.05255(17) 0.0670 Uani
O1P O 0.24354(17) 1.05255(17) 0.31679(17) 0.0670 Uani
O1V O -0.05255(17) 0.68321(17) 0.24354(17) 0.0670 Uani
O1SC O 0.24354(17) 0.68321(17) -0.05255(17) 0.0670 Uani
O1VC O -0.05255(17) 0.75646(17) 0.31679(17) 0.0670 Uani
O1BD O 0.31679(17) 1.05255(17) 0.24354(17) 0.0670 Uani
O1DD O 0.31679(17) 0.75646(17) 0.05255(17) 0.0670 Uani
S2 S 0.2388(10) 0.5629(6) 0.0000 0.1470 Uani
S3 S 0.1689(12) 0.5857(7) 0.0000 0.1863 Uani
S4? S 0.1056(9) 0.8361(13) 0.1056(9) 0.2530 Uiso
S5? S 0.1335(16) 0.5647(11) -0.0473(16) 0.2543 Uani
loop_
_atom_site_aniso_label
_atom_site_aniso_U_11
_atom_site_aniso_U_22
_atom_site_aniso_U_33
_atom_site_aniso_U_23
_atom_site_aniso_U_13
_atom_site_aniso_U_12
Cu1 0.0539(8) 0.0539(8) 0.0429(9) 0.000 0.000 0.0184(7)
O1 0.069(3) 0.069(3) 0.063(3) 0.014(2) 0.012(2) 0.018(2)
C1 0.067(4) 0.067(4) 0.041(5) 0.001(3) 0.001(3) 0.014(5)
C2 0.063(3) 0.063(3) 0.057(5) 0.004(3) 0.004(3) 0.004(5)
C3 0.061(3) 0.069(6) 0.061(3) 0.009(3) 0.005(5) 0.009(3)
S1 0.129(7) 0.129(7) 0.259(19) 0.000 0.000 0.026(9)
O1BA 0.063 0.069 0.069 0.018 0.014 0.012
C1BA 0.041 0.067 0.067 0.014 0.001 0.001
C2BA 0.057 0.063 0.063 0.004 0.004 0.004
C3BA 0.061 0.061 0.069 0.009 0.009 0.005
O1BC 0.069 0.063 0.069 0.012 0.018 0.014
C1BC 0.067 0.041 0.067 0.001 0.014 0.001
C2BC 0.063 0.057 0.063 0.004 0.004 0.004
C3BC 0.069 0.061 0.061 0.005 0.009 0.009
O1OD 0.063 0.069 0.069 0.018 0.012 0.014
O1HE 0.069 0.063 0.069 0.014 0.018 0.012
O1YF 0.069 0.069 0.063 0.012 0.014 0.018
Cu1E 0.0429 0.0539 0.0539 0.0184 0 0
O1E 0.063 0.069 0.069 0.018 -0.014 -0.012
C1E 0.041 0.067 0.067 0.014 -0.001 -0.001
C2E 0.057 0.063 0.063 0.004 -0.004 -0.004
C3E 0.061 0.061 0.069 0.009 -0.009 -0.005
S1E 0.259 0.129 0.129 0.026 0 0
O1FB 0.069 0.063 0.069 0.012 -0.018 -0.014
C1FB 0.067 0.041 0.067 0.001 -0.014 -0.001
C2FB 0.063 0.057 0.063 0.004 -0.004 -0.004
C3FB 0.069 0.061 0.061 0.005 -0.009 -0.009
O1AA 0.069 0.069 0.063 0.014 -0.012 -0.018
C1AA 0.067 0.067 0.041 0.001 -0.001 -0.014
C2AA 0.063 0.063 0.057 0.004 -0.004 -0.004
C3AA 0.061 0.069 0.061 0.009 -0.005 -0.009
O1ID 0.069 0.063 0.069 0.014 -0.018 -0.012
O1CF 0.069 0.069 0.063 0.012 -0.014 -0.018
O1LE 0.063 0.069 0.069 0.018 -0.012 -0.014
Cu1K 0.0539 0.0429 0.0539 0 -0.0184 0
S1K 0.129 0.259 0.129 0 -0.026 0
Cu1AA 0.0539 0.0539 0.0429 0 0 -0.0184
Cu1BA 0.0429 0.0539 0.0539 0.0184 0 0
Cu1GA 0.0539 0.0429 0.0539 0 0.0184 0
Cu1XA 0.0539 0.0539 0.0429 0 0 -0.0184
Cu1FB 0.0539 0.0429 0.0539 0 -0.0184 0
Cu1UB 0.0539 0.0539 0.0429 0 0 0.0184
Cu1BC 0.0539 0.0429 0.0539 0 0.0184 0
O1K 0.069 0.063 0.069 -0.012 -0.018 0.014
O1M 0.069 0.069 0.063 0.012 0.014 0.018
O1P 0.069 0.063 0.069 -0.014 -0.018 0.012
O1V 0.063 0.069 0.069 0.018 -0.012 -0.014
O1SC 0.069 0.069 0.063 -0.014 -0.012 0.018
O1VC 0.063 0.069 0.069 0.018 0.014 0.012
O1BD 0.069 0.063 0.069 0.012 -0.018 -0.014
O1DD 0.069 0.069 0.063 -0.012 -0.014 0.018
S2 0.23(2) 0.066(9) 0.145(15) 0.000 0.000 -0.048(12)
S3 0.28(3) 0.069(11) 0.21(3) 0.000 0.000 -0.075(15)
S5? 0.42 0.073 0.27 0.07 0.25 0.05
loop_
_geom_bond_atom_site_label_1
_geom_bond_atom_site_label_2
_geom_bond_site_symmetry_1
_geom_bond_site_symmetry_2
Cu1 O1 1_555 1_555
O1 C1 1_555 1_555
C1 C2 1_555 1_555
C2 C3 1_555 1_555
C3 H1 1_555 1_555
S1 Cu1 1_555 1_555
S2 S3 1_555 1_555
O1BA C1BA 1_555 1_555
C1BA C2BA 1_555 1_555
C2BA C3 1_555 1_555
C3BA C2BA 1_555 1_555
H1BA C3BA 1_555 1_555
O1BC C1BC 1_555 1_555
C1BC C2BC 1_555 1_555
C2BC C3BA 1_555 1_555
C3BC C2 1_555 1_555
H1BC C3BC 1_555 1_555
O1OD C1BA 1_555 1_555
O1HE C1BC 1_555 1_555
O1YF C1 1_555 1_555
Cu1E O1OD 1_555 1_555
O1E Cu1E 1_555 1_555
C1E O1E 1_555 1_555
C2E C1E 1_555 1_555
C3E C2E 1_555 1_555
H1E C3E 1_555 1_555
S1E Cu1E 1_555 1_555
O1FB C1FB 1_555 1_555
C1FB C2FB 1_555 1_555
C2FB C3E 1_555 1_555
C3FB C2FB 1_555 1_555
H1FB C3FB 1_555 1_555
O1AA C1AA 1_555 1_555
C1AA C2AA 1_555 1_555
C2AA C3FB 1_555 1_555
C3AA C2E 1_555 1_555
H1AA C3AA 1_555 1_555
O1ID C1FB 1_555 1_555
O1CF C1AA 1_555 1_555
O1LE C1E 1_555 1_555
Cu1K O1ID 1_555 1_555
S1K Cu1K 1_555 1_555
Cu1AA O1AA 1_555 1_555
Cu1BA O1BA 1_555 1_555
Cu1GA O1HE 1_555 1_555
Cu1XA O1CF 1_555 1_555
Cu1FB O1FB 1_555 1_555
Cu1UB Cu1 1_555 1_555
Cu1BC O1BC 1_555 1_555
O1K Cu1K 1_555 1_555
O1M Cu1 1_555 1_555
O1P Cu1K 1_555 1_555
O1V Cu1E 1_555 1_555
O1SC Cu1 1_555 1_555
O1VC Cu1E 1_555 1_555
O1BD Cu1K 1_555 1_555
O1DD Cu1 1_555 1_555
C2BC C3BC 1_555 1_555
O1YF Cu1UB 1_555 1_555
Cu1E Cu1BA 1_555 1_555
C2AA C3AA 1_555 1_555
O1LE Cu1BA 1_555 1_555
Cu1K Cu1FB 1_555 1_555
Cu1AA Cu1XA 1_555 1_555
Cu1GA Cu1BC 1_555 1_555

#END
