
#######################################################################
#
#                 Cambridge Crystallographic Data Centre
#                                CCDC 
#
#######################################################################
#
# If this CIF has been generated from an entry in the Cambridge 
# Structural Database, then it will include bibliographic, chemical, 
# crystal, experimental, refinement or atomic coordinate data resulting 
# from the CCDC's data processing and validation procedures.
#
#######################################################################

data_FEGNIQ
_chemical_formula_moiety         
'(C42 H25 N4 O14 Zn2 1-)n,n(C2 H6 N1 1+),2n(C3 H7 N1 O1),4n(H2 O1)'
_chemical_name_systematic        
"catena-(Dimethylammonium (\m~4~-benzene-1,3,5-tricarboxylato)-(\m~2~-hydrogen benzene-1,3,5-tricarboxylato)-(\m~2~-N^4^,N^4^-bis(3-pyridyl)-1,1'-biphenyl-4,4'-dicarboxamide)-di-zinc dimethylformamide solvate tetrahydrate)"
_symmetry_cell_setting           monoclinic
_symmetry_space_group_name_H-M   'C 2/m'
_symmetry_Int_Tables_number      12
_space_group_name_Hall           '-C 2y'
loop_
_symmetry_equiv_pos_site_id
_symmetry_equiv_pos_as_xyz
1 x,y,z
2 -x,y,-z
3 1/2+x,1/2+y,z
4 1/2-x,1/2+y,-z
5 -x,-y,-z
6 x,-y,z
7 1/2-x,1/2-y,-z
8 1/2+x,1/2-y,z
_cell_length_a                   13.0843(2)
_cell_length_b                   25.4045(4)
_cell_length_c                   16.3416(3)
_cell_angle_alpha                90
_cell_angle_beta                 93.9740(10)
_cell_angle_gamma                90
_cell_volume                     5418.89
_exptl_crystal_colour            colorless
_exptl_crystal_description       block
_cell_formula_units_Z            4
loop_
_atom_site_label
_atom_site_type_symbol
_atom_site_fract_x
_atom_site_fract_y
_atom_site_fract_z
C25 C 0.5128(6) 0.0000 0.2756(4)
C26 C 0.4464(6) -0.0481(2) 0.1550(4)
H13 H 0.4436 -0.0770 0.1927
H14 H 0.3809 -0.0442 0.1253
H15 H 0.4978 -0.0550 0.1172
N3 N 0.4717(4) 0.0000 0.2002(3)
O8 O 0.5383(5) -0.0524(2) 0.3056(3)
C26E C 0.4464(6) 0.0481(2) 0.1550(4)
H13E H 0.4436 0.0770 0.1927
H14E H 0.3809 0.0442 0.1253
H15E H 0.4978 0.0550 0.1172
O8E O 0.5383(5) 0.0524(2) 0.3056(3)
C1 C 0.54776(16) -0.21683(9) 0.47782(13)
C2 C 0.67354(17) -0.26182(9) 0.40145(14)
H1 H 0.6972 -0.2929 0.3793
C3 C 1.2220(3) 0.0000 0.2747(2)
H2 H 1.1867 0.0000 0.2233
C4 C 1.22458(17) -0.09898(8) 0.26943(14)
C5 C 0.82948(17) -0.32874(9) 0.06082(15)
C6 C 0.94466(16) -0.25900(9) 0.26655(13)
C7 C 0.91795(15) -0.29896(9) 0.02906(12)
C8 C 1.11943(16) -0.27095(9) 0.18648(13)
H3 H 1.1791 -0.2752 0.1593
C9 C 0.72654(16) -0.21543(9) 0.39181(14)
C10 C 0.58561(17) -0.26239(9) 0.44378(14)
H4 H 0.5510 -0.2940 0.4496
C11 C 0.82156(18) -0.21052(10) 0.34581(15)
C12 C 0.99493(16) -0.21631(9) 0.23377(13)
H5 H 0.9682 -0.1827 0.2391
C13 C 1.0000 -0.32610(13) 0.0000
H6 H 1.0000 -0.3627 0.0000
C14 C 0.98494(17) -0.30890(9) 0.25754(14)
H7 H 0.9529 -0.3381 0.2786
C15 C 1.2973(2) -0.04720(10) 0.38985(16)
H8 H 1.3153 -0.0789 0.4155
C16 C 0.6902(2) -0.16993(10) 0.42625(18)
H9 H 0.7254 -0.1385 0.4209
C17 C 1.24769(19) -0.04760(9) 0.31204(14)
C18 C 1.07296(18) -0.31465(10) 0.21710(15)
H10 H 1.1010 -0.3479 0.2105
C19 C 1.3205(4) 0.0000 0.4298(2)
C20 C 1.0000 -0.21696(12) 0.0000
C21 C 0.91798(15) -0.24446(8) 0.02881(12)
H11 H 0.8629 -0.2262 0.0480
C22 C 1.3685(4) 0.0000 0.5153(3)
C23 C 0.6025(2) -0.17056(10) 0.46827(16)
H12 H 0.5794 -0.1394 0.4907
C24 C 1.0000 -0.15799(11) 0.0000
N1 N 1.08112(13) -0.22271(7) 0.19471(10)
N2 N 0.85458(14) -0.25409(8) 0.30873(12)
H16 H 0.8169 -0.2817 0.3110
O1 O 1.26423(13) -0.13971(6) 0.29660(11)
O2 O 1.16410(13) -0.09651(6) 0.20457(10)
O3 O 1.3855(3) -0.04295(9) 0.55028(15)
O4 O 0.86718(18) -0.16889(8) 0.34337(17)
O5 O 0.76940(11) -0.30156(6) 0.10246(10)
O6 O 0.81741(16) -0.37543(8) 0.04569(16)
O7 O 1.05888(12) -0.13374(6) 0.05091(10)
Zn1 Zn 1.15353(2) -0.161210(9) 0.142030(14)
C1A C 0.45224(16) -0.21683(9) 0.52218(13)
C2A C 0.32646(17) -0.26182(9) 0.59855(14)
H1A H 0.3028 -0.2929 0.6207
C4E C 1.22458(17) 0.09898(8) 0.26943(14)
C5A C 1.17052(17) -0.32874(9) -0.06082(15)
C6A C 0.05534(16) -0.25900(9) 0.73345(13)
C7A C 1.08205(15) -0.29896(9) -0.02906(12)
C8A C -0.11943(16) -0.27095(9) 0.81352(13)
H3A H -0.1791 -0.2752 0.8407
C9A C 0.27346(16) -0.21543(9) 0.60819(14)
C10A C 0.41439(17) -0.26239(9) 0.55622(14)
H4A H 0.4490 -0.2940 0.5504
C11A C 0.17844(18) -0.21052(10) 0.65419(15)
C12A C 0.00507(16) -0.21631(9) 0.76623(13)
H5A H 0.0318 -0.1827 0.7609
C14A C 0.01506(17) -0.30890(9) 0.74246(14)
H7A H 0.0471 -0.3381 0.7214
C15E C 1.2973(2) 0.04720(10) 0.38985(16)
H8E H 1.3153 0.0789 0.4155
C16A C 0.3098(2) -0.16993(10) 0.57375(18)
H9A H 0.2746 -0.1385 0.5791
C17E C 1.24769(19) 0.04760(9) 0.31204(14)
C18A C -0.07296(18) -0.31465(10) 0.78290(15)
H10A H -0.1010 -0.3479 0.7895
C21A C 1.08202(15) -0.24446(8) -0.02881(12)
H11A H 1.1371 -0.2262 -0.0480
C23A C 0.3975(2) -0.17056(10) 0.53173(16)
H12A H 0.4206 -0.1394 0.5093
N1A N -0.08112(13) -0.22271(7) 0.80529(10)
N1A_2 N 0.91888(13) -0.22271(7) -0.19471(10)
N2A N 0.14542(14) -0.25409(8) 0.69127(12)
H16A H 0.1831 -0.2817 0.6890
O1E O 1.26423(13) 0.13971(6) 0.29660(11)
O2E O 1.16410(13) 0.09651(6) 0.20457(10)
O2A O 0.83590(13) -0.09651(6) -0.20457(10)
O3E O 1.3855(3) 0.04295(9) 0.55028(15)
O4A O 0.13282(18) -0.16889(8) 0.65663(17)
O5A O 1.23060(11) -0.30156(6) -0.10246(10)
O5G O 1.26940(11) -0.19844(6) 0.10246(10)
O5F O 0.73060(11) -0.19844(6) -0.10246(10)
O6A O 1.18259(16) -0.37543(8) -0.04569(16)
O7A O 0.94112(12) -0.13374(6) -0.05091(10)
Zn1A Zn -0.15353(2) -0.161210(9) 0.857970(14)
Zn1G Zn 0.65353(2) -0.338790(9) 0.142030(14)
Zn1E Zn 1.15353(2) 0.161210(9) 0.142030(14)
Zn1F Zn 1.34647(2) -0.338790(9) -0.142030(14)
Zn1A_2 Zn 0.84647(2) -0.161210(9) -0.142030(14)
loop_
_geom_bond_atom_site_label_1
_geom_bond_atom_site_label_2
_geom_bond_site_symmetry_1
_geom_bond_site_symmetry_2
C1 C10 1_555 1_555
C2 H1 1_555 1_555
C3 H2 1_555 1_555
C4 C17 1_555 1_555
C5 C7 1_555 1_555
C6 C12 1_555 1_555
C7 C13 1_555 1_555
C8 H3 1_555 1_555
C9 C2 1_555 1_555
C10 C2 1_555 1_555
H4 C10 1_555 1_555
C11 C9 1_555 1_555
C12 H5 1_555 1_555
C13 H6 1_555 1_555
C14 C6 1_555 1_555
H7 C14 1_555 1_555
C15 H8 1_555 1_555
C16 C9 1_555 1_555
H9 C16 1_555 1_555
C17 C3 1_555 1_555
C18 C8 1_555 1_555
H10 C18 1_555 1_555
C19 C15 1_555 1_555
C20 C21 1_555 1_555
C21 C7 1_555 1_555
H11 C21 1_555 1_555
C22 C19 1_555 1_555
C23 C1 1_555 1_555
H12 C23 1_555 1_555
C24 C20 1_555 1_555
C25 N3 1_555 1_555
C26 H13 1_555 1_555
H14 C26 1_555 1_555
H15 C26 1_555 1_555
N1 C8 1_555 1_555
N2 C6 1_555 1_555
H16 N2 1_555 1_555
N3 C26 1_555 1_555
O1 C4 1_555 1_555
O2 C4 1_555 1_555
O3 C22 1_555 1_555
O4 C11 1_555 1_555
O5 C5 1_555 1_555
O6 C5 1_555 1_555
O7 C24 1_555 1_555
O8 C25 1_555 1_555
Zn1 N1 1_555 1_555
C1A C1 1_555 1_555
C2A H1A 1_555 1_555
C4E C17E 1_555 1_555
C5A C7A 1_555 1_555
C6A C12A 1_555 1_555
C7A C13 1_555 1_555
C8A H3A 1_555 1_555
C9A C2A 1_555 1_555
C10A C1A 1_555 1_555
H4A C10A 1_555 1_555
C11A C9A 1_555 1_555
C12A H5A 1_555 1_555
C14A C6A 1_555 1_555
H7A C14A 1_555 1_555
C15E C19 1_555 1_555
H8E C15E 1_555 1_555
C16A C9A 1_555 1_555
H9A C16A 1_555 1_555
C17E C3 1_555 1_555
C18A C8A 1_555 1_555
H10A C18A 1_555 1_555
C21A C20 1_555 1_555
H11A C21A 1_555 1_555
C23A C1A 1_555 1_555
H12A C23A 1_555 1_555
C26E N3 1_555 1_555
H13E C26E 1_555 1_555
H14E C26E 1_555 1_555
H15E C26E 1_555 1_555
N1A C8A 1_555 1_555
N1A_2 Zn1A_2 1_555 1_555
N2A C6A 1_555 1_555
H16A N2A 1_555 1_555
O1E C4E 1_555 1_555
O2E C4E 1_555 1_555
O2A Zn1A_2 1_555 1_555
O3E C22 1_555 1_555
O4A C11A 1_555 1_555
O5A C5A 1_555 1_555
O5G Zn1 1_555 1_555
O5F Zn1A_2 1_555 1_555
O6A C5A 1_555 1_555
O7A C24 1_555 1_555
O8E C25 1_555 1_555
Zn1A N1A 1_555 1_555
Zn1G O5 1_555 1_555
Zn1E O2E 1_555 1_555
Zn1F O5A 1_555 1_555
Zn1A_2 O7A 1_555 1_555
C11 N2 1_555 1_555
C12 N1 1_555 1_555
C14 C18 1_555 1_555
C15 C17 1_555 1_555
C16 C23 1_555 1_555
O2 Zn1 1_555 1_555
O7 Zn1 1_555 1_555
C2A C10A 1_555 1_555
C7A C21A 1_555 1_555
C11A N2A 1_555 1_555
C12A N1A 1_555 1_555
C14A C18A 1_555 1_555
C15E C17E 1_555 1_555
C16A C23A 1_555 1_555

#END
