
#######################################################################
#
#                 Cambridge Crystallographic Data Centre
#                                CCDC 
#
#######################################################################
#
# If this CIF has been generated from an entry in the Cambridge 
# Structural Database, then it will include bibliographic, chemical, 
# crystal, experimental, refinement or atomic coordinate data resulting 
# from the CCDC's data processing and validation procedures.
#
#######################################################################

data_DOGKAM
_chemical_formula_moiety         '(C20 H16 Cu1 N4 O6 S2)n,n(C3 H8 O1)'
_chemical_name_systematic        
"catena-[(\m~2~-4,4'-Bipyridine-N,N')-bis(2-pyridinesulfonato-N,O)-copper(ii) isopropanol clathrate]"
_symmetry_cell_setting           monoclinic
_symmetry_space_group_name_H-M   'P 2/n'
_symmetry_Int_Tables_number      13
_space_group_name_Hall           '-P 2yac'
loop_
_symmetry_equiv_pos_site_id
_symmetry_equiv_pos_as_xyz
1 x,y,z
2 1/2-x,y,1/2-z
3 -x,-y,-z
4 1/2+x,-y,1/2+z
_cell_length_a                   10.840(5)
_cell_length_b                   11.144(5)
_cell_length_c                   10.864(5)
_cell_angle_alpha                90
_cell_angle_beta                 102.604(8)
_cell_angle_gamma                90
_cell_volume                     1280.76
_exptl_crystal_colour            blue
_exptl_crystal_description       block
_cell_formula_units_Z            2
loop_
_atom_site_label
_atom_site_type_symbol
_atom_site_fract_x
_atom_site_fract_y
_atom_site_fract_z
Cu1 Cu 0.2500 0.35091(4) 0.2500
S1 S -0.05110(7) 0.32960(7) 0.16802(7)
O1 O 0.05789(19) 0.33835(17) 0.11026(19)
O2 O -0.1179(2) 0.2177(2) 0.1430(2)
O3 O -0.1308(2) 0.4345(2) 0.1457(2)
N1 N 0.1373(2) 0.35182(19) 0.3756(2)
N2 N 0.2500 0.5340(3) 0.2500
N3 N 0.2500 1.1667(3) 0.2500
C1 C 0.0125(3) 0.3326(3) 0.3356(3)
C2 C -0.0698(3) 0.3250(3) 0.4163(3)
H1 H -0.1572 0.3095 0.3854
C3 C -0.0199(4) 0.3410(4) 0.5439(4)
H2 H -0.0730 0.3353 0.6027
C4 C 0.1077(4) 0.3651(4) 0.5855(3)
H3 H 0.1423 0.3793 0.6725
C5 C 0.1838(3) 0.3683(3) 0.4996(3)
H4 H 0.2718 0.3826 0.5286
C6 C 0.1615(3) 0.5959(3) 0.1691(3)
H5 H 0.0986 0.5528 0.1112
C7 C 0.1585(3) 0.7195(3) 0.1666(3)
H6 H 0.0941 0.7603 0.1083
C8 C 0.2500 0.7841(3) 0.2500
C9 C 0.2500 0.9165(3) 0.2500
C10 C 0.2056(3) 0.9811(3) 0.1393(3)
H7 H 0.1742 0.9405 0.0619
C11 C 0.2077(3) 1.1047(3) 0.1437(3)
H8 H 0.1778 1.1480 0.0677
C7A C 0.3415(3) 0.7195(3) 0.3334(3)
C6A C 0.3385(3) 0.5959(3) 0.3309(3)
H5A H 0.4014 0.5528 0.3888
H6A H 0.4059 0.7603 0.3917
C11A C 0.2923(3) 1.1047(3) 0.3563(3)
C10A C 0.2944(3) 0.9811(3) 0.3607(3)
H7A H 0.3258 0.9405 0.4381
H8A H 0.3222 1.1480 0.4323
S1A S 0.55110(7) 0.32960(7) 0.33198(7)
O1A O 0.44211(19) 0.33835(17) 0.38974(19)
O2A O 0.6179(2) 0.2177(2) 0.3570(2)
O3A O 0.6308(2) 0.4345(2) 0.3543(2)
N1A N 0.3627(2) 0.35182(19) 0.1244(2)
C1A C 0.4875(3) 0.3326(3) 0.1644(3)
C2A C 0.5698(3) 0.3250(3) 0.0837(3)
H1A H 0.6572 0.3095 0.1146
C3A C 0.5199(4) 0.3410(4) -0.0439(4)
H2A H 0.5730 0.3353 -0.1027
C4A C 0.3923(4) 0.3651(4) -0.0855(3)
H3A H 0.3577 0.3793 -0.1725
C5A C 0.3162(3) 0.3683(3) 0.0004(3)
H4A H 0.2282 0.3826 -0.0286
N3_2 N 0.2500 0.1667(3) 0.2500
Cu1_2 Cu 0.2500 1.35091(4) 0.2500
C12? C -0.1727(17) -0.0772(13) 0.2510(15)
H9? H -0.1836 -0.1665 0.2496
C13? C -0.091(2) -0.0371(19) 0.3777(17)
H10? H -0.0035 -0.0613 0.3861
H11? H -0.1250 -0.0707 0.4469
H12? H -0.0946 0.0522 0.3833
C14? C -0.293(2) -0.013(3) 0.194(4)
H13? H -0.2969 0.0038 0.1079
H14? H -0.2941 0.0626 0.2428
H15? H -0.3636 -0.0633 0.2063
O4? O -0.1040(13) -0.0450(11) 0.1632(12)
H16? H -0.1058 0.0335 0.1568
loop_
_geom_bond_atom_site_label_1
_geom_bond_atom_site_label_2
_geom_bond_site_symmetry_1
_geom_bond_site_symmetry_2
Cu1 O1 1_555 1_555
S1 O1 1_555 1_555
O2 S1 1_555 1_555
O3 S1 1_555 1_555
N1 Cu1 1_555 1_555
N2 Cu1 1_555 1_555
N3 C11 1_555 1_555
C1 S1 1_555 1_555
C2 C1 1_555 1_555
H1 C2 1_555 1_555
C3 C2 1_555 1_555
H2 C3 1_555 1_555
C4 C3 1_555 1_555
H3 C4 1_555 1_555
C5 N1 1_555 1_555
H4 C5 1_555 1_555
C6 N2 1_555 1_555
H5 C6 1_555 1_555
C7 C6 1_555 1_555
H6 C7 1_555 1_555
C8 C7 1_555 1_555
C9 C8 1_555 1_555
C10 C9 1_555 1_555
H7 C10 1_555 1_555
C11 C10 1_555 1_555
H8 C11 1_555 1_555
C7A C8 1_555 1_555
C6A N2 1_555 1_555
H5A C6A 1_555 1_555
H6A C7A 1_555 1_555
C11A N3 1_555 1_555
C10A C9 1_555 1_555
H7A C10A 1_555 1_555
H8A C11A 1_555 1_555
S1A O1A 1_555 1_555
O1A Cu1 1_555 1_555
O2A S1A 1_555 1_555
O3A S1A 1_555 1_555
N1A Cu1 1_555 1_555
C1A S1A 1_555 1_555
C2A C1A 1_555 1_555
H1A C2A 1_555 1_555
C3A C2A 1_555 1_555
H2A C3A 1_555 1_555
C4A C3A 1_555 1_555
H3A C4A 1_555 1_555
C5A N1A 1_555 1_555
H4A C5A 1_555 1_555
N3_2 Cu1 1_555 1_555
Cu1_2 N3 1_555 1_555
N1 C1 1_555 1_555
C4 C5 1_555 1_555
C7A C6A 1_555 1_555
C11A C10A 1_555 1_555
N1A C1A 1_555 1_555
C4A C5A 1_555 1_555

#END
