
#######################################################################
#
#                 Cambridge Crystallographic Data Centre
#                                CCDC 
#
#######################################################################
#
# If this CIF has been generated from an entry in the Cambridge 
# Structural Database, then it will include bibliographic, chemical, 
# crystal, experimental, refinement or atomic coordinate data resulting 
# from the CCDC's data processing and validation procedures.
#
#######################################################################

data_DOLDAK
_chemical_formula_moiety         '(C20 H16 Cu1 N4 O6 S2)n,n(C1 H4 O1)'
_chemical_name_systematic        
"catena-[(\m~2~-4,4'-Bipyridine-N,N')-bis(2-pyridinesulfonato-N,O)-copper(ii) methanol clathrate]"
_symmetry_cell_setting           monoclinic
_symmetry_space_group_name_H-M   'P 2/n'
_symmetry_Int_Tables_number      13
_space_group_name_Hall           '-P 2yac'
loop_
_symmetry_equiv_pos_site_id
_symmetry_equiv_pos_as_xyz
1 x,y,z
2 1/2-x,y,1/2-z
3 -x,-y,-z
4 1/2+x,-y,1/2+z
_cell_length_a                   10.748(5)
_cell_length_b                   11.127(6)
_cell_length_c                   10.840(6)
_cell_angle_alpha                90
_cell_angle_beta                 102.400(9)
_cell_angle_gamma                90
_cell_volume                     1266.15
_exptl_crystal_colour            blue
_exptl_crystal_description       block
_cell_formula_units_Z            2
loop_
_atom_site_label
_atom_site_type_symbol
_atom_site_fract_x
_atom_site_fract_y
_atom_site_fract_z
Cu1 Cu 0.7500 0.65178(6) 0.7500
S1 S 0.83114(10) 0.67205(9) 1.05089(9)
O1 O 0.8901(3) 0.6647(2) 0.9423(3)
O2 O 0.8543(3) 0.7844(3) 1.1172(3)
O3 O 0.8549(3) 0.5675(3) 1.1308(3)
N1 N 0.6221(3) 0.6506(3) 0.8628(3)
N2 N 0.7500 0.4689(4) 0.7500
N3 N 0.7500 -0.1635(4) 0.7500
C1 C 0.6625(4) 0.6669(4) 0.9878(4)
C2 C 0.5802(5) 0.6714(5) 1.0692(4)
H1 H 0.6105 0.6834 1.1554
C3 C 0.4524(5) 0.6578(5) 1.0195(5)
H2 H 0.3943 0.6623 1.0718
C4 C 0.4099(5) 0.6373(5) 0.8915(5)
H3 H 0.3238 0.6248 0.8573
C5 C 0.4977(4) 0.6359(4) 0.8161(4)
H4 H 0.4695 0.6243 0.7296
C6 C 0.6687(4) 0.4074(4) 0.6615(4)
H5 H 0.6118 0.4497 0.6001
C7 C 0.6664(4) 0.2833(4) 0.6583(4)
H6 H 0.6092 0.2433 0.5951
C8 C 0.7500 0.2186(5) 0.7500
C9 C 0.7500 0.0859(5) 0.7500
C10 C 0.6381(4) 0.0217(4) 0.7066(4)
H7 H 0.5616 0.0617 0.6766
C11 C 0.6425(4) -0.1024(4) 0.7087(4)
H8 H 0.5650 -0.1464 0.6793
C7A C 0.8336(4) 0.2833(4) 0.8417(4)
C6A C 0.8313(4) 0.4074(4) 0.8385(4)
H5A H 0.8882 0.4497 0.8999
H6A H 0.8908 0.2433 0.9049
C11A C 0.8575(4) -0.1024(4) 0.7913(4)
C10A C 0.8619(4) 0.0217(4) 0.7934(4)
H7A H 0.9384 0.0617 0.8234
H8A H 0.9350 -0.1464 0.8207
S1A S 0.66886(10) 0.67205(9) 0.44911(9)
O1A O 0.6099(3) 0.6647(2) 0.5577(3)
O2A O 0.6457(3) 0.7844(3) 0.3828(3)
O3A O 0.6451(3) 0.5675(3) 0.3692(3)
N1A N 0.8779(3) 0.6506(3) 0.6372(3)
C1A C 0.8375(4) 0.6669(4) 0.5122(4)
C2A C 0.9198(5) 0.6714(5) 0.4308(4)
H1A H 0.8895 0.6834 0.3446
C3A C 1.0476(5) 0.6578(5) 0.4805(5)
H2A H 1.1057 0.6623 0.4282
C4A C 1.0901(5) 0.6373(5) 0.6085(5)
H3A H 1.1762 0.6248 0.6427
C5A C 1.0023(4) 0.6359(4) 0.6839(4)
H4A H 1.0305 0.6243 0.7704
N3_2 N 0.7500 0.8365(4) 0.7500
Cu1_2 Cu 0.7500 -0.34822(6) 0.7500
O4 O 0.1932(4) -0.0239(4) 0.5730(4)
H9 H 0.1459 -0.0774 0.5383
C12 C 0.3093(16) -0.072(2) 0.630(3)
H10 H 0.3765 -0.0228 0.6125
H11 H 0.3166 -0.1518 0.5975
H12 H 0.3157 -0.0766 0.7195
loop_
_geom_bond_atom_site_label_1
_geom_bond_atom_site_label_2
_geom_bond_site_symmetry_1
_geom_bond_site_symmetry_2
Cu1 O1 1_555 1_555
S1 O1 1_555 1_555
O2 S1 1_555 1_555
O3 S1 1_555 1_555
N1 Cu1 1_555 1_555
N2 Cu1 1_555 1_555
N3 C11 1_555 1_555
C1 S1 1_555 1_555
C2 C1 1_555 1_555
H1 C2 1_555 1_555
C3 C2 1_555 1_555
H2 C3 1_555 1_555
C4 C3 1_555 1_555
H3 C4 1_555 1_555
C5 N1 1_555 1_555
H4 C5 1_555 1_555
C6 N2 1_555 1_555
H5 C6 1_555 1_555
C7 C6 1_555 1_555
H6 C7 1_555 1_555
C8 C7 1_555 1_555
C9 C8 1_555 1_555
C10 C9 1_555 1_555
H7 C10 1_555 1_555
C11 C10 1_555 1_555
H8 C11 1_555 1_555
O4 H9 1_555 1_555
C12 O4 1_555 1_555
H10 C12 1_555 1_555
H11 C12 1_555 1_555
H12 C12 1_555 1_555
C7A C8 1_555 1_555
C6A N2 1_555 1_555
H5A C6A 1_555 1_555
H6A C7A 1_555 1_555
C11A N3 1_555 1_555
C10A C9 1_555 1_555
H7A C10A 1_555 1_555
H8A C11A 1_555 1_555
S1A O1A 1_555 1_555
O1A Cu1 1_555 1_555
O2A S1A 1_555 1_555
O3A S1A 1_555 1_555
N1A Cu1 1_555 1_555
C1A S1A 1_555 1_555
C2A C1A 1_555 1_555
H1A C2A 1_555 1_555
C3A C2A 1_555 1_555
H2A C3A 1_555 1_555
C4A C3A 1_555 1_555
H3A C4A 1_555 1_555
C5A N1A 1_555 1_555
H4A C5A 1_555 1_555
N3_2 Cu1 1_555 1_555
Cu1_2 N3 1_555 1_555
N1 C1 1_555 1_555
C4 C5 1_555 1_555
C7A C6A 1_555 1_555
C11A C10A 1_555 1_555
N1A C1A 1_555 1_555
C4A C5A 1_555 1_555

#END
