
#######################################################################
#
#                 Cambridge Crystallographic Data Centre
#                                CCDC 
#
#######################################################################
#
# If this CIF has been generated from an entry in the Cambridge 
# Structural Database, then it will include bibliographic, chemical, 
# crystal, experimental, refinement or atomic coordinate data resulting 
# from the CCDC's data processing and validation procedures.
#
#######################################################################

data_WAVQOB
_chemical_formula_moiety         '(C81 H60 In3 O28 Pr2 1+)n,n(N1 O3 1-)'
_chemical_name_systematic        
"catena-(tris(\m~6~-4,4',4''-Benzene-1,3,5-triyltribenzoato)-(\m~4~-oxo)-tris(\m~3~-hydroxo)-hexa-aqua-tri-indium-di-praseodymium nitrate)"
_symmetry_cell_setting           cubic
_symmetry_space_group_name_H-M   'P 21 3'
_symmetry_Int_Tables_number      198
_space_group_name_Hall           'P 2ac 2ab 3'
loop_
_symmetry_equiv_pos_site_id
_symmetry_equiv_pos_as_xyz
1 x,y,z
2 1/2-x,-y,1/2+z
3 -x,1/2+y,1/2-z
4 1/2+x,1/2-y,-z
5 z,x,y
6 1/2+z,1/2-x,-y
7 1/2-z,-x,1/2+y
8 -z,1/2+x,1/2-y
9 y,z,x
10 -y,1/2+z,1/2-x
11 1/2+y,1/2-z,-x
12 1/2-y,-z,1/2+x
_cell_length_a                   27.13440(10)
_cell_length_b                   27.13440(10)
_cell_length_c                   27.13440(10)
_cell_angle_alpha                90
_cell_angle_beta                 90
_cell_angle_gamma                90
_cell_volume                     19978.4
_exptl_crystal_colour            'light green'
_exptl_crystal_description       block
_cell_formula_units_Z            4
loop_
_atom_site_label
_atom_site_type_symbol
_atom_site_fract_x
_atom_site_fract_y
_atom_site_fract_z
N1 N 0.0055(7) 0.6444(7) 1.0812(7)
In1 In -0.070543(14) 0.526724(15) 1.006028(18)
Pr1 Pr 0.052399(12) 0.552399(12) 0.947601(12)
Pr2 Pr -0.090157(14) 0.409843(14) 1.090157(14)
O1 O -0.03863(14) 0.46137(14) 1.03863(14)
O2 O 0.00139(14) 0.55572(15) 1.02685(16)
O3 O -0.13740(17) 0.4965(2) 0.9778(2)
O4 O -0.1563(3) 0.4569(3) 1.0438(3)
O5 O -0.01515(19) 0.61104(18) 0.9369(2)
O6 O -0.0915(2) 0.5905(2) 0.9660(2)
C1 C -0.1605(4) 0.4657(4) 0.9987(4)
C2 C -0.2102(4) 0.4528(5) 0.9799(4)
C3 C -0.2382(7) 0.4216(7) 1.0104(8)
H1 H -0.2272 0.4057 1.0387
C4 C -0.2917(6) 0.4184(5) 0.9882(6)
H2 H -0.3187 0.4129 1.0087
C5 C -0.2987(4) 0.4242(5) 0.9357(5)
C6 C -0.2683(3) 0.4532(4) 0.9112(4)
H3 H -0.2762 0.4638 0.8796
C7 C -0.2243(3) 0.4678(3) 0.9333(4)
H4 H -0.2035 0.4887 0.9158
C8 C -0.3450(3) 0.4068(4) 0.9107(4)
C9 C -0.3633(4) 0.4290(5) 0.8719(4)
H5 H -0.3482 0.4577 0.8609
C10 C -0.0598(3) 0.6179(3) 0.9387(3)
C11 C -0.0818(3) 0.6649(3) 0.9200(4)
C12 C -0.1298(5) 0.6757(4) 0.9251(4)
H6 H -0.1503 0.6530 0.9407
C13 C -0.1486(3) 0.7164(3) 0.9092(4)
H7 H -0.1813 0.7244 0.9160
C14 C -0.1183(3) 0.7490(3) 0.8809(4)
C15 C -0.0709(3) 0.7388(3) 0.8771(4)
H8 H -0.0493 0.7613 0.8627
C16 C -0.0550(3) 0.6972(3) 0.8939(4)
H9 H -0.0224 0.6889 0.8873
C17 C -0.1391(4) 0.7987(4) 0.8601(4)
C18 C -0.1810(4) 0.8196(4) 0.8792(4)
H10 H -0.1960 0.8047 0.9061
O7 O -0.1528(5) 0.3357(5) 1.0854(5)
O8 O 0.0473(3) 0.5799(3) 0.8581(3)
C19 C -0.1300(4) 0.6237(3) 1.1481(5)
H11 H -0.1135 0.6356 1.1206
O9 O -0.1139(4) 0.4916(3) 1.1237(4)
C20 C -0.1231(4) 0.5411(4) 1.1064(5)
C21 C -0.1833(5) 0.6775(6) 1.2566(6)
C22 C -0.1558(5) 0.7181(5) 1.2769(5)
H12 H -0.1252 0.7272 1.2644
C23 C -0.1385(4) 0.5717(3) 1.1465(5)
C24 C -0.1632(5) 0.5460(4) 1.1851(6)
H13 H -0.1700 0.5124 1.1865
C25 C -0.1418(4) 0.6614(4) 1.1838(5)
H14 H -0.1351 0.6950 1.1825
C26 C -0.1662(5) 0.6343(4) 1.2212(6)
C27 C -0.1754(7) 0.5824(5) 1.2211(6)
H15 H -0.1919 0.5706 1.2488
O10 O -0.1035(2) 0.5620(2) 1.0680(2)
In1G In -0.006028(18) 0.429457(14) 0.973276(15)
In1J In 0.026724(15) 0.493972(18) 1.070543(14)
In1I In -0.526724(15) 0.506028(18) 0.570543(14)
In1F In -0.506028(18) 0.070543(14) 1.026724(15)
In1H In -0.473276(15) 1.006028(18) 0.929457(14)
In1D In 0.006028(18) 0.929457(14) 0.526724(15)
In1E In -0.493972(18) 0.570543(14) 1.473276(15)
In1K In -0.026724(15) 0.993972(18) 1.429457(14)
Pr1C Pr -0.447601(12) 0.947601(12) 1.052399(12)
Pr1B Pr -0.052399(12) 1.052399(12) 0.552399(12)
Pr2A Pr -0.409843(14) 0.590157(14) 0.590157(14)
Pr2C Pr -0.590157(14) 0.090157(14) 0.909843(14)
Pr2A_2 Pr -0.409843(14) 0.590157(14) 1.590157(14)
Pr2B Pr 0.090157(14) 0.909843(14) 1.409843(14)
O2G O -0.02685(16) 0.50139(14) 0.94428(15)
O2J O 0.05572(15) 0.47315(16) 0.99861(14)
O3I O -0.4965(2) 0.4778(2) 0.63740(17)
O3F O -0.4778(2) 0.13740(17) 0.9965(2)
O3G O 0.0222(2) 0.36260(17) 1.0035(2)
O3J O -0.0035(2) 0.5222(2) 1.13740(17)
O4I O -0.4569(3) 0.5438(3) 0.6563(3)
O4F O -0.5438(3) 0.1563(3) 0.9569(3)
O4G O -0.0438(3) 0.3437(3) 1.0431(3)
O4J O -0.0431(3) 0.4562(3) 1.1563(3)
O5H O -0.38896(18) 0.9369(2) 0.98485(19)
O5D O -0.0631(2) 0.98485(19) 0.61104(18)
O5G O 0.0631(2) 0.48485(19) 0.88896(18)
O5J O 0.11104(18) 0.5631(2) 1.01515(19)
O6H O -0.4095(2) 0.9660(2) 0.9085(2)
O6D O -0.0340(2) 0.9085(2) 0.5905(2)
O6G O 0.0340(2) 0.4085(2) 0.9095(2)
O6J O 0.0905(2) 0.5340(2) 1.0915(2)
C1I C -0.4657(4) 0.4987(4) 0.6605(4)
C1F C -0.4987(4) 0.1605(4) 0.9657(4)
C2I C -0.4528(5) 0.4799(4) 0.7102(4)
C2F C -0.4799(4) 0.2102(4) 0.9528(5)
C3I C -0.4216(7) 0.5104(8) 0.7382(7)
C3F C -0.5104(8) 0.2382(7) 0.9216(7)
H1I H -0.4057 0.5387 0.7272
H1F H -0.5387 0.2272 0.9057
C4I C -0.4184(5) 0.4882(6) 0.7917(6)
C4F C -0.4882(6) 0.2917(6) 0.9184(5)
H2I H -0.4129 0.5087 0.8187
H2F H -0.5087 0.3187 0.9129
C5I C -0.4242(5) 0.4357(5) 0.7987(4)
C5F C -0.4357(5) 0.2987(4) 0.9242(5)
C6I C -0.4532(4) 0.4112(4) 0.7683(3)
C6F C -0.4112(4) 0.2683(3) 0.9532(4)
H3I H -0.4638 0.3796 0.7762
H3F H -0.3796 0.2762 0.9638
C7I C -0.4678(3) 0.4333(4) 0.7243(3)
C7F C -0.4333(4) 0.2243(3) 0.9678(3)
H4I H -0.4887 0.4158 0.7035
H4F H -0.4158 0.2035 0.9887
C8I C -0.4068(4) 0.4107(4) 0.8450(3)
C8F C -0.4107(4) 0.3450(3) 0.9068(4)
C9I C -0.4290(5) 0.3719(4) 0.8633(4)
C9F C -0.3719(4) 0.3633(4) 0.9290(5)
H5F H -0.3609 0.3482 0.9577
H5I H -0.4577 0.3609 0.8482
C10H C -0.3821(3) 0.9387(3) 0.9402(3)
C10D C -0.0613(3) 0.9402(3) 0.6179(3)
C11H C -0.3351(3) 0.9200(4) 0.9182(3)
C11D C -0.0800(4) 0.9182(3) 0.6649(3)
C12H C -0.3243(4) 0.9251(4) 0.8702(5)
C12D C -0.0749(4) 0.8702(5) 0.6757(4)
H6H H -0.3470 0.9407 0.8497
H6D H -0.0593 0.8497 0.6530
C13H C -0.2836(3) 0.9092(4) 0.8514(3)
C13D C -0.0908(4) 0.8514(3) 0.7164(3)
H7H H -0.2756 0.9160 0.8187
H7D H -0.0840 0.8187 0.7244
C14H C -0.2510(3) 0.8809(4) 0.8817(3)
C14D C -0.1191(4) 0.8817(3) 0.7490(3)
C15H C -0.2612(3) 0.8771(4) 0.9291(3)
C15D C -0.1229(4) 0.9291(3) 0.7388(3)
H8H H -0.2387 0.8627 0.9507
H8D H -0.1373 0.9507 0.7613
C16H C -0.3028(3) 0.8939(4) 0.9450(3)
C16D C -0.1061(4) 0.9450(3) 0.6972(3)
H9H H -0.3111 0.8873 0.9776
H9D H -0.1127 0.9776 0.6889
C17H C -0.2013(4) 0.8601(4) 0.8609(4)
C17D C -0.1399(4) 0.8609(4) 0.7987(4)
C18H C -0.1804(4) 0.8792(4) 0.8190(4)
C18D C -0.1208(4) 0.8190(4) 0.8196(4)
H10D H -0.0939 0.8040 0.8047
H10H H -0.1953 0.9061 0.8040
O7G O -0.0854(5) 0.3472(5) 1.1643(5)
O7J O -0.1643(5) 0.4146(5) 1.1528(5)
O8G O 0.1419(3) 0.5473(3) 0.9201(3)
O8J O 0.0799(3) 0.6419(3) 0.9527(3)
C19E C -0.3519(5) 0.6300(4) 1.3763(3)
C19K C -0.1237(3) 0.8519(5) 1.3700(4)
H11E H -0.3794 0.6135 1.3644
H11K H -0.1356 0.8794 1.3865
O9E O -0.3763(4) 0.6139(4) 1.5084(3)
O9K O 0.0084(3) 0.8763(4) 1.3861(4)
O9G O -0.1237(4) 0.3861(4) 1.0084(3)
O9J O -0.0084(3) 0.3763(4) 1.1139(4)
C20E C -0.3936(5) 0.6231(4) 1.4589(4)
C20K C -0.0411(4) 0.8936(5) 1.3769(4)
C21K C -0.1775(6) 0.7434(6) 1.3167(5)
C21E C -0.2434(6) 0.6833(5) 1.3225(6)
C22K C -0.2181(5) 0.7231(5) 1.3442(5)
C22E C -0.2231(5) 0.6558(5) 1.2819(5)
H12E H -0.2356 0.6252 1.2728
H12K H -0.2272 0.7356 1.3748
C23E C -0.3535(5) 0.6385(4) 1.4283(3)
C23K C -0.0717(3) 0.8535(5) 1.3615(4)
C24E C -0.3149(6) 0.6632(5) 1.4540(4)
C24K C -0.0460(4) 0.8149(6) 1.3368(5)
H13E H -0.3135 0.6700 1.4876
H13K H -0.0124 0.8135 1.3300
C25E C -0.3162(5) 0.6418(4) 1.3386(4)
C25K C -0.1614(4) 0.8162(5) 1.3582(4)
H14E H -0.3175 0.6351 1.3050
H14K H -0.1950 0.8175 1.3649
C26E C -0.2788(6) 0.6662(5) 1.3657(4)
C26K C -0.1343(4) 0.7788(6) 1.3338(5)
C27E C -0.2789(6) 0.6754(7) 1.4176(5)
C27K C -0.0824(5) 0.7789(6) 1.3246(7)
H15E H -0.2512 0.6919 1.4294
H15K H -0.0706 0.7512 1.3081
O10E O -0.4320(2) 0.6035(2) 1.4380(2)
O10K O -0.0620(2) 0.9320(2) 1.3965(2)
O10G O -0.0680(2) 0.3965(2) 0.9380(2)
O10J O 0.0620(2) 0.4320(2) 1.1035(2)
loop_
_geom_bond_atom_site_label_1
_geom_bond_atom_site_label_2
_geom_bond_site_symmetry_1
_geom_bond_site_symmetry_2
In1 O1 1_555 1_555
Pr1 O2 1_555 1_555
Pr2 O1 1_555 1_555
O1 In1G 1_555 1_555
O2 In1 1_555 1_555
O3 In1 1_555 1_555
O4 Pr2 1_555 1_555
O5 Pr1 1_555 1_555
O6 In1 1_555 1_555
C1 O3 1_555 1_555
C2 C1 1_555 1_555
C3 C2 1_555 1_555
H1 C3 1_555 1_555
C4 C3 1_555 1_555
H2 C4 1_555 1_555
C5 C4 1_555 1_555
C6 C5 1_555 1_555
H3 C6 1_555 1_555
C7 C2 1_555 1_555
H4 C7 1_555 1_555
C8 C5 1_555 1_555
C9 C8 1_555 1_555
H5 C9 1_555 1_555
C10 O5 1_555 1_555
C11 C10 1_555 1_555
C12 C11 1_555 1_555
H6 C12 1_555 1_555
C13 C12 1_555 1_555
H7 C13 1_555 1_555
C14 C13 1_555 1_555
C15 C14 1_555 1_555
H8 C15 1_555 1_555
C16 C11 1_555 1_555
H9 C16 1_555 1_555
C17 C14 1_555 1_555
C18 C17 1_555 1_555
H10 C18 1_555 1_555
O7 Pr2 1_555 1_555
O8 Pr1 1_555 1_555
C19 H11 1_555 1_555
O9 Pr2 1_555 1_555
C20 O9 1_555 1_555
C21 C22 1_555 1_555
C22 H12 1_555 1_555
C23 C19 1_555 1_555
C24 C23 1_555 1_555
H13 C24 1_555 1_555
C25 C19 1_555 1_555
H14 C25 1_555 1_555
C26 C21 1_555 1_555
C27 C24 1_555 1_555
H15 C27 1_555 1_555
O10 In1 1_555 1_555
In1G O2G 1_555 1_555
In1J O1 1_555 1_555
In1I O3I 1_555 1_555
In1F O3F 1_555 1_555
In1H O6H 1_555 1_555
In1D O6D 1_555 1_555
In1E O10E 1_555 1_555
In1K O10K 1_555 1_555
Pr1C O5H 1_555 1_555
Pr1B O5D 1_555 1_555
Pr2A O4I 1_555 1_555
Pr2C O4F 1_555 1_555
Pr2A_2 O9E 1_555 1_555
Pr2B O9K 1_555 1_555
O2G In1 1_555 1_555
O2J Pr1 1_555 1_555
O3I C1I 1_555 1_555
O3F C1F 1_555 1_555
O3G In1G 1_555 1_555
O3J In1J 1_555 1_555
O4I C1I 1_555 1_555
O4F C1F 1_555 1_555
O4G Pr2 1_555 1_555
O4J Pr2 1_555 1_555
O5H C10H 1_555 1_555
O5D C10D 1_555 1_555
O5G Pr1 1_555 1_555
O5J Pr1 1_555 1_555
O6H C10H 1_555 1_555
O6D C10D 1_555 1_555
O6G In1G 1_555 1_555
O6J In1J 1_555 1_555
C1I C2I 1_555 1_555
C1F C2F 1_555 1_555
C2I C3I 1_555 1_555
C2F C3F 1_555 1_555
C3I H1I 1_555 1_555
C3F H1F 1_555 1_555
C4I C3I 1_555 1_555
C4F C3F 1_555 1_555
H2I C4I 1_555 1_555
H2F C4F 1_555 1_555
C5I C4I 1_555 1_555
C5F C4F 1_555 1_555
C6I C5I 1_555 1_555
C6F C5F 1_555 1_555
H3I C6I 1_555 1_555
H3F C6F 1_555 1_555
C7I C2I 1_555 1_555
C7F C2F 1_555 1_555
H4I C7I 1_555 1_555
H4F C7F 1_555 1_555
C8I C9 1_555 1_555
C8F C5F 1_555 1_555
C9I C8I 1_555 1_555
C9F C8 1_555 1_555
H5F C9F 1_555 1_555
H5I C9I 1_555 1_555
C10H C11H 1_555 1_555
C10D C11D 1_555 1_555
C11H C12H 1_555 1_555
C11D C12D 1_555 1_555
C12H H6H 1_555 1_555
C12D H6D 1_555 1_555
C13H C12H 1_555 1_555
C13D C12D 1_555 1_555
H7H C13H 1_555 1_555
H7D C13D 1_555 1_555
C14H C13H 1_555 1_555
C14D C13D 1_555 1_555
C15H C14H 1_555 1_555
C15D C14D 1_555 1_555
H8H C15H 1_555 1_555
H8D C15D 1_555 1_555
C16H C11H 1_555 1_555
C16D C11D 1_555 1_555
H9H C16H 1_555 1_555
H9D C16D 1_555 1_555
C17H C18 1_555 1_555
C17D C14D 1_555 1_555
C18H C17H 1_555 1_555
C18D C17 1_555 1_555
H10D C18D 1_555 1_555
H10H C18H 1_555 1_555
O7G Pr2 1_555 1_555
O7J Pr2 1_555 1_555
O8G Pr1 1_555 1_555
O8J Pr1 1_555 1_555
C19E H11E 1_555 1_555
C19K H11K 1_555 1_555
O9E C20E 1_555 1_555
O9K C20K 1_555 1_555
O9G Pr2 1_555 1_555
O9J Pr2 1_555 1_555
C20E C23E 1_555 1_555
C20K C23K 1_555 1_555
C21K C22 1_555 1_555
C21E C22K 1_555 1_555
C22K C21K 1_555 1_555
C22E C21 1_555 1_555
H12E C22E 1_555 1_555
H12K C22K 1_555 1_555
C23E C19E 1_555 1_555
C23K C19K 1_555 1_555
C24E C23E 1_555 1_555
C24K C23K 1_555 1_555
H13E C24E 1_555 1_555
H13K C24K 1_555 1_555
C25E C19E 1_555 1_555
C25K C19K 1_555 1_555
H14E C25E 1_555 1_555
H14K C25K 1_555 1_555
C26E C21E 1_555 1_555
C26K C21K 1_555 1_555
C27E C24E 1_555 1_555
C27K C24K 1_555 1_555
H15E C27E 1_555 1_555
H15K C27K 1_555 1_555
O10E C20E 1_555 1_555
O10K C20K 1_555 1_555
O10G In1G 1_555 1_555
O10J In1J 1_555 1_555
Pr1 O2G 1_555 1_555
O2 In1J 1_555 1_555
O4 C1 1_555 1_555
O6 C10 1_555 1_555
C6 C7 1_555 1_555
C15 C16 1_555 1_555
C20 C23 1_555 1_555
C20 O10 1_555 1_555
C25 C26 1_555 1_555
C26 C27 1_555 1_555
In1G O2J 1_555 1_555
In1J O2J 1_555 1_555
C5I C8I 1_555 1_555
C6I C7I 1_555 1_555
C6F C7F 1_555 1_555
C8F C9I 1_555 1_555
C8F C9F 1_555 1_555
C14H C17H 1_555 1_555
C15H C16H 1_555 1_555
C15D C16D 1_555 1_555
C17D C18H 1_555 1_555
C17D C18D 1_555 1_555
C21E C22E 1_555 1_555
C25E C26E 1_555 1_555
C25K C26K 1_555 1_555
C26E C27E 1_555 1_555
C26K C27K 1_555 1_555

#END
