
#######################################################################
#
#                 Cambridge Crystallographic Data Centre
#                                CCDC 
#
#######################################################################
#
# If this CIF has been generated from an entry in the Cambridge 
# Structural Database, then it will include bibliographic, chemical, 
# crystal, experimental, refinement or atomic coordinate data resulting 
# from the CCDC's data processing and validation procedures.
#
#######################################################################

data_OQEPUW
_chemical_name_common            
"catena-[(mu!8$-4,4'-(Hexafluoroisopropylidene)diphthalato)-aqua-di-cadmium(ii) hydrate]"
_chemical_formula_moiety         '(C19 H8 Cd2 F6 O9)n,2.5n(H2 O1)'
_chemical_name_systematic        
"catena-[(\m~8~-4,4'-(1,1,1,3,3,3-Hexafluoropropane-2,2-diyl)dibenzene-1,2-dicarboxylato)-aqua-di-cadmium(ii) hydrate]"
_symmetry_cell_setting           rhombohedral
_symmetry_space_group_name_H-M   'R -3'
_symmetry_Int_Tables_number      148
_space_group_name_Hall           '-R 3'
loop_
_symmetry_equiv_pos_site_id
_symmetry_equiv_pos_as_xyz
1 x,y,z
2 -y,x-y,z
3 -x+y,-x,z
4 2/3+x,1/3+y,1/3+z
5 2/3-y,1/3+x-y,1/3+z
6 2/3-x+y,1/3-x,1/3+z
7 1/3+x,2/3+y,2/3+z
8 1/3-y,2/3+x-y,2/3+z
9 1/3-x+y,2/3-x,2/3+z
10 -x,-y,-z
11 y,-x+y,-z
12 x-y,x,-z
13 1/3-x,2/3-y,2/3-z
14 1/3+y,2/3-x+y,2/3-z
15 1/3+x-y,2/3+x,2/3-z
16 2/3-x,1/3-y,1/3-z
17 2/3+y,1/3-x+y,1/3-z
18 2/3+x-y,1/3+x,1/3-z
_cell_length_a                   39.918(4)
_cell_length_b                   39.918(4)
_cell_length_c                   7.7112(8)
_cell_angle_alpha                90
_cell_angle_beta                 90
_cell_angle_gamma                120
_cell_volume                     10641.2
_exptl_crystal_colour            colorless
_exptl_crystal_description       prism
_cell_formula_units_Z            18
loop_
_atom_site_label
_atom_site_type_symbol
_atom_site_fract_x
_atom_site_fract_y
_atom_site_fract_z
Cd1 Cd -0.200550(12) 0.161840(12) 0.38375(5)
Cd2 Cd -0.240140(13) 0.118870(13) -0.17593(5)
O1 O -0.18882(11) 0.17314(11) -0.0030(5)
O2 O -0.25772(19) 0.05891(17) -0.0916(10)
H1 H -0.2752 0.0428 -0.1589
H2 H -0.2665 0.0556 0.0112
O3 O -0.19484(14) 0.20798(12) 0.2071(5)
O4 O -0.12346(12) 0.22885(12) -0.1879(6)
O5 O -0.15253(11) 0.20906(12) -0.4413(5)
O6 O -0.07296(12) 0.38987(13) -0.3326(5)
O7 O -0.04062(11) 0.41141(11) -0.5801(5)
O8 O -0.06397(13) 0.36967(12) -0.9697(5)
O9 O -0.06640(11) 0.42281(11) -0.9269(5)
F1 F -0.21355(12) 0.36074(11) -0.4515(5)
F2 F -0.25226(11) 0.31928(11) -0.2692(5)
F3 F -0.19136(11) 0.34940(10) -0.2194(5)
F4 F -0.26076(11) 0.29502(12) -0.6433(5)
F5 F -0.28025(10) 0.25454(11) -0.4328(5)
F6 F -0.24669(10) 0.24947(10) -0.6365(5)
C1 C -0.19257(16) 0.20129(17) 0.0506(7)
C2 C -0.19645(17) 0.22717(16) -0.0802(7)
C3 C -0.17854(15) 0.23567(15) -0.2422(7)
C4 C -0.18428(16) 0.25905(16) -0.3574(7)
H3 H -0.1729 0.2639 -0.4667
C5 C -0.20696(15) 0.27539(15) -0.3110(7)
C6 C -0.22522(17) 0.26593(17) -0.1518(8)
H4 H -0.2411 0.2758 -0.1203
C7 C -0.22022(17) 0.24192(17) -0.0385(8)
H5 H -0.2331 0.2356 0.0675
C8 C -0.15021(17) 0.22330(16) -0.2914(8)
C9 C -0.21272(16) 0.30130(16) -0.4415(7)
C10 C -0.17795(15) 0.32277(15) -0.5645(7)
C11 C -0.14167(17) 0.34502(16) -0.4908(7)
H6 H -0.1393 0.3451 -0.3708
C12 C -0.10863(16) 0.36721(16) -0.5901(7)
C13 C -0.11124(16) 0.36570(15) -0.7699(7)
C14 C -0.14730(18) 0.34286(17) -0.8445(8)
H7 H -0.1495 0.3414 -0.9647
C15 C -0.18006(17) 0.32222(17) -0.7435(8)
H8 H -0.2040 0.3077 -0.7972
C16 C -0.07085(16) 0.39140(16) -0.4954(7)
C17 C -0.07764(16) 0.38704(17) -0.8931(7)
C18 C -0.21775(18) 0.33290(17) -0.3453(8)
C19 C -0.25064(17) 0.27496(19) -0.5391(8)
Cd1O Cd -0.132783(12) 0.171493(12) -0.05042(5)
Cd1_2 Cd -0.200550(12) 0.161840(12) -0.61625(5)
Cd1N Cd -0.029057(17) 0.466117(12) -0.71708(5)
Cd2O Cd -0.093193(13) 0.214463(13) -0.49074(5)
Cd2N Cd -0.025677(18) 0.426527(13) -0.15740(5)
Cd2N_2 Cd -0.025677(18) 0.426527(13) -1.15740(5)
O1O O -0.14451(11) 0.16019(11) 0.3363(5)
O4O O -0.20987(12) 0.10448(12) 0.5212(6)
O5O O -0.18080(11) 0.12427(12) -0.2254(5)
O5_2 O -0.15253(11) 0.20906(12) 0.5587(5)
O6M O -0.27680(13) 0.12950(18) -0.0007(5)
O7M O -0.25526(11) 0.11870(16) 0.2468(5)
O8M O -0.29700(12) 0.10031(18) -0.3636(5)
O9M O -0.24386(11) 0.15588(16) -0.4064(5)
O9M_2 O -0.24386(11) 0.15588(16) 0.5936(5)
O10 O -0.2602(5) 0.0391(5) -0.741(2)
O11 O -0.3365(7) 0.0006(6) -0.200(3)
O12 O -0.2752(3) 0.0175(3) -0.3277(15)
O13? O -0.2371(6) 0.0458(4) -0.779(2)
loop_
_geom_bond_atom_site_label_1
_geom_bond_atom_site_label_2
_geom_bond_site_symmetry_1
_geom_bond_site_symmetry_2
Cd1 O3 1_555 1_555
Cd2 O1 1_555 1_555
O1 C1 1_555 1_555
O2 Cd2 1_555 1_555
H1 O2 1_555 1_555
H2 O2 1_555 1_555
O3 C1 1_555 1_555
O4 C8 1_555 1_555
O5 C8 1_555 1_555
O6 C16 1_555 1_555
O7 C16 1_555 1_555
O8 C17 1_555 1_555
O9 C17 1_555 1_555
F1 C18 1_555 1_555
F2 C18 1_555 1_555
F3 C18 1_555 1_555
F4 C19 1_555 1_555
F5 C19 1_555 1_555
F6 C19 1_555 1_555
C1 C2 1_555 1_555
C2 C3 1_555 1_555
C3 C4 1_555 1_555
C4 H3 1_555 1_555
C5 C4 1_555 1_555
C6 C5 1_555 1_555
H4 C6 1_555 1_555
C7 C2 1_555 1_555
H5 C7 1_555 1_555
C8 C3 1_555 1_555
C9 C5 1_555 1_555
C10 C9 1_555 1_555
C11 C10 1_555 1_555
H6 C11 1_555 1_555
C12 C11 1_555 1_555
C13 C12 1_555 1_555
C14 C13 1_555 1_555
H7 C14 1_555 1_555
C15 C10 1_555 1_555
H8 C15 1_555 1_555
C16 C12 1_555 1_555
C17 C13 1_555 1_555
C18 C9 1_555 1_555
C19 C9 1_555 1_555
Cd1O O1 1_555 1_555
Cd1_2 O5 1_555 1_555
Cd1N O7 1_555 1_555
Cd2O O5 1_555 1_555
Cd2N O6 1_555 1_555
Cd2N_2 O8 1_555 1_555
O1O Cd1 1_555 1_555
O4O Cd1 1_555 1_555
O5O Cd2 1_555 1_555
O5_2 Cd1 1_555 1_555
O6M Cd2 1_555 1_555
O7M Cd1 1_555 1_555
O8M Cd2 1_555 1_555
O9M Cd2 1_555 1_555
O9M_2 Cd1 1_555 1_555
O4 Cd1O 1_555 1_555
O9 Cd1N 1_555 1_555
O9 Cd2N_2 1_555 1_555
C6 C7 1_555 1_555
C14 C15 1_555 1_555
Cd1O O5O 1_555 1_555
Cd1_2 O9M 1_555 1_555

#END
