
#######################################################################
#
#                 Cambridge Crystallographic Data Centre
#                                CCDC 
#
#######################################################################
#
# If this CIF has been generated from an entry in the Cambridge 
# Structural Database, then it will include bibliographic, chemical, 
# crystal, experimental, refinement or atomic coordinate data resulting 
# from the CCDC's data processing and validation procedures.
#
#######################################################################

data_BOSZOA
_chemical_formula_moiety         '(C72 H44 N3 O25 Zr3)n'
_chemical_name_systematic        
catena-[tris(\m~4~-2'-((3-carboxyprop-2-enoyl)amino)-1,1':4',1''-terphenyl-4,4''-dicarboxylato)-bis(\m~3~-hydroxy)-bis(\m~3~-oxido)-tri-zirconium]
_symmetry_cell_setting           cubic
_symmetry_space_group_name_H-M   'F m -3 m'
_symmetry_Int_Tables_number      225
_space_group_name_Hall           '-F 4 2 3'
loop_
_symmetry_equiv_pos_site_id
_symmetry_equiv_pos_as_xyz
1 x,y,z
2 -x,-y,z
3 -x,y,-z
4 x,-y,-z
5 z,x,y
6 z,-x,-y
7 -z,-x,y
8 -z,x,-y
9 y,z,x
10 -y,z,-x
11 y,-z,-x
12 -y,-z,x
13 y,x,-z
14 -y,-x,-z
15 y,-x,z
16 -y,x,z
17 x,z,-y
18 -x,z,y
19 -x,-z,-y
20 x,-z,y
21 z,y,-x
22 z,-y,x
23 -z,y,x
24 -z,-y,-x
25 x,1/2+y,1/2+z
26 -x,1/2-y,1/2+z
27 -x,1/2+y,1/2-z
28 x,1/2-y,1/2-z
29 z,1/2+x,1/2+y
30 z,1/2-x,1/2-y
31 -z,1/2-x,1/2+y
32 -z,1/2+x,1/2-y
33 y,1/2+z,1/2+x
34 -y,1/2+z,1/2-x
35 y,1/2-z,1/2-x
36 -y,1/2-z,1/2+x
37 y,1/2+x,1/2-z
38 -y,1/2-x,1/2-z
39 y,1/2-x,1/2+z
40 -y,1/2+x,1/2+z
41 x,1/2+z,1/2-y
42 -x,1/2+z,1/2+y
43 -x,1/2-z,1/2-y
44 x,1/2-z,1/2+y
45 z,1/2+y,1/2-x
46 z,1/2-y,1/2+x
47 -z,1/2+y,1/2+x
48 -z,1/2-y,1/2-x
49 1/2+x,y,1/2+z
50 1/2-x,-y,1/2+z
51 1/2-x,y,1/2-z
52 1/2+x,-y,1/2-z
53 1/2+z,x,1/2+y
54 1/2+z,-x,1/2-y
55 1/2-z,-x,1/2+y
56 1/2-z,x,1/2-y
57 1/2+y,z,1/2+x
58 1/2-y,z,1/2-x
59 1/2+y,-z,1/2-x
60 1/2-y,-z,1/2+x
61 1/2+y,x,1/2-z
62 1/2-y,-x,1/2-z
63 1/2+y,-x,1/2+z
64 1/2-y,x,1/2+z
65 1/2+x,z,1/2-y
66 1/2-x,z,1/2+y
67 1/2-x,-z,1/2-y
68 1/2+x,-z,1/2+y
69 1/2+z,y,1/2-x
70 1/2+z,-y,1/2+x
71 1/2-z,y,1/2+x
72 1/2-z,-y,1/2-x
73 1/2+x,1/2+y,z
74 1/2-x,1/2-y,z
75 1/2-x,1/2+y,-z
76 1/2+x,1/2-y,-z
77 1/2+z,1/2+x,y
78 1/2+z,1/2-x,-y
79 1/2-z,1/2-x,y
80 1/2-z,1/2+x,-y
81 1/2+y,1/2+z,x
82 1/2-y,1/2+z,-x
83 1/2+y,1/2-z,-x
84 1/2-y,1/2-z,x
85 1/2+y,1/2+x,-z
86 1/2-y,1/2-x,-z
87 1/2+y,1/2-x,z
88 1/2-y,1/2+x,z
89 1/2+x,1/2+z,-y
90 1/2-x,1/2+z,y
91 1/2-x,1/2-z,-y
92 1/2+x,1/2-z,y
93 1/2+z,1/2+y,-x
94 1/2+z,1/2-y,x
95 1/2-z,1/2+y,x
96 1/2-z,1/2-y,-x
97 -x,-y,-z
98 x,y,-z
99 x,-y,z
100 -x,y,z
101 -z,-x,-y
102 -z,x,y
103 z,x,-y
104 z,-x,y
105 -y,-z,-x
106 y,-z,x
107 -y,z,x
108 y,z,-x
109 -y,-x,z
110 y,x,z
111 -y,x,-z
112 y,-x,-z
113 -x,-z,y
114 x,-z,-y
115 x,z,y
116 -x,z,-y
117 -z,-y,x
118 -z,y,-x
119 z,-y,-x
120 z,y,x
121 -x,1/2-y,1/2-z
122 x,1/2+y,1/2-z
123 x,1/2-y,1/2+z
124 -x,1/2+y,1/2+z
125 -z,1/2-x,1/2-y
126 -z,1/2+x,1/2+y
127 z,1/2+x,1/2-y
128 z,1/2-x,1/2+y
129 -y,1/2-z,1/2-x
130 y,1/2-z,1/2+x
131 -y,1/2+z,1/2+x
132 y,1/2+z,1/2-x
133 -y,1/2-x,1/2+z
134 y,1/2+x,1/2+z
135 -y,1/2+x,1/2-z
136 y,1/2-x,1/2-z
137 -x,1/2-z,1/2+y
138 x,1/2-z,1/2-y
139 x,1/2+z,1/2+y
140 -x,1/2+z,1/2-y
141 -z,1/2-y,1/2+x
142 -z,1/2+y,1/2-x
143 z,1/2-y,1/2-x
144 z,1/2+y,1/2+x
145 1/2-x,-y,1/2-z
146 1/2+x,y,1/2-z
147 1/2+x,-y,1/2+z
148 1/2-x,y,1/2+z
149 1/2-z,-x,1/2-y
150 1/2-z,x,1/2+y
151 1/2+z,x,1/2-y
152 1/2+z,-x,1/2+y
153 1/2-y,-z,1/2-x
154 1/2+y,-z,1/2+x
155 1/2-y,z,1/2+x
156 1/2+y,z,1/2-x
157 1/2-y,-x,1/2+z
158 1/2+y,x,1/2+z
159 1/2-y,x,1/2-z
160 1/2+y,-x,1/2-z
161 1/2-x,-z,1/2+y
162 1/2+x,-z,1/2-y
163 1/2+x,z,1/2+y
164 1/2-x,z,1/2-y
165 1/2-z,-y,1/2+x
166 1/2-z,y,1/2-x
167 1/2+z,-y,1/2-x
168 1/2+z,y,1/2+x
169 1/2-x,1/2-y,-z
170 1/2+x,1/2+y,-z
171 1/2+x,1/2-y,z
172 1/2-x,1/2+y,z
173 1/2-z,1/2-x,-y
174 1/2-z,1/2+x,y
175 1/2+z,1/2+x,-y
176 1/2+z,1/2-x,y
177 1/2-y,1/2-z,-x
178 1/2+y,1/2-z,x
179 1/2-y,1/2+z,x
180 1/2+y,1/2+z,-x
181 1/2-y,1/2-x,z
182 1/2+y,1/2+x,z
183 1/2-y,1/2+x,-z
184 1/2+y,1/2-x,-z
185 1/2-x,1/2-z,y
186 1/2+x,1/2-z,-y
187 1/2+x,1/2+z,y
188 1/2-x,1/2+z,-y
189 1/2-z,1/2-y,x
190 1/2-z,1/2+y,-x
191 1/2+z,1/2-y,-x
192 1/2+z,1/2+y,x
_cell_length_a                   32.5090(16)
_cell_length_b                   32.5090(16)
_cell_length_c                   32.5090(16)
_cell_angle_alpha                90
_cell_angle_beta                 90
_cell_angle_gamma                90
_cell_volume                     34356.7
_cell_formula_units_Z            8
loop_
_atom_site_label
_atom_site_type_symbol
_atom_site_fract_x
_atom_site_fract_y
_atom_site_fract_z
C1 C 1.0000 0.7769(10) 0.2231(10)
Zr1 Zr 1.0000 1.0000 0.07572(10)
O1 O 1.0370(4) 1.0370(4) 0.0370(4)
O2 O 1.0000 0.9413(6) 0.1106(5)
C2 C 1.0000 0.8541(13) 0.1972(12)
H1 H 1.0000 0.8621 0.2247
C3 C 1.0000 0.8102(12) 0.1898(12)
C4 C 1.0000 0.8837(12) 0.1702(11)
H2 H 1.0000 0.9111 0.1785
C5 C 1.0000 0.8729(9) 0.1271(9)
C6 C 1.0000 0.9025(9) 0.0975(9)
C7 C 0.964(5) 0.740(2) 0.207(4)
O2R O 1.0000 0.8894(5) 0.0587(6)
C2R C 1.0000 0.8028(12) 0.1459(13)
H1R H 1.0000 0.7753 0.1379
C4R C 1.0000 0.8298(11) 0.1163(12)
H2R H 1.0000 0.8215 0.0889
C7R C 1.036(5) 0.793(4) 0.260(2)
C7UC C 1.036(5) 0.740(2) 0.207(4)
C7ID C 0.964(5) 0.793(4) 0.260(2)
C1AA C 1.0000 0.7231(10) 0.2769(10)
O2AA O 1.0000 0.5587(6) 0.3894(5)
C2AA C 1.0000 0.6459(13) 0.3028(12)
H1AA H 1.0000 0.6379 0.2753
C3AA C 1.0000 0.6898(12) 0.3102(12)
C4AA C 1.0000 0.6163(12) 0.3298(11)
H2AA H 1.0000 0.5889 0.3215
C5AA C 1.0000 0.6271(9) 0.3729(9)
C6AA C 1.0000 0.5975(9) 0.4025(9)
C7PD C 1.036(5) 0.760(2) 0.293(4)
O2OA O 1.0000 0.6106(5) 0.4413(6)
C2OA C 1.0000 0.6972(12) 0.3541(13)
H1OA H 1.0000 0.7247 0.3621
C4OA C 1.0000 0.6702(11) 0.3837(12)
H2OA H 1.0000 0.6785 0.4111
C7HE C 0.964(5) 0.707(4) 0.240(2)
C7AA C 0.964(5) 0.760(2) 0.293(4)
C7OA C 1.036(5) 0.707(4) 0.240(2)
C1A C 1.0000 1.2231(10) 0.2231(10)
O1A O 0.9630(4) 0.9630(4) 0.0370(4)
O2A O 1.0000 1.0587(6) 0.1106(5)
C2A C 1.0000 1.1459(13) 0.1972(12)
H1A H 1.0000 1.1379 0.2247
C3A C 1.0000 1.1898(12) 0.1898(12)
C4A C 1.0000 1.1163(12) 0.1702(11)
H2A H 1.0000 1.0889 0.1785
C5A C 1.0000 1.1271(9) 0.1271(9)
C6A C 1.0000 1.0975(9) 0.0975(9)
C7A C 1.036(5) 1.260(2) 0.207(4)
O2P O 1.0000 1.1106(5) 0.0587(6)
C2P C 1.0000 1.1972(12) 0.1459(13)
H1P H 1.0000 1.2247 0.1379
C4P C 1.0000 1.1702(11) 0.1163(12)
H2P H 1.0000 1.1785 0.0889
C7P C 0.964(5) 1.207(4) 0.260(2)
C7TC C 0.964(5) 1.260(2) 0.207(4)
C7KD C 1.036(5) 1.207(4) 0.260(2)
C1Z C 1.0000 1.2769(10) 0.2769(10)
O2Z O 1.0000 1.4413(6) 0.3894(5)
C2Z C 1.0000 1.3541(13) 0.3028(12)
H1Z H 1.0000 1.3621 0.2753
C3Z C 1.0000 1.3102(12) 0.3102(12)
C4Z C 1.0000 1.3837(12) 0.3298(11)
H2Z H 1.0000 1.4111 0.3215
C5Z C 1.0000 1.3729(9) 0.3729(9)
C6Z C 1.0000 1.4025(9) 0.4025(9)
C7QD C 0.964(5) 1.240(2) 0.293(4)
O2QA O 1.0000 1.3894(5) 0.4413(6)
C2QA C 1.0000 1.3028(12) 0.3541(13)
H1QA H 1.0000 1.2753 0.3621
C4QA C 1.0000 1.3298(11) 0.3837(12)
H2QA H 1.0000 1.3215 0.4111
C7FE C 1.036(5) 1.293(4) 0.240(2)
C7Z C 1.036(5) 1.240(2) 0.293(4)
C7QA C 0.964(5) 1.293(4) 0.240(2)
C1D C 1.2231(10) 1.0000 -0.2231(10)
Zr1D Zr 1.07572(10) 1.0000 0.0000
O2D O 1.1106(5) 1.0000 -0.0587(6)
C2D C 1.1972(12) 1.0000 -0.1459(13)
H1D H 1.2247 1.0000 -0.1379
C3D C 1.1898(12) 1.0000 -0.1898(12)
C4D C 1.1702(11) 1.0000 -0.1163(12)
H2D H 1.1785 1.0000 -0.0889
C5D C 1.1271(9) 1.0000 -0.1271(9)
C6D C 1.0975(9) 1.0000 -0.0975(9)
C7D C 1.207(4) 0.964(5) -0.260(2)
O2M O 1.0587(6) 1.0000 -0.1106(5)
C2M C 1.1459(13) 1.0000 -0.1972(12)
H1M H 1.1379 1.0000 -0.2247
C4M C 1.1163(12) 1.0000 -0.1702(11)
H2M H 1.0889 1.0000 -0.1785
C7M C 1.260(2) 1.036(5) -0.207(4)
C7YC C 1.207(4) 1.036(5) -0.260(2)
C7FD C 1.260(2) 0.964(5) -0.207(4)
C1CB C 1.2769(10) 1.0000 -0.2769(10)
O2CB O 1.3894(5) 1.0000 -0.4413(6)
C2CB C 1.3028(12) 1.0000 -0.3541(13)
H1CB H 1.2753 1.0000 -0.3621
C3CB C 1.3102(12) 1.0000 -0.3102(12)
C4CB C 1.3298(11) 1.0000 -0.3837(12)
H2CB H 1.3215 1.0000 -0.4111
C5CB C 1.3729(9) 1.0000 -0.3729(9)
C6CB C 1.4025(9) 1.0000 -0.4025(9)
C7RE C 1.293(4) 1.036(5) -0.240(2)
O2JB O 1.4413(6) 1.0000 -0.3894(5)
C2JB C 1.3541(13) 1.0000 -0.3028(12)
H1JB H 1.3621 1.0000 -0.2753
C4JB C 1.3837(12) 1.0000 -0.3298(11)
H2JB H 1.4111 1.0000 -0.3215
C7AF C 1.240(2) 0.964(5) -0.293(4)
C7CB C 1.293(4) 0.964(5) -0.240(2)
C7JB C 1.240(2) 1.036(5) -0.293(4)
O1C O 1.0370(4) 0.9630(4) -0.0370(4)
Zr1F Zr 0.92428(10) 1.0000 0.0000
O1B O 0.9630(4) 1.0370(4) -0.0370(4)
Zr1B Zr 1.0000 1.0000 -0.07572(10)
Zr1H Zr 1.0000 1.07572(10) 0.0000
Zr1J Zr 1.0000 0.92428(10) 0.0000
Zr1Z Zr 1.0000 0.5000 0.42428(10)
Zr1Z_2 Zr 1.0000 1.5000 0.42428(10)
Zr1FA Zr 1.0000 0.57572(10) 0.5000
Zr1HA Zr 1.0000 1.42428(10) 0.5000
Zr1VA Zr 1.5000 1.0000 -0.42428(10)
Zr1BB Zr 1.42428(10) 1.0000 -0.5000
O1L O 1.0370(4) 1.0370(4) -0.0370(4)
O1M O 0.9630(4) 0.9630(4) -0.0370(4)
O1N O 1.0370(4) 0.9630(4) 0.0370(4)
O1O O 0.9630(4) 1.0370(4) 0.0370(4)
O2E O 1.1106(5) 1.0000 0.0587(6)
O2F O 0.8894(5) 1.0000 -0.0587(6)
O2G O 0.8894(5) 1.0000 0.0587(6)
O2N O 0.9413(6) 1.0000 0.1106(5)
O2O O 1.0587(6) 1.0000 0.1106(5)
O2T O 1.1106(5) 0.9413(6) 0.0000
O2U O 1.1106(5) 1.0587(6) 0.0000
O2V O 0.8894(5) 0.9413(6) 0.0000
O2W O 0.8894(5) 1.0587(6) 0.0000
loop_
_geom_bond_atom_site_label_1
_geom_bond_atom_site_label_2
_geom_bond_site_symmetry_1
_geom_bond_site_symmetry_2
C1 C3 1_555 1_555
Zr1 O1 1_555 1_555
O1 Zr1D 1_555 1_555
O2 Zr1 1_555 1_555
C2 H1 1_555 1_555
C3 C2 1_555 1_555
C4 C2 1_555 1_555
H2 C4 1_555 1_555
C5 C4 1_555 1_555
C6 O2 1_555 1_555
C7 C1 1_555 1_555
O2R C6 1_555 1_555
C2R C3 1_555 1_555
H1R C2R 1_555 1_555
C4R C5 1_555 1_555
H2R C4R 1_555 1_555
C7R C1 1_555 1_555
C7UC C1 1_555 1_555
C7ID C1 1_555 1_555
C1AA C3AA 1_555 1_555
O2AA C6AA 1_555 1_555
C2AA H1AA 1_555 1_555
C3AA C2AA 1_555 1_555
C4AA C2AA 1_555 1_555
H2AA C4AA 1_555 1_555
C5AA C4AA 1_555 1_555
C6AA C5AA 1_555 1_555
C7PD C7R 1_555 1_555
O2OA C6AA 1_555 1_555
C2OA C3AA 1_555 1_555
H1OA C2OA 1_555 1_555
C4OA C5AA 1_555 1_555
H2OA C4OA 1_555 1_555
C7HE C7 1_555 1_555
C7AA C7ID 1_555 1_555
C7OA C7UC 1_555 1_555
C1A C3A 1_555 1_555
O1A Zr1 1_555 1_555
O2A Zr1 1_555 1_555
C2A H1A 1_555 1_555
C3A C2A 1_555 1_555
C4A C2A 1_555 1_555
H2A C4A 1_555 1_555
C5A C4A 1_555 1_555
C6A O2A 1_555 1_555
C7A C1A 1_555 1_555
O2P C6A 1_555 1_555
C2P C3A 1_555 1_555
H1P C2P 1_555 1_555
C4P C5A 1_555 1_555
H2P C4P 1_555 1_555
C7P C1A 1_555 1_555
C7TC C1A 1_555 1_555
C7KD C1A 1_555 1_555
C1Z C3Z 1_555 1_555
O2Z C6Z 1_555 1_555
C2Z H1Z 1_555 1_555
C3Z C2Z 1_555 1_555
C4Z C2Z 1_555 1_555
H2Z C4Z 1_555 1_555
C5Z C4Z 1_555 1_555
C6Z C5Z 1_555 1_555
C7QD C7P 1_555 1_555
O2QA C6Z 1_555 1_555
C2QA C3Z 1_555 1_555
H1QA C2QA 1_555 1_555
C4QA C5Z 1_555 1_555
H2QA C4QA 1_555 1_555
C7FE C7A 1_555 1_555
C7Z C7KD 1_555 1_555
C7QA C7TC 1_555 1_555
C1D C3D 1_555 1_555
Zr1D O2D 1_555 1_555
O2D C6D 1_555 1_555
C2D H1D 1_555 1_555
C3D C2D 1_555 1_555
C4D C2D 1_555 1_555
H2D C4D 1_555 1_555
C5D C4D 1_555 1_555
C6D C5D 1_555 1_555
C7D C1D 1_555 1_555
O2M C6D 1_555 1_555
C2M C3D 1_555 1_555
H1M C2M 1_555 1_555
C4M C5D 1_555 1_555
H2M C4M 1_555 1_555
C7M C1D 1_555 1_555
C7YC C1D 1_555 1_555
C7FD C1D 1_555 1_555
C1CB C3CB 1_555 1_555
O2CB C6CB 1_555 1_555
C2CB H1CB 1_555 1_555
C3CB C2CB 1_555 1_555
C4CB C2CB 1_555 1_555
H2CB C4CB 1_555 1_555
C5CB C4CB 1_555 1_555
C6CB C5CB 1_555 1_555
C7RE C7M 1_555 1_555
O2JB C6CB 1_555 1_555
C2JB C3CB 1_555 1_555
H1JB C2JB 1_555 1_555
C4JB C5CB 1_555 1_555
H2JB C4JB 1_555 1_555
C7AF C7D 1_555 1_555
C7CB C7FD 1_555 1_555
C7JB C7YC 1_555 1_555
O1C Zr1D 1_555 1_555
Zr1F O1A 1_555 1_555
O1B Zr1F 1_555 1_555
Zr1B O2M 1_555 1_555
Zr1H O1 1_555 1_555
Zr1J O2R 1_555 1_555
Zr1Z O2AA 1_555 1_555
Zr1Z_2 O2Z 1_555 1_555
Zr1FA O2OA 1_555 1_555
Zr1HA O2QA 1_555 1_555
Zr1VA O2JB 1_555 1_555
Zr1BB O2CB 1_555 1_555
O1L Zr1D 1_555 1_555
O1M Zr1F 1_555 1_555
O1N Zr1 1_555 1_555
O1O Zr1 1_555 1_555
O2E Zr1D 1_555 1_555
O2F Zr1F 1_555 1_555
O2G Zr1F 1_555 1_555
O2N Zr1 1_555 1_555
O2O Zr1 1_555 1_555
O2T Zr1D 1_555 1_555
O2U Zr1D 1_555 1_555
O2V Zr1F 1_555 1_555
O2W Zr1F 1_555 1_555
C5 C6 1_555 1_555
C2R C4R 1_555 1_555
C1AA C7PD 1_555 1_555
C1AA C7HE 1_555 1_555
C1AA C7AA 1_555 1_555
C1AA C7OA 1_555 1_555
C2OA C4OA 1_555 1_555
O1A Zr1J 1_555 1_555
C5A C6A 1_555 1_555
O2P Zr1H 1_555 1_555
C2P C4P 1_555 1_555
C1Z C7QD 1_555 1_555
C1Z C7FE 1_555 1_555
C1Z C7Z 1_555 1_555
C1Z C7QA 1_555 1_555
C2QA C4QA 1_555 1_555
Zr1D O1N 1_555 1_555
C2M C4M 1_555 1_555
C1CB C7RE 1_555 1_555
C1CB C7AF 1_555 1_555
C1CB C7CB 1_555 1_555
C1CB C7JB 1_555 1_555
C2JB C4JB 1_555 1_555
O1C Zr1B 1_555 1_555
O1C Zr1J 1_555 1_555
Zr1F O1O 1_555 1_555
O1B Zr1B 1_555 1_555
O1B Zr1H 1_555 1_555
Zr1B O1L 1_555 1_555
Zr1B O1M 1_555 1_555
Zr1H O1L 1_555 1_555
Zr1H O1O 1_555 1_555
Zr1J O1M 1_555 1_555
Zr1J O1N 1_555 1_555

#END
