
#######################################################################
#
#                 Cambridge Crystallographic Data Centre
#                                CCDC 
#
#######################################################################
#
# If this CIF has been generated from an entry in the Cambridge 
# Structural Database, then it will include bibliographic, chemical, 
# crystal, experimental, refinement or atomic coordinate data resulting 
# from the CCDC's data processing and validation procedures.
#
#######################################################################

data_BOSZEQ
_chemical_formula_moiety         '(C48 H42 N2 O22 Zr3)n'
_chemical_name_systematic        
catena-[bis(\m~4~-2'-((3-carboxypropanoyl)amino)-1,1':4',1''-terphenyl-4,4''-dicarboxylato)-tetrakis(\m~3~-oxido)-tetraaqua-tri-zirconium]
_symmetry_cell_setting           tetragonal
_symmetry_space_group_name_H-M   'I 4/m m m'
_symmetry_Int_Tables_number      139
_space_group_name_Hall           '-I 4 2'
loop_
_symmetry_equiv_pos_site_id
_symmetry_equiv_pos_as_xyz
1 x,y,z
2 -x,-y,z
3 -y,x,z
4 y,-x,z
5 -x,y,-z
6 x,-y,-z
7 y,x,-z
8 -y,-x,-z
9 1/2+x,1/2+y,1/2+z
10 1/2-x,1/2-y,1/2+z
11 1/2-y,1/2+x,1/2+z
12 1/2+y,1/2-x,1/2+z
13 1/2-x,1/2+y,1/2-z
14 1/2+x,1/2-y,1/2-z
15 1/2+y,1/2+x,1/2-z
16 1/2-y,1/2-x,1/2-z
17 -x,-y,-z
18 x,y,-z
19 y,-x,-z
20 -y,x,-z
21 x,-y,z
22 -x,y,z
23 -y,-x,z
24 y,x,z
25 1/2-x,1/2-y,1/2-z
26 1/2+x,1/2+y,1/2-z
27 1/2+y,1/2-x,1/2-z
28 1/2-y,1/2+x,1/2-z
29 1/2+x,1/2-y,1/2+z
30 1/2-x,1/2+y,1/2+z
31 1/2-y,1/2-x,1/2+z
32 1/2+y,1/2+x,1/2+z
_cell_length_a                   21.638(5)
_cell_length_b                   21.638(5)
_cell_length_c                   34.103(8)
_cell_angle_alpha                90
_cell_angle_beta                 90
_cell_angle_gamma                90
_cell_volume                     15967.1
_cell_formula_units_Z            4
loop_
_atom_site_label
_atom_site_type_symbol
_atom_site_fract_x
_atom_site_fract_y
_atom_site_fract_z
Zr1 Zr 0.0000 0.0000 0.42896(5)
Zr2 Zr 0.08048(4) 0.08048(4) 0.5000
O1 O 0.0835(4) 0.0000 0.4658(2)
O2 O 0.0611(3) 0.0611(3) 0.3966(2)
O3 O 0.1135(2) 0.1135(2) 0.4410(3)
O4 O 0.0586(11) 0.1867(6) 0.5000
C1 C 0.0974(6) 0.0974(6) 0.4056(4)
C2 C 0.1336(5) 0.1336(5) 0.3773(4)
C3 C 0.1160(7) 0.1160(7) 0.3376(7)
C4 C 0.1740(7) 0.1740(7) 0.3841(6)
C5 C 0.1429(8) 0.1429(8) 0.3063(7)
C6 C 0.1896(9) 0.1896(9) 0.3124(8)
C7 C 0.2053(6) 0.2053(6) 0.3493(7)
C8 C 0.2204(13) 0.2204(13) 0.2780(10)
C9 C 0.2321(14) 0.1873(14) 0.2459(12)
C10 C 0.235(2) 0.284(2) 0.2783(10)
C9W C 0.1873(14) 0.2321(14) 0.2459(12)
C10W C 0.284(2) 0.235(2) 0.2783(10)
O2O O 0.4389(3) 0.4389(3) 0.1034(2)
O3O O 0.3865(2) 0.3865(2) 0.0590(3)
C1O C 0.4026(6) 0.4026(6) 0.0944(4)
C2O C 0.3664(5) 0.3664(5) 0.1227(4)
C3O C 0.3840(7) 0.3840(7) 0.1624(7)
C4O C 0.3260(7) 0.3260(7) 0.1159(6)
C5O C 0.3571(8) 0.3571(8) 0.1937(7)
C6O C 0.3104(9) 0.3104(9) 0.1876(8)
C7O C 0.2947(6) 0.2947(6) 0.1507(7)
C8O C 0.2796(13) 0.2796(13) 0.2220(10)
C9X C 0.2679(14) 0.3127(14) 0.2541(12)
C10X C 0.265(2) 0.216(2) 0.2217(10)
C9O C 0.3127(14) 0.2679(14) 0.2541(12)
C10O C 0.216(2) 0.265(2) 0.2217(10)
Zr2A Zr -0.08048(4) -0.08048(4) 0.5000
O1A O -0.0835(4) 0.0000 0.4658(2)
O2A O -0.0611(3) -0.0611(3) 0.3966(2)
O3A O -0.1135(2) -0.1135(2) 0.4410(3)
O4A O -0.0586(11) -0.1867(6) 0.5000
C1A C -0.0974(6) -0.0974(6) 0.4056(4)
C2A C -0.1336(5) -0.1336(5) 0.3773(4)
C3A C -0.1160(7) -0.1160(7) 0.3376(7)
C4A C -0.1740(7) -0.1740(7) 0.3841(6)
C5A C -0.1429(8) -0.1429(8) 0.3063(7)
C6A C -0.1896(9) -0.1896(9) 0.3124(8)
C7A C -0.2053(6) -0.2053(6) 0.3493(7)
C8A C -0.2204(13) -0.2204(13) 0.2780(10)
C9A C -0.2321(14) -0.1873(14) 0.2459(12)
C10A C -0.235(2) -0.284(2) 0.2783(10)
C9V C -0.1873(14) -0.2321(14) 0.2459(12)
C10V C -0.284(2) -0.235(2) 0.2783(10)
O2N O -0.4389(3) -0.4389(3) 0.1034(2)
O3N O -0.3865(2) -0.3865(2) 0.0590(3)
C1N C -0.4026(6) -0.4026(6) 0.0944(4)
C2N C -0.3664(5) -0.3664(5) 0.1227(4)
C3N C -0.3840(7) -0.3840(7) 0.1624(7)
C4N C -0.3260(7) -0.3260(7) 0.1159(6)
C5N C -0.3571(8) -0.3571(8) 0.1937(7)
C6N C -0.3104(9) -0.3104(9) 0.1876(8)
C7N C -0.2947(6) -0.2947(6) 0.1507(7)
C8N C -0.2796(13) -0.2796(13) 0.2220(10)
C9Y C -0.2679(14) -0.3127(14) 0.2541(12)
C10Y C -0.265(2) -0.216(2) 0.2217(10)
C9N C -0.3127(14) -0.2679(14) 0.2541(12)
C10N C -0.216(2) -0.265(2) 0.2217(10)
O1B O 0.0000 0.0835(4) 0.4658(2)
O1C O 0.0000 -0.0835(4) 0.4658(2)
O4F O 0.1867(6) 0.0586(11) 0.5000
O4G O -0.1867(6) -0.0586(11) 0.5000
Zr1L Zr -0.5000 -0.5000 0.07104(5)
Zr1L_2 Zr 0.5000 0.5000 0.07104(5)
Zr2B Zr -0.08048(4) 0.08048(4) 0.5000
Zr2C Zr 0.08048(4) -0.08048(4) 0.5000
Zr2H Zr -0.41952(4) -0.41952(4) 0.0000
Zr2I Zr 0.41952(4) 0.41952(4) 0.0000
O1D O -0.0835(4) 0.0000 0.5342(2)
O1E O 0.0835(4) 0.0000 0.5342(2)
O1F O 0.0000 0.0835(4) 0.5342(2)
O1G O 0.0000 -0.0835(4) 0.5342(2)
O2B O -0.0611(3) 0.0611(3) 0.3966(2)
O2C O 0.0611(3) -0.0611(3) 0.3966(2)
O3F O 0.1135(2) 0.1135(2) 0.5590(3)
O3G O -0.1135(2) -0.1135(2) 0.5590(3)
O5? O 0.0923(11) 0.1778(6) 0.5000
loop_
_geom_bond_atom_site_label_1
_geom_bond_atom_site_label_2
_geom_bond_site_symmetry_1
_geom_bond_site_symmetry_2
Zr1 O1 1_555 1_555
Zr2 O1 1_555 1_555
O1 Zr2C 1_555 1_555
O2 Zr1 1_555 1_555
O3 Zr2 1_555 1_555
O4 Zr2 1_555 1_555
C1 O2 1_555 1_555
C2 C1 1_555 1_555
C3 C2 1_555 1_555
C4 C2 1_555 1_555
C5 C3 1_555 1_555
C6 C5 1_555 1_555
C7 C4 1_555 1_555
C8 C6 1_555 1_555
C9 C8 1_555 1_555
C10 C8 1_555 1_555
C9W C8 1_555 1_555
C10W C8 1_555 1_555
O2O C1O 1_555 1_555
O3O C1O 1_555 1_555
C1O C2O 1_555 1_555
C2O C3O 1_555 1_555
C3O C5O 1_555 1_555
C4O C2O 1_555 1_555
C5O C6O 1_555 1_555
C6O C7O 1_555 1_555
C7O C4O 1_555 1_555
C8O C6O 1_555 1_555
C9X C10 1_555 1_555
C10X C9 1_555 1_555
C9O C10W 1_555 1_555
C10O C9W 1_555 1_555
Zr2A O1A 1_555 1_555
O1A Zr1 1_555 1_555
O2A Zr1 1_555 1_555
O3A Zr2A 1_555 1_555
O4A Zr2A 1_555 1_555
C1A O2A 1_555 1_555
C2A C1A 1_555 1_555
C3A C2A 1_555 1_555
C4A C2A 1_555 1_555
C5A C3A 1_555 1_555
C6A C5A 1_555 1_555
C7A C4A 1_555 1_555
C8A C6A 1_555 1_555
C9A C8A 1_555 1_555
C10A C8A 1_555 1_555
C9V C8A 1_555 1_555
C10V C8A 1_555 1_555
O2N C1N 1_555 1_555
O3N C1N 1_555 1_555
C1N C2N 1_555 1_555
C2N C3N 1_555 1_555
C3N C5N 1_555 1_555
C4N C2N 1_555 1_555
C5N C6N 1_555 1_555
C6N C7N 1_555 1_555
C7N C4N 1_555 1_555
C8N C6N 1_555 1_555
C9Y C10A 1_555 1_555
C10Y C9A 1_555 1_555
C9N C10V 1_555 1_555
C10N C9V 1_555 1_555
O1B Zr1 1_555 1_555
O1C Zr1 1_555 1_555
O4F Zr2 1_555 1_555
O4G Zr2A 1_555 1_555
Zr1L O2N 1_555 1_555
Zr1L_2 O2O 1_555 1_555
Zr2B O1A 1_555 1_555
Zr2C O1C 1_555 1_555
Zr2H O3N 1_555 1_555
Zr2I O3O 1_555 1_555
O1D Zr2A 1_555 1_555
O1E Zr2 1_555 1_555
O1F Zr2 1_555 1_555
O1G Zr2A 1_555 1_555
O2B Zr1 1_555 1_555
O2C Zr1 1_555 1_555
O3F Zr2 1_555 1_555
O3G Zr2A 1_555 1_555
Zr2 O1B 1_555 1_555
O3 C1 1_555 1_555
C6 C7 1_555 1_555
C8O C9X 1_555 1_555
C8O C10X 1_555 1_555
C8O C9O 1_555 1_555
C8O C10O 1_555 1_555
Zr2A O1C 1_555 1_555
O3A C1A 1_555 1_555
C6A C7A 1_555 1_555
C8N C9Y 1_555 1_555
C8N C10Y 1_555 1_555
C8N C9N 1_555 1_555
C8N C10N 1_555 1_555
O1B Zr2B 1_555 1_555
Zr2B O1D 1_555 1_555
Zr2B O1F 1_555 1_555
Zr2C O1E 1_555 1_555
Zr2C O1G 1_555 1_555

#END
