
#######################################################################
#
#                 Cambridge Crystallographic Data Centre
#                                CCDC 
#
#######################################################################
#
# If this CIF has been generated from an entry in the Cambridge 
# Structural Database, then it will include bibliographic, chemical, 
# crystal, experimental, refinement or atomic coordinate data resulting 
# from the CCDC's data processing and validation procedures.
#
#######################################################################

data_OLEKOG
_chemical_formula_moiety         '(C22 H18 Br2 N2 O8 Zn2)n,4.4n(C3 H7 N1 O1)'
_chemical_name_systematic        
"catena-[bis(\m~4~-2-Bromobenzene-1,4-dicarboxylato-O,O',O'',O''')-(\m~2~-1,4-diazabicyclo[2.2.2]octane-N,N')-di-zinc(ii) dimethylformamide solvate]"
_symmetry_cell_setting           orthorhombic
_symmetry_space_group_name_H-M   'P b a n'
_symmetry_Int_Tables_number      50
_space_group_name_Hall           '-P 2ab 2b'
loop_
_symmetry_equiv_pos_site_id
_symmetry_equiv_pos_as_xyz
1 x,y,z
2 1/2-x,1/2-y,z
3 1/2-x,y,-z
4 x,1/2-y,-z
5 -x,-y,-z
6 1/2+x,1/2+y,-z
7 1/2+x,-y,z
8 -x,1/2+y,z
_cell_length_a                   14.627(3)
_cell_length_b                   16.176(3)
_cell_length_c                   9.6414(19)
_cell_angle_alpha                90
_cell_angle_beta                 90
_cell_angle_gamma                90
_cell_volume                     2281.22
_exptl_crystal_colour            colorless
_exptl_crystal_description       block
_cell_formula_units_Z            2
loop_
_atom_site_label
_atom_site_type_symbol
_atom_site_fract_x
_atom_site_fract_y
_atom_site_fract_z
C1 C 0.2950(14) 0.6712(13) 0.084(2)
C2 C 0.3454(15) 0.7666(13) 0.085(3)
Br1 Br -0.0191(3) 0.6250(3) 0.7655(5)
Zn1 Zn 0.2500 0.7500 0.34665(10)
O1 O 0.1577(5) 0.6589(4) 0.3845(7)
O2 O 0.1523(5) 0.6639(4) 0.6182(7)
C3 C 0.0609(6) 0.5682(5) 0.5027(7)
N1 N 0.2500 0.7500 0.1346(9)
C4 C 0.1278(6) 0.6367(5) 0.5016(7)
C5 C -0.0576(7) 0.4870(6) 0.6084(9)
C6 C 0.0037(7) 0.5531(5) 0.6093(9)
C1C C 0.2950(14) 0.8288(13) -0.084(2)
C1B C 0.2050(14) 0.6712(13) -0.084(2)
C1A C 0.2050(14) 0.8288(13) 0.084(2)
C2C C 0.3454(15) 0.7334(13) -0.085(3)
C2B C 0.1546(15) 0.7666(13) -0.085(3)
C2A C 0.1546(15) 0.7334(13) 0.085(3)
Br1D Br 0.0191(3) 0.3750(3) 0.2345(5)
Br1B Br 0.5191(3) 0.6250(3) 0.2345(5)
Br1F Br 0.4809(3) 0.3750(3) 0.7655(5)
Zn1D Zn -0.2500 0.2500 0.65335(10)
Zn1B Zn 0.2500 0.7500 0.65335(10)
Zn1B_2 Zn 0.2500 0.7500 -0.34665(10)
Zn1F Zn -0.2500 0.2500 0.34665(10)
Zn1F_2 Zn 0.7500 0.2500 0.34665(10)
Zn1D_2 Zn 0.7500 0.2500 0.65335(10)
O1D O -0.1577(5) 0.3411(4) 0.6155(7)
O1B O 0.3423(5) 0.6589(4) 0.6155(7)
O1F O 0.6577(5) 0.3411(4) 0.3845(7)
O1A O 0.3423(5) 0.8411(4) 0.3845(7)
O1E O -0.3423(5) 0.1589(4) 0.6155(7)
O2D O -0.1523(5) 0.3361(4) 0.3818(7)
O2B O 0.3477(5) 0.6639(4) 0.3818(7)
O2F O 0.6523(5) 0.3361(4) 0.6182(7)
O2C O 0.1523(5) 0.8361(4) 0.3818(7)
O2F_2 O -0.3477(5) 0.3361(4) 0.6182(7)
O2G O -0.1523(5) 0.1639(4) 0.6182(7)
C3D C -0.0609(6) 0.4318(5) 0.4973(7)
C3B C 0.4391(6) 0.5682(5) 0.4973(7)
C3F C 0.5609(6) 0.4318(5) 0.5027(7)
N1B N 0.2500 0.7500 -0.1346(9)
N1D N -0.2500 0.2500 0.8654(9)
C4D C -0.1278(6) 0.3633(5) 0.4984(7)
C4B C 0.3722(6) 0.6367(5) 0.4984(7)
C4F C 0.6278(6) 0.3633(5) 0.5016(7)
C5D C 0.0576(7) 0.5130(6) 0.3916(9)
C5B C 0.5576(7) 0.4870(6) 0.3916(9)
C5F C 0.4424(7) 0.5130(6) 0.6084(9)
C6D C -0.0037(7) 0.4469(5) 0.3907(9)
C6B C 0.4963(7) 0.5531(5) 0.3907(9)
C6F C 0.5037(7) 0.4469(5) 0.6093(9)
C7? C 0.3365(12) 0.7096(10) 0.0798(19)
H1? H 0.3649 0.6972 -0.0088
H2? H 0.3801 0.6900 0.1482
C8? C 0.1781(12) 0.6837(11) 0.083(2)
H3? H 0.1542 0.6604 -0.0024
H4? H 0.1463 0.6549 0.1569
H5? H 0.3150 0.6402 0.1647
H6? H 0.3116 0.6368 0.0058
C9? C 0.2351(10) 0.6636(11) 0.088(2)
H7? H 0.2311 0.6354 0.1761
H8? H 0.2297 0.6195 0.0199
H9? H 0.1221 0.7303 0.1726
H10? H 0.1072 0.7270 0.0157
Br2? Br -0.1305(13) 0.4966(9) 0.7713(15)
loop_
_geom_bond_atom_site_label_1
_geom_bond_atom_site_label_2
_geom_bond_site_symmetry_1
_geom_bond_site_symmetry_2
C1 C2 1_555 1_555
C2 N1 1_555 1_555
Br1 C6 1_555 1_555
Zn1 O1 1_555 1_555
O1 C4 1_555 1_555
O2 C4 1_555 1_555
C3 C4 1_555 1_555
N1 C1 1_555 1_555
C5 C6 1_555 1_555
C6 C3 1_555 1_555
C1C C2C 1_555 1_555
C1B C2B 1_555 1_555
C1A N1 1_555 1_555
C2C C2 1_555 1_555
C2B C2A 1_555 1_555
C2A N1 1_555 1_555
Br1D C6D 1_555 1_555
Br1B C6B 1_555 1_555
Br1F C6F 1_555 1_555
Zn1D O1D 1_555 1_555
Zn1B O2 1_555 1_555
Zn1B_2 N1B 1_555 1_555
Zn1F O2D 1_555 1_555
Zn1F_2 O1F 1_555 1_555
Zn1D_2 O2F 1_555 1_555
O1D C4D 1_555 1_555
O1B Zn1B 1_555 1_555
O1F C4F 1_555 1_555
O1A Zn1 1_555 1_555
O1E Zn1D 1_555 1_555
O2D C4D 1_555 1_555
O2B Zn1 1_555 1_555
O2F C4F 1_555 1_555
O2C Zn1 1_555 1_555
O2F_2 Zn1D 1_555 1_555
O2G Zn1D 1_555 1_555
C3D C5 1_555 1_555
C3B C4B 1_555 1_555
C3F C4F 1_555 1_555
N1B C1C 1_555 1_555
N1D Zn1D 1_555 1_555
C4D C3D 1_555 1_555
C4B O1B 1_555 1_555
C5D C3 1_555 1_555
C5B C3F 1_555 1_555
C5F C3B 1_555 1_555
C6D C3D 1_555 1_555
C6B C3B 1_555 1_555
C6F C3F 1_555 1_555
Zn1 N1 1_555 1_555
C1B N1B 1_555 1_555
C1A C2A 1_555 1_555
C2C N1B 1_555 1_555
C2B N1B 1_555 1_555
O2B C4B 1_555 1_555
C5D C6D 1_555 1_555
C5B C6B 1_555 1_555
C5F C6F 1_555 1_555

#END
