
#######################################################################
#
#                 Cambridge Crystallographic Data Centre
#                                CCDC 
#
#######################################################################
#
# If this CIF has been generated from an entry in the Cambridge 
# Structural Database, then it will include bibliographic, chemical, 
# crystal, experimental, refinement or atomic coordinate data resulting 
# from the CCDC's data processing and validation procedures.
#
#######################################################################

data_OTAXOX
_chemical_formula_moiety         '(C12 H12 Mg6 O24)n,n(C2 H7 N1)'
_chemical_name_systematic        
"catena-(dodecakis(\m~3~-Formato-O,O,O')-hexa-magnesium dimethylamine)"
_symmetry_cell_setting           orthorhombic
_symmetry_space_group_name_H-M   'P b c n'
_symmetry_Int_Tables_number      60
_space_group_name_Hall           '-P 2n 2ab'
loop_
_symmetry_equiv_pos_site_id
_symmetry_equiv_pos_as_xyz
1 x,y,z
2 1/2-x,1/2-y,1/2+z
3 1/2+x,1/2-y,-z
4 -x,y,1/2-z
5 -x,-y,-z
6 1/2+x,1/2+y,1/2-z
7 1/2-x,1/2+y,z
8 x,-y,1/2+z
_cell_length_a                   9.9638(18)
_cell_length_b                   18.450(3)
_cell_length_c                   18.082(3)
_cell_angle_alpha                90
_cell_angle_beta                 90
_cell_angle_gamma                90
_cell_volume                     3324.05
_exptl_crystal_colour            colorless
_exptl_crystal_description       prismatic
_cell_formula_units_Z            4
loop_
_atom_site_label
_atom_site_type_symbol
_atom_site_fract_x
_atom_site_fract_y
_atom_site_fract_z
Mg1 Mg 0.57509(18) 0.17847(7) 0.05856(9)
Mg2 Mg 0.38421(18) 0.28283(7) -0.03518(9)
Mg3 Mg 0.5000 0.0000 0.0000
Mg4 Mg 0.5000 0.18441(12) 0.2500
O1 O 0.6964(4) 0.26727(15) 0.02957(18)
O2 O 0.5544(4) 0.34238(16) -0.0272(2)
O3 O 0.6505(4) 0.18343(17) 0.16631(18)
O4 O 0.8678(4) 0.2000(2) 0.1449(2)
O5 O 0.4862(4) 0.18596(16) -0.04688(19)
O6 O 0.4176(4) 0.25137(15) 0.07585(18)
O7 O 0.4714(4) 0.08382(15) 0.07916(18)
O8 O 0.7518(4) 0.12846(15) 0.02038(18)
O9 O 0.3958(5) 0.26458(18) 0.1973(2)
O10 O 0.3962(4) 0.10773(18) 0.1927(2)
O11 O 0.7039(4) 0.01247(16) 0.0089(2)
O12 O 0.4985(5) 0.07193(17) -0.0851(2)
C1 C 0.6657(7) 0.3267(3) -0.0011(3)
H1 H 0.7327 0.3617 -0.0044
C2 C 0.7809(7) 0.0632(2) 0.0117(3)
H2 H 0.8717 0.0523 0.0070
C3 C 0.7719(7) 0.1884(3) 0.1853(3)
H3 H 0.7904 0.1826 0.2354
C4 C 0.3680(7) 0.2792(3) 0.1330(3)
H4 H 0.3032 0.3148 0.1258
C5 C 0.4806(6) 0.1369(3) -0.0959(3)
H5 H 0.4615 0.1514 -0.1440
C6 C 0.4002(7) 0.0708(3) 0.1361(3)
H6 H 0.3463 0.0297 0.1348
Mg1D Mg 0.42491(18) -0.17847(7) -0.05856(9)
Mg1B Mg 0.07509(18) 0.32153(7) -0.05856(9)
Mg1C Mg 0.42491(18) 0.17847(7) 0.44144(9)
Mg2D Mg 0.61579(18) -0.28283(7) 0.03518(9)
Mg2B Mg 0.88421(18) 0.21717(7) 0.03518(9)
Mg2F Mg 0.11579(18) -0.21717(7) -0.03518(9)
Mg2B_2 Mg -0.11579(18) 0.21717(7) 0.03518(9)
Mg2C Mg 0.61579(18) 0.28283(7) 0.53518(9)
Mg4D Mg 0.5000 -0.18441(12) -0.2500
Mg4A Mg 0.0000 0.31559(12) -0.2500
O1B O 0.1964(4) 0.23273(15) -0.02957(18)
O1D O 0.3036(4) -0.26727(15) -0.02957(18)
O1F O 0.8036(4) -0.23273(15) 0.02957(18)
O2B O 0.0544(4) 0.15762(16) 0.0272(2)
O2D O 0.4456(4) -0.34238(16) 0.0272(2)
O3B O 0.1505(4) 0.31657(17) -0.16631(18)
O3C O 0.3495(4) 0.18343(17) 0.33369(18)
O3D O 0.3495(4) -0.18343(17) -0.16631(18)
O4B O 0.3678(4) 0.3000(2) -0.1449(2)
O4F O 0.6322(4) -0.3000(2) 0.1449(2)
O5D O 0.5138(4) -0.18596(16) 0.04688(19)
O6C O 0.5824(4) 0.25137(15) 0.42415(18)
O6D O 0.5824(4) -0.25137(15) -0.07585(18)
O7D O 0.5286(4) -0.08382(15) -0.07916(18)
O8D O 0.2482(4) -0.12846(15) -0.02038(18)
O8B O 0.2518(4) 0.37154(15) -0.02038(18)
O8F O 0.7482(4) -0.37154(15) 0.02038(18)
O9C O 0.6042(5) 0.26458(18) 0.3027(2)
O10D O 0.6038(4) -0.10773(18) -0.1927(2)
O10C O 0.6038(4) 0.10773(18) 0.3073(2)
O11D O 0.2961(4) -0.01247(16) -0.0089(2)
O12D O 0.5015(5) -0.07193(17) 0.0851(2)
C1B C 0.1657(7) 0.1733(3) 0.0011(3)
H1B H 0.2327 0.1383 0.0044
C2D C 0.2191(7) -0.0632(2) -0.0117(3)
H2D H 0.1283 -0.0523 -0.0070
C3B C 0.2719(7) 0.3116(3) -0.1853(3)
H3B H 0.2904 0.3174 -0.2354
C4C C 0.6320(7) 0.2792(3) 0.3670(3)
H4C H 0.6968 0.3148 0.3742
C5D C 0.5194(6) -0.1369(3) 0.0959(3)
H5D H 0.5385 -0.1514 0.1440
C6D C 0.5998(7) -0.0708(3) -0.1361(3)
H6D H 0.6537 -0.0297 -0.1348
N1 N 1.0000 0.9966(18) 0.2500
C7 C 1.118(6) 0.956(3) 0.288(3)
C7C C 0.882(6) 0.956(3) 0.212(3)
loop_
_geom_bond_atom_site_label_1
_geom_bond_atom_site_label_2
_geom_bond_site_symmetry_1
_geom_bond_site_symmetry_2
Mg1 O1 1_555 1_555
Mg2 O2 1_555 1_555
Mg3 O7 1_555 1_555
Mg4 O3 1_555 1_555
O1 C1 1_555 1_555
O2 C1 1_555 1_555
O3 Mg1 1_555 1_555
O4 C3 1_555 1_555
O5 Mg1 1_555 1_555
O6 Mg1 1_555 1_555
O7 Mg1 1_555 1_555
O8 Mg1 1_555 1_555
O9 Mg4 1_555 1_555
O10 Mg4 1_555 1_555
O11 Mg3 1_555 1_555
O12 Mg3 1_555 1_555
C1 H1 1_555 1_555
C2 O8 1_555 1_555
H2 C2 1_555 1_555
C3 O3 1_555 1_555
H3 C3 1_555 1_555
C4 O6 1_555 1_555
H4 C4 1_555 1_555
C5 O5 1_555 1_555
H5 C5 1_555 1_555
C6 O7 1_555 1_555
H6 C6 1_555 1_555
N1 C7 1_555 1_555
Mg1D O1D 1_555 1_555
Mg1B O1B 1_555 1_555
Mg1C O3C 1_555 1_555
Mg2D O1F 1_555 1_555
Mg2B O1 1_555 1_555
Mg2F O1D 1_555 1_555
Mg2B_2 O2B 1_555 1_555
Mg2C O6C 1_555 1_555
Mg4D O3D 1_555 1_555
Mg4A O3B 1_555 1_555
O1B Mg2 1_555 1_555
O2B C1B 1_555 1_555
O2D Mg2D 1_555 1_555
O3B Mg1B 1_555 1_555
O3C Mg4 1_555 1_555
O3D Mg1D 1_555 1_555
O4B Mg2 1_555 1_555
O4F Mg2D 1_555 1_555
O5D Mg1D 1_555 1_555
O6C Mg1C 1_555 1_555
O6D Mg1D 1_555 1_555
O7D Mg3 1_555 1_555
O8D Mg1D 1_555 1_555
O8B Mg2 1_555 1_555
O8F Mg2D 1_555 1_555
O9C Mg4 1_555 1_555
O10D Mg4D 1_555 1_555
O10C Mg4 1_555 1_555
O11D Mg3 1_555 1_555
O12D Mg3 1_555 1_555
C1B O1B 1_555 1_555
H1B C1B 1_555 1_555
C2D O8D 1_555 1_555
H2D C2D 1_555 1_555
C3B O3B 1_555 1_555
H3B C3B 1_555 1_555
C4C O6C 1_555 1_555
H4C C4C 1_555 1_555
C5D O5D 1_555 1_555
H5D C5D 1_555 1_555
C6D O7D 1_555 1_555
H6D C6D 1_555 1_555
C7C N1 1_555 1_555
Mg2 O5 1_555 1_555
Mg2 O6 1_555 1_555
O4 Mg2B 1_555 1_555
O8 Mg2B 1_555 1_555
O9 C4 1_555 1_555
O10 C6 1_555 1_555
O11 C2 1_555 1_555
O12 C5 1_555 1_555
Mg1D O7D 1_555 1_555
Mg1B O8B 1_555 1_555
Mg2D O5D 1_555 1_555
Mg2D O6D 1_555 1_555
Mg2F O8D 1_555 1_555
O4B C3B 1_555 1_555
O9C C4C 1_555 1_555
O10D C6D 1_555 1_555
O11D C2D 1_555 1_555
O12D C5D 1_555 1_555

#END
