
#######################################################################
#
#                 Cambridge Crystallographic Data Centre
#                                CCDC 
#
#######################################################################
#
# If this CIF has been generated from an entry in the Cambridge 
# Structural Database, then it will include bibliographic, chemical, 
# crystal, experimental, refinement or atomic coordinate data resulting 
# from the CCDC's data processing and validation procedures.
#
#######################################################################

data_UXUNUX
_chemical_formula_moiety         '(C22 H16 Cu1 F6 N4 O6 S2)n'
_chemical_name_systematic        
"catena-(bis(\m~2~-4,4'-Bipyridine)-bis(trifluoromethanesulfonato)-copper unknown solvate)"
_symmetry_cell_setting           tetragonal
_symmetry_space_group_name_H-M   'I 41/a c d'
_symmetry_Int_Tables_number      142
_space_group_name_Hall           '-I 4bd 2c'
loop_
_symmetry_equiv_pos_site_id
_symmetry_equiv_pos_as_xyz
1 x,y,z
2 1/2-x,-y,1/2+z
3 1/4-y,3/4+x,1/4+z
4 1/4+y,1/4-x,3/4+z
5 1/2-x,y,-z
6 x,-y,1/2-z
7 1/4+y,3/4+x,3/4-z
8 1/4-y,1/4-x,1/4-z
9 1/2+x,1/2+y,1/2+z
10 -x,1/2-y,z
11 3/4-y,1/4+x,3/4+z
12 3/4+y,3/4-x,1/4+z
13 -x,1/2+y,1/2-z
14 1/2+x,1/2-y,-z
15 3/4+y,1/4+x,1/4-z
16 3/4-y,3/4-x,3/4-z
17 -x,-y,-z
18 1/2+x,y,1/2-z
19 3/4+y,1/4-x,3/4-z
20 3/4-y,3/4+x,1/4-z
21 1/2+x,-y,z
22 -x,y,1/2+z
23 3/4-y,1/4-x,1/4+z
24 3/4+y,3/4+x,3/4+z
25 1/2-x,1/2-y,1/2-z
26 x,1/2+y,-z
27 1/4+y,3/4-x,1/4-z
28 1/4-y,1/4+x,3/4-z
29 x,1/2-y,1/2+z
30 1/2-x,1/2+y,z
31 1/4-y,3/4-x,3/4+z
32 1/4+y,1/4+x,1/4+z
_cell_length_a                   28.546(4)
_cell_length_b                   28.546(4)
_cell_length_c                   18.064(4)
_cell_angle_alpha                90
_cell_angle_beta                 90
_cell_angle_gamma                90
_cell_volume                     14719.9
_exptl_crystal_colour            blue
_exptl_crystal_description       column
_cell_formula_units_Z            16
loop_
_atom_site_label
_atom_site_type_symbol
_atom_site_fract_x
_atom_site_fract_y
_atom_site_fract_z
_atom_site_U_iso_or_equiv
_atom_site_thermal_displace_type
Cu1 Cu 0.7500 0.25996(3) 0.5000 0.0241 Uani
N1 N 0.79102(14) 0.20976(15) 0.4538(3) 0.0260 Uani
N2 N 0.94103(16) 0.04111(15) 0.2963(3) 0.0283 Uani
C1 C 0.8367(2) 0.2071(2) 0.4715(4) 0.0430 Uani
H1 H 0.8489 0.2288 0.5048 0.0520 Uiso
C2 C 0.8660(2) 0.1736(2) 0.4422(3) 0.0393 Uani
H2 H 0.8973 0.1724 0.4564 0.0470 Uiso
C3 C 0.84830(18) 0.1414(2) 0.3912(3) 0.0313 Uani
C4 C 0.8018(2) 0.1455(2) 0.3718(4) 0.0427 Uani
H3 H 0.7890 0.1257 0.3363 0.0510 Uiso
C5 C 0.77441(19) 0.1792(2) 0.4056(4) 0.0393 Uani
H4 H 0.7427 0.1805 0.3938 0.0470 Uiso
C6 C 0.9428(2) 0.0515(2) 0.3689(3) 0.0380 Uani
H5 H 0.9646 0.0362 0.3986 0.0460 Uiso
C7 C 0.9137(2) 0.0837(2) 0.4006(4) 0.0420 Uani
H6 H 0.9167 0.0909 0.4506 0.0500 Uiso
C8 C 0.8798(2) 0.10580(19) 0.3582(3) 0.0323 Uani
C9 C 0.8760(2) 0.09390(19) 0.2836(4) 0.0370 Uani
H7 H 0.8531 0.1073 0.2538 0.0440 Uiso
C10 C 0.9076(2) 0.06140(19) 0.2550(4) 0.0353 Uani
H8 H 0.9054 0.0535 0.2052 0.0420 Uiso
S1 S 0.81548(12) 0.27695(11) 0.67927(15) 0.0732 Uani
C11 C 0.8786(3) 0.2664(3) 0.6808(6) 0.5433 Uani
F1 F 0.8951(5) 0.2793(5) 0.7435(7) 0.3767 Uani
F2 F 0.8947(3) 0.2881(4) 0.6239(7) 0.2543 Uani
F3 F 0.8836(4) 0.2204(3) 0.6711(7) 0.2130 Uani
O1 O 0.80143(13) 0.25912(13) 0.60820(19) 0.0347 Uani
O2 O 0.8111(3) 0.32612(19) 0.6863(4) 0.0820 Uani
O3 O 0.7970(4) 0.2522(3) 0.7392(4) 0.2160 Uani
Cu1AA Cu 0.99004(3) 0.0000 0.2500 0.0241 Uani
Cu1Z Cu 0.50996(3) 0.0000 0.7500 0.0241 Uani
N1D N 0.70898(14) 0.20976(15) 0.5462(3) 0.0260 Uani
N2D N 0.55897(16) 0.04111(15) 0.7037(3) 0.0283 Uani
N2R N 0.79111(15) 0.30897(16) 0.4537(3) 0.0283 Uani
N2V N 0.70889(15) 0.30897(16) 0.5463(3) 0.0283 Uani
C1D C 0.6633(2) 0.2071(2) 0.5285(4) 0.0430 Uani
H1D H 0.6511 0.2288 0.4952 0.0520 Uiso
C2D C 0.6340(2) 0.1736(2) 0.5578(3) 0.0393 Uani
H2D H 0.6027 0.1724 0.5436 0.0470 Uiso
C3D C 0.65170(18) 0.1414(2) 0.6088(3) 0.0313 Uani
C4D C 0.6982(2) 0.1455(2) 0.6282(4) 0.0427 Uani
H3D H 0.7110 0.1257 0.6637 0.0510 Uiso
C5D C 0.72559(19) 0.1792(2) 0.5944(4) 0.0393 Uani
H4D H 0.7573 0.1805 0.6062 0.0470 Uiso
C6D C 0.5572(2) 0.0515(2) 0.6311(3) 0.0380 Uani
H5D H 0.5354 0.0362 0.6014 0.0460 Uiso
C7D C 0.5863(2) 0.0837(2) 0.5994(4) 0.0420 Uani
H6D H 0.5833 0.0909 0.5494 0.0500 Uiso
C8D C 0.6202(2) 0.10580(19) 0.6418(3) 0.0323 Uani
C9D C 0.6240(2) 0.09390(19) 0.7164(4) 0.0370 Uani
H7D H 0.6469 0.1073 0.7462 0.0440 Uiso
C10D C 0.5924(2) 0.06140(19) 0.7450(4) 0.0353 Uani
H8D H 0.5946 0.0535 0.7948 0.0420 Uiso
S1D S 0.68452(12) 0.27695(11) 0.32073(15) 0.0732 Uani
C11D C 0.6214(3) 0.2664(3) 0.3192(6) 0.5433 Uani
F1D F 0.6049(5) 0.2793(5) 0.2565(7) 0.3767 Uani
F2D F 0.6053(3) 0.2881(4) 0.3761(7) 0.2543 Uani
F3D F 0.6164(4) 0.2204(3) 0.3289(7) 0.2130 Uani
O1D O 0.69857(13) 0.25912(13) 0.39180(19) 0.0347 Uani
O2D O 0.6889(3) 0.32612(19) 0.3137(4) 0.0820 Uani
O3D O 0.7030(4) 0.2522(3) 0.2608(4) 0.2160 Uani
O4? O 0.8282(5) 0.1921(3) 0.6684(8) 0.0590 Uiso
S2? S 0.8235(3) 0.2425(2) 0.6748(3) 0.0487 Uani
loop_
_atom_site_aniso_label
_atom_site_aniso_U_11
_atom_site_aniso_U_22
_atom_site_aniso_U_33
_atom_site_aniso_U_23
_atom_site_aniso_U_13
_atom_site_aniso_U_12
Cu1 0.0217(4) 0.0161(4) 0.0346(5) 0.000 0.0154(4) 0.000
N1 0.020(2) 0.022(2) 0.036(3) -0.0075(18) 0.0099(18) 0.0006(16)
N2 0.024 0.03 0.031 -0.015 -0.0027 0.0015
C1 0.026(3) 0.044(3) 0.059(4) -0.028(3) 0.003(3) 0.006(3)
C2 0.028(3) 0.045(3) 0.045(4) -0.025(3) -0.005(2) 0.007(2)
C3 0.021(2) 0.038(3) 0.035(3) -0.015(2) 0.001(2) 0.004(2)
C4 0.026(3) 0.042(3) 0.060(4) -0.030(3) 0.001(3) 0.008(2)
C5 0.020(3) 0.038(3) 0.060(4) -0.019(3) -0.002(3) 0.009(2)
C6 0.034 0.046 0.034 -0.011 -0.005 0.014
C7 0.033 0.05 0.043 -0.02 -0.001 0.013
C8 0.025 0.032 0.04 -0.017 0.002 0.004
C9 0.023 0.044 0.044 -0.017 -0.01 0.01
C10 0.024 0.04 0.042 -0.017 -0.005 0.009
S1 0.107(2) 0.066(2) 0.0465(15) -0.0067(12) -0.0123(15) 0.0125(16)
C11 0.65(4) 0.58(4) 0.40(4) 0.29(3) -0.44(4) -0.501
F1 0.32(2) 0.36(2) 0.45(3) -0.18(2) -0.30(2) 0.161(17)
F2 0.074(5) 0.239(14) 0.45(2) -0.098(15) -0.020(9) -0.027(7)
F3 0.150(9) 0.175(10) 0.314(16) -0.106(10) -0.103(10) 0.072(8)
O1 0.034(2) 0.035(2) 0.035(2) -0.0046(17) 0.0059(17) -0.0032(17)
O2 0.103(6) 0.070(5) 0.073(5) -0.034(4) -0.015(5) 0.006(4)
O3 0.42(2) 0.153(9) 0.075(6) 0.050(6) 0.083(10) 0.090(12)
Cu1AA 0.0161 0.0217 0.0346 -0.0154 0 0
Cu1Z 0.0161 0.0217 0.0346 0.0154 0 0
N1D 0.02 0.022 0.036 0.0075 0.0099 -0.0006
N2D 0.024 0.03 0.031 0.015 -0.0027 -0.0015
N2R 0.03 0.024 0.031 -0.0027 0.015 -0.0015
N2V 0.03 0.024 0.031 0.0027 0.015 0.0015
C1D 0.026 0.044 0.059 0.028 0.003 -0.006
C2D 0.028 0.045 0.045 0.025 -0.005 -0.007
C3D 0.021 0.038 0.035 0.015 0.001 -0.004
C4D 0.026 0.042 0.06 0.03 0.001 -0.008
C5D 0.02 0.038 0.06 0.019 -0.002 -0.009
C6D 0.034 0.046 0.034 0.011 -0.005 -0.014
C7D 0.033 0.05 0.043 0.02 -0.001 -0.013
C8D 0.025 0.032 0.04 0.017 0.002 -0.004
C9D 0.023 0.044 0.044 0.017 -0.01 -0.01
C10D 0.024 0.04 0.042 0.017 -0.005 -0.009
S1D 0.107 0.066 0.0465 0.0067 -0.0123 -0.0125
C11D 0.65 0.58 0.4 -0.29 -0.44 0.501
F1D 0.32 0.36 0.45 0.18 -0.3 -0.161
F2D 0.074 0.239 0.45 0.098 -0.02 0.027
F3D 0.15 0.175 0.314 0.106 -0.103 -0.072
O1D 0.034 0.035 0.035 0.0046 0.0059 0.0032
O2D 0.103 0.07 0.073 0.034 -0.015 -0.006
O3D 0.42 0.153 0.075 -0.05 0.083 -0.09
S2? 0.098(7) 0.028(4) 0.020(4) -0.009(3) -0.004(4) 0.043(4)
loop_
_geom_bond_atom_site_label_1
_geom_bond_atom_site_label_2
_geom_bond_site_symmetry_1
_geom_bond_site_symmetry_2
Cu1 N1 1_555 1_555
N1 C1 1_555 1_555
N2 C6 1_555 1_555
C1 H1 1_555 1_555
C2 C1 1_555 1_555
H2 C2 1_555 1_555
C3 C2 1_555 1_555
C4 C3 1_555 1_555
H3 C4 1_555 1_555
C5 N1 1_555 1_555
H4 C5 1_555 1_555
C6 H5 1_555 1_555
C7 C6 1_555 1_555
H6 C7 1_555 1_555
C8 C3 1_555 1_555
C9 C8 1_555 1_555
H7 C9 1_555 1_555
C10 N2 1_555 1_555
H8 C10 1_555 1_555
S1 C11 1_555 1_555
C11 F1 1_555 1_555
F2 C11 1_555 1_555
F3 C11 1_555 1_555
O1 Cu1 1_555 1_555
O2 S1 1_555 1_555
O3 S1 1_555 1_555
Cu1AA N2 1_555 1_555
Cu1Z N2D 1_555 1_555
N1D Cu1 1_555 1_555
N2D C6D 1_555 1_555
N2R Cu1 1_555 1_555
N2V Cu1 1_555 1_555
C1D N1D 1_555 1_555
H1D C1D 1_555 1_555
C2D C1D 1_555 1_555
H2D C2D 1_555 1_555
C3D C2D 1_555 1_555
C4D C3D 1_555 1_555
H3D C4D 1_555 1_555
C5D N1D 1_555 1_555
H4D C5D 1_555 1_555
C6D H5D 1_555 1_555
C7D C6D 1_555 1_555
H6D C7D 1_555 1_555
C8D C3D 1_555 1_555
C9D C8D 1_555 1_555
H7D C9D 1_555 1_555
C10D N2D 1_555 1_555
H8D C10D 1_555 1_555
S1D C11D 1_555 1_555
C11D F1D 1_555 1_555
F2D C11D 1_555 1_555
F3D C11D 1_555 1_555
O1D Cu1 1_555 1_555
O2D S1D 1_555 1_555
O3D S1D 1_555 1_555
C4 C5 1_555 1_555
C7 C8 1_555 1_555
C9 C10 1_555 1_555
S1 O1 1_555 1_555
C4D C5D 1_555 1_555
C7D C8D 1_555 1_555
C9D C10D 1_555 1_555
S1D O1D 1_555 1_555

#END
