
#######################################################################
#
#                 Cambridge Crystallographic Data Centre
#                                CCDC 
#
#######################################################################
#
# If this CIF has been generated from an entry in the Cambridge 
# Structural Database, then it will include bibliographic, chemical, 
# crystal, experimental, refinement or atomic coordinate data resulting 
# from the CCDC's data processing and validation procedures.
#
#######################################################################

data_CUMFEW
_chemical_formula_moiety         '(C22 H18 N4 O12 Zn2)n'
_chemical_name_systematic        
catena-(bis(\m~4~-2-nitrobenzene-1,4-dicarboxylato)-(\m~2~-1,4-diazabicyclo(2.2.2)octane)-di-zinc)
_symmetry_cell_setting           tetragonal
_symmetry_space_group_name_H-M   'P 4/m m m'
_symmetry_Int_Tables_number      123
_space_group_name_Hall           '-P 4 2'
loop_
_symmetry_equiv_pos_site_id
_symmetry_equiv_pos_as_xyz
1 x,y,z
2 -x,-y,z
3 -y,x,z
4 y,-x,z
5 -x,y,-z
6 x,-y,-z
7 y,x,-z
8 -y,-x,-z
9 -x,-y,-z
10 x,y,-z
11 y,-x,-z
12 -y,x,-z
13 x,-y,z
14 -x,y,z
15 -y,-x,z
16 y,x,z
_cell_length_a                   10.9389(15)
_cell_length_b                   10.9389(15)
_cell_length_c                   9.6807(19)
_cell_angle_alpha                90
_cell_angle_beta                 90
_cell_angle_gamma                90
_cell_volume                     1158.39
_exptl_crystal_colour            yellow
_exptl_crystal_description       block
_cell_formula_units_Z            1
loop_
_atom_site_label
_atom_site_type_symbol
_atom_site_fract_x
_atom_site_fract_y
_atom_site_fract_z
N1 N 0.898(2) 0.380(2) 0.234(3)
Zn1 Zn 1.0000 0.0000 0.15335(4)
O1 O 1.0000 0.18264(17) 0.1148(2)
C1 C 1.0000 0.2337(3) 0.0000
N2 N 1.0000 0.0000 0.3668(4)
C2 C 1.0000 0.3719(3) 0.0000
C3 C 1.0497(7) 0.1154(5) 0.4201(4)
C4 C 0.9631(5) 0.4370(3) 0.1147(4)
O2 O 0.802(3) 0.329(3) 0.213(3)
O3 O 0.943(3) 0.391(3) 0.329(2)
N1D N 1.102(2) 0.380(2) -0.234(3)
N1I N 0.898(2) 0.380(2) -0.234(3)
N1M N 1.102(2) 0.380(2) 0.234(3)
N1L N 0.898(2) 0.620(2) 0.234(3)
N1A N 1.102(2) 0.620(2) 0.234(3)
N1E N 0.898(2) 0.620(2) -0.234(3)
N1H N 1.102(2) 0.620(2) -0.234(3)
N1A_2 N 1.102(2) -0.380(2) 0.234(3)
N1E_2 N 0.898(2) -0.380(2) -0.234(3)
N1H_2 N 1.102(2) -0.380(2) -0.234(3)
N1L_2 N 0.898(2) -0.380(2) 0.234(3)
N1M_2 N 1.102(2) -0.620(2) 0.234(3)
N1_2 N 0.898(2) -0.620(2) 0.234(3)
N1D_2 N 1.102(2) -0.620(2) -0.234(3)
N1I_2 N 0.898(2) -0.620(2) -0.234(3)
Zn1D Zn 1.0000 0.0000 -0.15335(4)
Zn1_2 Zn 1.0000 1.0000 0.15335(4)
Zn1D_2 Zn 1.0000 1.0000 -0.15335(4)
Zn1D_3 Zn 1.0000 0.0000 0.84665(4)
Zn1_3 Zn 1.0000 -1.0000 0.15335(4)
Zn1D_4 Zn 1.0000 -1.0000 -0.15335(4)
O1D O 1.0000 0.18264(17) -0.1148(2)
O1A O 1.0000 0.81736(17) 0.1148(2)
O1E O 1.0000 0.81736(17) -0.1148(2)
O1A_2 O 1.0000 -0.18264(17) 0.1148(2)
O1E_2 O 1.0000 -0.18264(17) -0.1148(2)
O1_2 O 1.0000 -0.81736(17) 0.1148(2)
O1D_2 O 1.0000 -0.81736(17) -0.1148(2)
O1B O 0.81736(17) 0.0000 0.1148(2)
O1C O 1.18264(17) 0.0000 0.1148(2)
O1F O 1.18264(17) 0.0000 -0.1148(2)
O1G O 0.81736(17) 0.0000 -0.1148(2)
C1A C 1.0000 0.7663(3) 0.0000
C1A_2 C 1.0000 -0.2337(3) 0.0000
C1_2 C 1.0000 -0.7663(3) 0.0000
N2D N 1.0000 0.0000 0.6332(4)
N2D_2 N 1.0000 0.0000 -0.3668(4)
C2A C 1.0000 0.6281(3) 0.0000
C2A_2 C 1.0000 -0.3719(3) 0.0000
C2_2 C 1.0000 -0.6281(3) 0.0000
C3I C 1.0497(7) 0.1154(5) 0.5799(4)
C3H C 0.9503(7) -0.1154(5) 0.5799(4)
C3A C 0.9503(7) -0.1154(5) 0.4201(4)
C3B C 0.8846(5) 0.0497(7) 0.4201(4)
C3K C 0.8846(5) 0.0497(7) 0.5799(4)
C3N C 0.8846(5) -0.0497(7) 0.4201(4)
C3C C 1.1154(5) -0.0497(7) 0.4201(4)
C3J C 1.1154(5) -0.0497(7) 0.5799(4)
C3O C 1.1154(5) 0.0497(7) 0.4201(4)
C3L C 1.0497(7) -0.1154(5) 0.4201(4)
C3E C 1.0497(7) -0.1154(5) 0.5799(4)
C3G C 0.8846(5) -0.0497(7) 0.5799(4)
C3M C 0.9503(7) 0.1154(5) 0.4201(4)
C3D C 0.9503(7) 0.1154(5) 0.5799(4)
C3F C 1.1154(5) 0.0497(7) 0.5799(4)
C4D C 1.0369(5) 0.4370(3) -0.1147(4)
C4I C 0.9631(5) 0.4370(3) -0.1147(4)
C4M C 1.0369(5) 0.4370(3) 0.1147(4)
C4L C 0.9631(5) 0.5630(3) 0.1147(4)
C4A C 1.0369(5) 0.5630(3) 0.1147(4)
C4E C 0.9631(5) 0.5630(3) -0.1147(4)
C4H C 1.0369(5) 0.5630(3) -0.1147(4)
C4A_2 C 1.0369(5) -0.4370(3) 0.1147(4)
C4E_2 C 0.9631(5) -0.4370(3) -0.1147(4)
C4H_2 C 1.0369(5) -0.4370(3) -0.1147(4)
C4L_2 C 0.9631(5) -0.4370(3) 0.1147(4)
C4M_2 C 1.0369(5) -0.5630(3) 0.1147(4)
C4_2 C 0.9631(5) -0.5630(3) 0.1147(4)
C4D_2 C 1.0369(5) -0.5630(3) -0.1147(4)
C4I_2 C 0.9631(5) -0.5630(3) -0.1147(4)
O2D O 1.198(3) 0.329(3) -0.213(3)
O2M O 1.198(3) 0.329(3) 0.213(3)
O2L O 0.802(3) 0.671(3) 0.213(3)
O2E O 0.802(3) 0.671(3) -0.213(3)
O2H O 1.198(3) 0.671(3) -0.213(3)
O2A O 1.198(3) 0.671(3) 0.213(3)
O2I O 0.802(3) 0.329(3) -0.213(3)
O2A_2 O 1.198(3) -0.329(3) 0.213(3)
O2E_2 O 0.802(3) -0.329(3) -0.213(3)
O2L_2 O 0.802(3) -0.329(3) 0.213(3)
O2M_2 O 1.198(3) -0.671(3) 0.213(3)
O2D_2 O 1.198(3) -0.671(3) -0.213(3)
O2I_2 O 0.802(3) -0.671(3) -0.213(3)
O2_2 O 0.802(3) -0.671(3) 0.213(3)
O2H_2 O 1.198(3) -0.329(3) -0.213(3)
O3D O 1.057(3) 0.391(3) -0.329(2)
O3I O 0.943(3) 0.391(3) -0.329(2)
O3M O 1.057(3) 0.391(3) 0.329(2)
O3L O 0.943(3) 0.609(3) 0.329(2)
O3A O 1.057(3) 0.609(3) 0.329(2)
O3E O 0.943(3) 0.609(3) -0.329(2)
O3H O 1.057(3) 0.609(3) -0.329(2)
O3A_2 O 1.057(3) -0.391(3) 0.329(2)
O3E_2 O 0.943(3) -0.391(3) -0.329(2)
O3H_2 O 1.057(3) -0.391(3) -0.329(2)
O3L_2 O 0.943(3) -0.391(3) 0.329(2)
O3M_2 O 1.057(3) -0.609(3) 0.329(2)
O3_2 O 0.943(3) -0.609(3) 0.329(2)
O3D_2 O 1.057(3) -0.609(3) -0.329(2)
O3I_2 O 0.943(3) -0.609(3) -0.329(2)
loop_
_geom_bond_atom_site_label_1
_geom_bond_atom_site_label_2
_geom_bond_site_symmetry_1
_geom_bond_site_symmetry_2
N1 C4 1_555 1_555
Zn1 O1 1_555 1_555
O1 C1 1_555 1_555
C1 C2 1_555 1_555
N2 Zn1 1_555 1_555
C2 C4 1_555 1_555
C3 N2 1_555 1_555
C4 C4M 1_555 1_555
O2 N1 1_555 1_555
O3 N1 1_555 1_555
N1D C4D 1_555 1_555
N1I C4I 1_555 1_555
N1M C4M 1_555 1_555
N1L C4L 1_555 1_555
N1A C4A 1_555 1_555
N1E C4E 1_555 1_555
N1H C4H 1_555 1_555
N1A_2 C4A_2 1_555 1_555
N1E_2 C4E_2 1_555 1_555
N1H_2 C4H_2 1_555 1_555
N1L_2 C4L_2 1_555 1_555
N1M_2 C4M_2 1_555 1_555
N1_2 C4_2 1_555 1_555
N1D_2 C4D_2 1_555 1_555
N1I_2 C4I_2 1_555 1_555
Zn1D O1D 1_555 1_555
Zn1_2 O1A 1_555 1_555
Zn1D_2 O1E 1_555 1_555
Zn1D_3 N2D 1_555 1_555
Zn1_3 O1_2 1_555 1_555
Zn1D_4 O1D_2 1_555 1_555
O1D C1 1_555 1_555
O1A C1A 1_555 1_555
O1E C1A 1_555 1_555
O1A_2 Zn1 1_555 1_555
O1E_2 Zn1D 1_555 1_555
O1_2 C1_2 1_555 1_555
O1D_2 C1_2 1_555 1_555
O1B Zn1 1_555 1_555
O1C Zn1 1_555 1_555
O1F Zn1D 1_555 1_555
O1G Zn1D 1_555 1_555
C1A C2A 1_555 1_555
C1A_2 O1A_2 1_555 1_555
C1_2 C2_2 1_555 1_555
N2D C3I 1_555 1_555
N2D_2 Zn1D 1_555 1_555
C2A C4L 1_555 1_555
C2A_2 C1A_2 1_555 1_555
C2_2 C4M_2 1_555 1_555
C3I C3 1_555 1_555
C3H N2D 1_555 1_555
C3A N2 1_555 1_555
C3B N2 1_555 1_555
C3K N2D 1_555 1_555
C3N N2 1_555 1_555
C3C N2 1_555 1_555
C3J N2D 1_555 1_555
C3O N2 1_555 1_555
C3L N2 1_555 1_555
C3E N2D 1_555 1_555
C3G N2D 1_555 1_555
C3M N2 1_555 1_555
C3D N2D 1_555 1_555
C3F N2D 1_555 1_555
C4D C2 1_555 1_555
C4I C2 1_555 1_555
C4M C2 1_555 1_555
C4L C4 1_555 1_555
C4A C4 1_555 1_555
C4E C2A 1_555 1_555
C4H C2A 1_555 1_555
C4A_2 C2A_2 1_555 1_555
C4E_2 C2A_2 1_555 1_555
C4H_2 C2A_2 1_555 1_555
C4L_2 C2A_2 1_555 1_555
C4M_2 C4A_2 1_555 1_555
C4_2 C2_2 1_555 1_555
C4D_2 C2_2 1_555 1_555
C4I_2 C2_2 1_555 1_555
O2D N1D 1_555 1_555
O2M N1M 1_555 1_555
O2L N1L 1_555 1_555
O2E N1E 1_555 1_555
O2H N1H 1_555 1_555
O2A N1A 1_555 1_555
O2I N1I 1_555 1_555
O2A_2 N1A_2 1_555 1_555
O2E_2 N1E_2 1_555 1_555
O2L_2 N1L_2 1_555 1_555
O2M_2 N1M_2 1_555 1_555
O2D_2 N1D_2 1_555 1_555
O2I_2 N1I_2 1_555 1_555
O2_2 N1_2 1_555 1_555
O2H_2 N1H_2 1_555 1_555
O3D N1D 1_555 1_555
O3I N1I 1_555 1_555
O3M O3 1_555 1_555
O3L N1L 1_555 1_555
O3A N1A 1_555 1_555
O3E N1E 1_555 1_555
O3H N1H 1_555 1_555
O3A_2 N1A_2 1_555 1_555
O3E_2 N1E_2 1_555 1_555
O3H_2 N1H_2 1_555 1_555
O3L_2 N1L_2 1_555 1_555
O3M_2 N1M_2 1_555 1_555
O3_2 N1_2 1_555 1_555
O3D_2 N1D_2 1_555 1_555
O3I_2 N1I_2 1_555 1_555
C3 C3O 1_555 1_555
C3 C3M 1_555 1_555
N1M O3M 1_555 1_555
O1E_2 C1A_2 1_555 1_555
C2A C4A 1_555 1_555
C3I C3D 1_555 1_555
C3I C3F 1_555 1_555
C3H C3A 1_555 1_555
C3H C3E 1_555 1_555
C3H C3G 1_555 1_555
C3A C3N 1_555 1_555
C3A C3L 1_555 1_555
C3B C3K 1_555 1_555
C3B C3N 1_555 1_555
C3B C3M 1_555 1_555
C3K C3G 1_555 1_555
C3K C3D 1_555 1_555
C3N C3G 1_555 1_555
C3C C3J 1_555 1_555
C3C C3O 1_555 1_555
C3C C3L 1_555 1_555
C3J C3E 1_555 1_555
C3J C3F 1_555 1_555
C3O C3F 1_555 1_555
C3L C3E 1_555 1_555
C3M C3D 1_555 1_555
C4D C4I 1_555 1_555
C4D C4E 1_555 1_555
C4D C4H 1_555 1_555
C4I C4E 1_555 1_555
C4I C4H 1_555 1_555
C4M C4L 1_555 1_555
C4M C4A 1_555 1_555
C4L C4A 1_555 1_555
C4E C4H 1_555 1_555
C4A_2 C4L_2 1_555 1_555
C4A_2 C4_2 1_555 1_555
C4E_2 C4H_2 1_555 1_555
C4E_2 C4D_2 1_555 1_555
C4E_2 C4I_2 1_555 1_555
C4H_2 C4D_2 1_555 1_555
C4H_2 C4I_2 1_555 1_555
C4L_2 C4M_2 1_555 1_555
C4L_2 C4_2 1_555 1_555
C4M_2 C4_2 1_555 1_555
C4D_2 C4I_2 1_555 1_555
O3D O3I 1_555 1_555
O3L O3A 1_555 1_555
O3E O3H 1_555 1_555
O3A_2 O3L_2 1_555 1_555
O3E_2 O3H_2 1_555 1_555
O3M_2 O3_2 1_555 1_555
O3D_2 O3I_2 1_555 1_555

#END
