
#######################################################################
#
#                 Cambridge Crystallographic Data Centre
#                                CCDC 
#
#######################################################################
#
# If this CIF has been generated from an entry in the Cambridge 
# Structural Database, then it will include bibliographic, chemical, 
# crystal, experimental, refinement or atomic coordinate data resulting 
# from the CCDC's data processing and validation procedures.
#
#######################################################################

data_HEDCIE
_chemical_formula_moiety         '(C72 H54 Cu4 N4 O22)n'
_chemical_name_systematic        
catena-(tetrakis(\m~4~-4-[4-(hydroxyacetyl)phenoxy]benzoato)-(\m~2~-4,4'-bipyridine)-bis(dimethylformamide)-tetra-copper)
_symmetry_cell_setting           monoclinic
_symmetry_space_group_name_H-M   'C 2/c'
_symmetry_Int_Tables_number      15
_space_group_name_Hall           '-C 2yc'
loop_
_symmetry_equiv_pos_site_id
_symmetry_equiv_pos_as_xyz
1 x,y,z
2 -x,y,1/2-z
3 1/2+x,1/2+y,z
4 1/2-x,1/2+y,1/2-z
5 -x,-y,-z
6 x,-y,1/2+z
7 1/2-x,1/2-y,-z
8 1/2+x,1/2-y,1/2+z
_cell_length_a                   33.025(7)
_cell_length_b                   15.919(3)
_cell_length_c                   20.831(5)
_cell_angle_alpha                90
_cell_angle_beta                 122.187(7)
_cell_angle_gamma                90
_cell_volume                     9268.3
_exptl_crystal_colour            blue
_exptl_crystal_description       prism
_cell_formula_units_Z            4
loop_
_atom_site_label
_atom_site_type_symbol
_atom_site_fract_x
_atom_site_fract_y
_atom_site_fract_z
_atom_site_U_iso_or_equiv
_atom_site_thermal_displace_type
Cu1 Cu 0.20285(4) 0.74100(7) 0.45849(6) 0.0127 Uani
Cu2 Cu -0.00945(5) 1.49712(7) 0.55475(7) 0.0165 Uani
O1 O 0.2081(2) 0.6453(4) 0.5265(4) 0.0177 Uani
O2 O 0.2888(2) 0.6640(4) 0.5977(4) 0.0122 Uani
O3 O 0.2076(2) 0.8259(4) 0.5321(4) 0.0146 Uani
O4 O 0.2883(2) 0.8456(4) 0.6037(4) 0.0170 Uani
N1 N 0.1249(3) 0.7513(5) 0.3898(5) 0.0180 Uani
O5 O 0.0383(3) 1.4059(4) 0.6020(4) 0.0232 Uani
O6 O 0.4570(3) 0.0806(5) 0.8929(4) 0.0281 Uani
O7 O 0.4401(3) 0.0847(5) 0.9855(4) 0.0319 Uani
C1 C 0.2497(3) 0.6236(6) 0.5778(5) 0.0133 Uani
C2 C 0.2452(4) 0.8638(6) 0.5841(6) 0.0158 Uani
O8 O 0.2134(3) 1.1470(5) 0.7207(4) 0.0303 Uani
C3 C 0.2371(4) 0.9351(8) 0.6230(6) 0.0291 Uani
O9 O 0.0525(3) 1.4090(5) 0.5075(5) 0.0340 Uani
O10 O 0.2694(3) 0.3168(5) 0.7353(5) 0.0328 Uani
O11 O -0.0366(3) 1.5049(5) 0.6315(5) 0.0274 Uani
C4 C 0.0608(4) 1.3827(8) 0.5728(7) 0.0283 Uani
C5 C 0.2667(4) 1.0513(7) 0.7121(7) 0.0277 Uani
H1 H 0.2926 1.0807 0.7507 0.0330 Uiso
C6 C 0.2212(4) 0.4167(8) 0.6435(7) 0.0322 Uani
H2 H 0.1946 0.3850 0.6327 0.0380 Uiso
N2 N -0.1029(4) 1.5285(8) 0.6389(6) 0.0409 Uani
C7 C 0.3907(4) 0.1639(7) 0.8710(6) 0.0268 Uani
C8 C 0.2752(4) 0.9810(7) 0.6804(6) 0.0217 Uani
H3 H 0.3064 0.9648 0.6978 0.0260 Uiso
C9 C 0.0255(4) 0.7588(7) 0.2784(7) 0.0265 Uani
C10 C 0.4319(4) 0.1057(6) 0.9172(6) 0.0169 Uani
C11 C 0.3079(4) 0.4342(7) 0.7135(7) 0.0269 Uani
H4 H 0.3383 0.4143 0.7490 0.0320 Uiso
C12 C 0.3823(4) 0.1955(7) 0.8005(7) 0.0260 Uani
H5 H 0.4027 0.1810 0.7842 0.0310 Uiso
C13 C 0.3022(4) 0.5144(6) 0.6750(6) 0.0192 Uani
H6 H 0.3286 0.5467 0.6855 0.0230 Uiso
C14 C 0.1163(4) 1.2760(8) 0.5687(7) 0.0340 Uani
H7 H 0.1028 1.2893 0.5178 0.0410 Uiso
C15 C 0.1752(4) 1.1987(8) 0.6822(6) 0.0299 Uani
C16 C 0.2210(4) 1.0780(7) 0.6877(6) 0.0266 Uani
C17 C 0.3111(4) 0.2714(7) 0.7795(7) 0.0292 Uani
C18 C 0.1538(4) 1.2168(7) 0.6031(6) 0.0293 Uani
H8 H 0.1644 1.1901 0.5750 0.0350 Uiso
C19 C 0.3584(4) 0.1865(6) 0.8932(7) 0.0224 Uani
H9 H 0.3641 0.1674 0.9394 0.0270 Uiso
C20 C 0.0990(4) 1.3152(7) 0.6096(6) 0.0171 Uani
C21 C 0.1905(4) 0.9587(7) 0.5993(6) 0.0239 Uani
H10 H 0.1650 0.9281 0.5611 0.0280 Uiso
C22 C 0.3188(4) 0.2362(6) 0.8481(7) 0.0222 Uani
H11 H 0.2971 0.2468 0.8625 0.0270 Uiso
C23 C 0.2547(3) 0.5407(6) 0.6209(6) 0.0140 Uani
C24 C 0.1580(5) 1.2374(7) 0.7218(7) 0.0332 Uani
H12 H 0.1712 1.2236 0.7725 0.0400 Uiso
C25 C 0.3424(4) 0.2495(7) 0.7554(7) 0.0282 Uani
H13 H 0.3370 0.2704 0.7098 0.0340 Uiso
C26 C 0.2684(4) 0.3887(7) 0.6970(6) 0.0248 Uani
C27 C 0.1204(4) 1.2987(7) 0.6873(7) 0.0297 Uani
H14 H 0.1105 1.3268 0.7157 0.0360 Uiso
C28 C 0.0559(4) 0.8251(8) 0.2924(8) 0.0406 Uani
H15 H 0.0433 0.8760 0.2679 0.0480 Uiso
C29 C 0.2160(5) 0.4964(7) 0.6064(8) 0.0303 Uani
H16 H 0.1856 0.5172 0.5721 0.0370 Uiso
C30 C 0.1811(4) 1.0267(8) 0.6311(7) 0.0324 Uani
H17 H 0.1499 1.0394 0.6167 0.0390 Uiso
C31 C 0.1041(4) 0.8179(8) 0.3414(8) 0.0413 Uani
H18 H 0.1237 0.8601 0.3419 0.0490 Uiso
C32 C 0.0964(4) 0.6901(9) 0.3843(9) 0.0498 Uani
H19 H 0.1093 0.6448 0.4174 0.0590 Uiso
C33 C -0.0783(4) 1.5290(8) 0.6035(7) 0.0376 Uani
H20 H -0.0942 1.5490 0.5540 0.0450 Uiso
C34 C 0.0460(4) 0.6913(9) 0.3286(9) 0.0553 Uani
H21 H 0.0268 0.6469 0.3259 0.0660 Uiso
C35 C -0.1546(5) 1.5544(10) 0.5975(9) 0.0521 Uani
H22 H -0.1642 1.5748 0.5480 0.0790 Uiso
H23 H -0.1739 1.5069 0.5927 0.0790 Uiso
H24 H -0.1586 1.5981 0.6254 0.0790 Uiso
C36 C -0.0788(6) 1.4952(14) 0.7186(9) 0.0813 Uani
H25 H -0.0461 1.4817 0.7366 0.1240 Uiso
H26 H -0.0798 1.5372 0.7509 0.1240 Uiso
H27 H -0.0952 1.4457 0.7192 0.1240 Uiso
Cu1F Cu 0.29715(4) 0.75900(7) 0.54151(6) 0.0127 Uani
Cu1A Cu -0.20285(4) 0.74100(7) 0.04151(6) 0.0127 Uani
Cu2F Cu 0.50945(5) 0.00288(7) 0.44525(7) 0.0165 Uani
Cu2C Cu 0.50945(5) -0.00288(7) 0.94525(7) 0.0165 Uani
Cu2G Cu 0.49055(5) 0.00288(7) 1.05475(7) 0.0165 Uani
Cu2D Cu 0.00945(5) 1.50288(7) 0.44525(7) 0.0165 Uani
Cu2E Cu -0.00945(5) 1.50288(7) 0.05475(7) 0.0165 Uani
Cu2A Cu 0.00945(5) 1.49712(7) -0.05475(7) 0.0165 Uani
Cu2B Cu 0.49055(5) -0.00288(7) 0.55475(7) 0.0165 Uani
O1F O 0.2919(2) 0.8547(4) 0.4735(4) 0.0177 Uani
O2F O 0.2112(2) 0.8360(4) 0.4023(4) 0.0122 Uani
O3F O 0.2924(2) 0.6741(4) 0.4679(4) 0.0146 Uani
O4F O 0.2117(2) 0.6544(4) 0.3963(4) 0.0170 Uani
N1A N -0.1249(3) 0.7513(5) 0.1102(5) 0.0180 Uani
N1F N 0.3751(3) 0.7487(5) 0.6102(5) 0.0180 Uani
O5F O 0.4617(3) 0.0941(4) 0.3980(4) 0.0232 Uani
O6F O 0.0430(3) 1.4194(5) 0.1071(4) 0.0281 Uani
O6C O 0.0430(3) 1.5806(5) 0.6071(4) 0.0281 Uani
O6E O 0.4570(3) -0.0806(5) 0.3929(4) 0.0281 Uani
O7F O 0.0599(3) 1.4153(5) 0.0145(4) 0.0319 Uani
O7G O -0.0599(3) 1.4153(5) 0.4855(4) 0.0319 Uani
O7A O 0.5599(3) 0.0847(5) 0.5145(4) 0.0319 Uani
C1F C 0.2503(3) 0.8764(6) 0.4222(5) 0.0133 Uani
C2F C 0.2548(4) 0.6362(6) 0.4159(6) 0.0158 Uani
O8F O 0.2866(3) 0.3530(5) 0.2793(4) 0.0303 Uani
C3F C 0.2629(4) 0.5649(8) 0.3770(6) 0.0291 Uani
O9F O 0.4475(3) 0.0910(5) 0.4925(5) 0.0340 Uani
O9D O -0.0525(3) 1.5910(5) 0.4925(5) 0.0340 Uani
O9B O 0.5525(3) -0.0910(5) 0.5075(5) 0.0340 Uani
O10F O 0.2306(3) 1.1832(5) 0.2647(5) 0.0328 Uani
O11F O 0.5366(3) -0.0049(5) 0.3685(5) 0.0274 Uani
C4F C 0.4392(4) 0.1173(8) 0.4272(7) 0.0283 Uani
C5F C 0.2333(4) 0.4487(7) 0.2879(7) 0.0277 Uani
H1F H 0.2074 0.4193 0.2493 0.0330 Uiso
C6F C 0.2788(4) 1.0833(8) 0.3565(7) 0.0322 Uani
H2F H 0.3054 1.1150 0.3673 0.0380 Uiso
N2F N 0.6029(4) -0.0285(8) 0.3611(6) 0.0409 Uani
C7F C 0.1093(4) 1.3361(7) 0.1290(6) 0.0268 Uani
C8F C 0.2248(4) 0.5190(7) 0.3196(6) 0.0217 Uani
H3F H 0.1936 0.5352 0.3022 0.0260 Uiso
C9A C -0.0255(4) 0.7588(7) 0.2216(7) 0.0265 Uani
C10F C 0.0681(4) 1.3943(6) 0.0828(6) 0.0169 Uani
C11F C 0.1921(4) 1.0658(7) 0.2865(7) 0.0269 Uani
H4F H 0.1617 1.0857 0.2510 0.0320 Uiso
C12F C 0.1177(4) 1.3045(7) 0.1995(7) 0.0260 Uani
H5F H 0.0973 1.3190 0.2158 0.0310 Uiso
C13F C 0.1978(4) 0.9856(6) 0.3250(6) 0.0192 Uani
H6F H 0.1714 0.9533 0.3145 0.0230 Uiso
C14F C 0.3837(4) 0.2240(8) 0.4313(7) 0.0340 Uani
H7F H 0.3972 0.2107 0.4822 0.0410 Uiso
C15F C 0.3248(4) 0.3013(8) 0.3178(6) 0.0299 Uani
C16F C 0.2790(4) 0.4220(7) 0.3123(6) 0.0266 Uani
C17F C 0.1889(4) 1.2286(7) 0.2205(7) 0.0292 Uani
C18F C 0.3462(4) 0.2832(7) 0.3969(6) 0.0293 Uani
H8F H 0.3356 0.3099 0.4250 0.0350 Uiso
C19F C 0.1416(4) 1.3135(6) 0.1068(7) 0.0224 Uani
H9F H 0.1359 1.3326 0.0606 0.0270 Uiso
C20F C 0.4010(4) 0.1848(7) 0.3904(6) 0.0171 Uani
C21F C 0.3095(4) 0.5413(7) 0.4007(6) 0.0239 Uani
H10F H 0.3350 0.5719 0.4389 0.0280 Uiso
C22F C 0.1812(4) 1.2638(6) 0.1519(7) 0.0222 Uani
H11F H 0.2029 1.2532 0.1375 0.0270 Uiso
C23F C 0.2453(3) 0.9593(6) 0.3791(6) 0.0140 Uani
C24F C 0.3420(5) 0.2626(7) 0.2782(7) 0.0332 Uani
H12F H 0.3288 0.2764 0.2275 0.0400 Uiso
C25F C 0.1576(4) 1.2505(7) 0.2446(7) 0.0282 Uani
H13F H 0.1630 1.2296 0.2902 0.0340 Uiso
C26F C 0.2316(4) 1.1113(7) 0.3030(6) 0.0248 Uani
C27F C 0.3796(4) 0.2013(7) 0.3127(7) 0.0297 Uani
H14F H 0.3895 0.1732 0.2843 0.0360 Uiso
C28A C -0.0559(4) 0.8251(8) 0.2076(8) 0.0406 Uani
H15A H -0.0433 0.8760 0.2321 0.0480 Uiso
C29F C 0.2840(5) 1.0036(7) 0.3936(8) 0.0303 Uani
H16F H 0.3144 0.9828 0.4279 0.0370 Uiso
C30F C 0.3189(4) 0.4733(8) 0.3689(7) 0.0324 Uani
H17F H 0.3501 0.4606 0.3833 0.0390 Uiso
C31A C -0.1041(4) 0.8179(8) 0.1586(8) 0.0413 Uani
H18A H -0.1237 0.8601 0.1581 0.0490 Uiso
C32A C -0.0964(4) 0.6901(9) 0.1157(9) 0.0498 Uani
H19A H -0.1093 0.6448 0.0826 0.0590 Uiso
C33F C 0.5783(4) -0.0290(8) 0.3965(7) 0.0376 Uani
H20F H 0.5942 -0.0490 0.4460 0.0450 Uiso
C34A C -0.0460(4) 0.6913(9) 0.1714(9) 0.0553 Uani
H21A H -0.0268 0.6469 0.1741 0.0660 Uiso
C35F C 0.6546(5) -0.0544(10) 0.4025(9) 0.0521 Uani
H22F H 0.6642 -0.0748 0.4520 0.0790 Uiso
H23F H 0.6739 -0.0069 0.4073 0.0790 Uiso
H24F H 0.6586 -0.0981 0.3746 0.0790 Uiso
C36F C 0.5788(6) 0.0048(14) 0.2814(9) 0.0813 Uani
H25F H 0.5461 0.0183 0.2634 0.1240 Uiso
H26F H 0.5798 -0.0372 0.2491 0.1240 Uiso
H27F H 0.5952 0.0543 0.2808 0.1240 Uiso
loop_
_atom_site_aniso_label
_atom_site_aniso_U_11
_atom_site_aniso_U_22
_atom_site_aniso_U_33
_atom_site_aniso_U_23
_atom_site_aniso_U_13
_atom_site_aniso_U_12
Cu1 0.0136(8) 0.0111(8) 0.0088(7) 0.0006(5) 0.0028(6) 0.0015(5)
Cu2 0.0217 0.0116 0.0164 0.0031 0.0102 0.001
O1 0.013 0.02 0.014 0.011 0.003 0.003
O2 0.015 0.009 0.008 0.002 0.003 -0.001
O3 0.029(4) 0.003(3) 0.013(4) -0.003(3) 0.012(4) 0.002(3)
O4 0.024(4) 0.011(4) 0.010(4) 0.005(3) 0.005(3) 0.005(3)
N1 0.017(5) 0.002(4) 0.017(5) -0.003(4) -0.003(4) -0.006(4)
O5 0.031(4) 0.008(4) 0.028(4) 0.001(3) 0.014(4) 0.008(3)
O6 0.028 0.026 0.033 0.012 0.018 0.013
O7 0.029 0.033 0.019 -0.005 0.003 0.012
C1 0.014 0.011 0.01 0.009 0.003 0.01
C2 0.020(6) 0.009(5) 0.016(6) 0.010(5) 0.008(5) 0.011(5)
O8 0.040(5) 0.019(4) 0.019(4) -0.002(4) 0.007(4) 0.009(4)
C3 0.027(7) 0.029(7) 0.019(6) -0.011(5) 0.004(5) -0.006(5)
O9 0.032(5) 0.030(5) 0.028(5) 0.015(4) 0.008(4) 0.016(4)
O10 0.03 0.024 0.051 0.019 0.026 0.004
O11 0.025 0.034 0.018 0.003 0.008 0.003
C4 0.009(5) 0.032(7) 0.032(7) 0.012(6) 0.003(5) -0.004(5)
C5 0.027(6) 0.018(6) 0.025(6) 0.007(5) 0.005(5) 0.008(5)
C6 0.022 0.038 0.038 0.009 0.017 0.004
N2 0.03 0.052 0.042 -0.019 0.02 -0.016
C7 0.034 0.026 0.021 0.003 0.015 0.008
C8 0.020(6) 0.014(6) 0.022(6) -0.005(5) 0.005(5) 0.005(5)
C9 0.023(6) 0.018(6) 0.021(6) -0.004(5) 0.000(5) 0.001(5)
C10 0.014 0.011 0.022 -0.001 0.007 -0.002
C11 0.031 0.019 0.027 0.004 0.013 0.002
C12 0.025 0.027 0.035 0.011 0.022 0.01
C13 0.022 0.013 0.026 0.007 0.015 0.009
C14 0.025(6) 0.046(8) 0.013(6) 0.022(6) -0.002(5) 0.009(6)
C15 0.028(6) 0.030(7) 0.018(6) 0.009(6) 0.003(5) 0.012(6)
C16 0.033(7) 0.019(6) 0.018(6) -0.004(5) 0.007(6) 0.000(5)
C17 0.036 0.011 0.022 0.016 0.003 0.014
C18 0.037(7) 0.024(7) 0.014(6) -0.008(5) 0.005(6) 0.006(6)
C19 0.036 0.005 0.033 -0.006 0.023 0
C20 0.016(5) 0.017(6) 0.015(6) 0.005(5) 0.006(5) 0.001(4)
C21 0.024(6) 0.018(6) 0.022(6) -0.007(5) 0.007(5) 0.012(5)
C22 0.026 0.01 0.038 0.017 0.022 0.007
C23 0.015 0.009 0.013 0.013 0.004 0.004
C24 0.047(8) 0.020(7) 0.025(7) 0.007(5) 0.014(6) 0.017(6)
C25 0.03 0.024 0.024 0.026 0.01 0.019
C26 0.034 0.012 0.015 0.005 0.004 0.01
C27 0.039(7) 0.015(6) 0.028(7) 0.011(5) 0.013(6) 0.009(5)
C28 0.027(7) 0.027(7) 0.060(9) 0.011(7) 0.018(7) 0.005(6)
C29 0.036 0.017 0.035 0.009 0.017 0.008
C30 0.023(6) 0.034(7) 0.035(7) -0.009(6) 0.012(6) 0.001(6)
C31 0.021(6) 0.036(8) 0.043(8) 0.015(7) 0.001(6) -0.002(6)
C32 0.013(6) 0.045(9) 0.066(10) 0.013(8) 0.004(7) 0.005(6)
C33 0.029 0.039 0.026 0.009 0.002 -0.012
C34 0.019(7) 0.039(9) 0.056(10) 0.029(8) -0.015(7) -0.007(6)
C35 0.029 0.067 0.051 0.002 0.015 0.019
C36 0.036 0.18 0.03 0.008 0.019 0.024
Cu1F 0.0136 0.0111 0.0088 0.0006 0.0028 0.0015
Cu1A 0.0136 0.0111 0.0088 -0.0006 0.0028 -0.0015
Cu2F 0.0217 0.0116 0.0164 0.0031 0.0102 0.001
Cu2C 0.0217 0.0116 0.0164 -0.0031 0.0102 -0.001
Cu2G 0.0217 0.0116 0.0164 -0.0031 0.0102 -0.001
Cu2D 0.0217(8) 0.0116(8) 0.0164(8) 0.0031(5) 0.0102(6) 0.0010(5)
Cu2E 0.0217 0.0116 0.0164 -0.0031 0.0102 -0.001
Cu2A 0.0217 0.0116 0.0164 -0.0031 0.0102 -0.001
Cu2B 0.0217 0.0116 0.0164 0.0031 0.0102 0.001
O1F 0.013(4) 0.020(4) 0.014(4) 0.011(3) 0.003(3) 0.003(3)
O2F 0.015(4) 0.009(4) 0.008(3) 0.002(3) 0.003(3) -0.001(3)
O3F 0.029 0.003 0.013 -0.003 0.012 0.002
O4F 0.024 0.011 0.01 0.005 0.005 0.005
N1A 0.017 0.002 0.017 0.003 -0.003 0.006
N1F 0.017 0.002 0.017 -0.003 -0.003 -0.006
O5F 0.031 0.008 0.028 0.001 0.014 0.008
O6F 0.028(4) 0.026(5) 0.033(5) 0.012(4) 0.018(4) 0.013(4)
O6C 0.028 0.026 0.033 -0.012 0.018 -0.013
O6E 0.028 0.026 0.033 -0.012 0.018 -0.013
O7F 0.029(4) 0.033(5) 0.019(4) -0.005(4) 0.003(4) 0.012(4)
O7G 0.029 0.033 0.019 0.005 0.003 -0.012
O7A 0.029 0.033 0.019 0.005 0.003 -0.012
C1F 0.014(6) 0.011(5) 0.010(5) 0.009(4) 0.003(5) 0.010(4)
C2F 0.02 0.009 0.016 0.01 0.008 0.011
O8F 0.04 0.019 0.019 -0.002 0.007 0.009
C3F 0.027 0.029 0.019 -0.011 0.004 -0.006
O9F 0.032 0.03 0.028 0.015 0.008 0.016
O9D 0.032 0.03 0.028 0.015 0.008 0.016
O9B 0.032 0.03 0.028 0.015 0.008 0.016
O10F 0.030(5) 0.024(5) 0.051(6) 0.019(4) 0.026(4) 0.004(4)
O11F 0.025 0.034 0.018 0.003 0.008 0.003
C4F 0.009 0.032 0.032 0.012 0.003 -0.004
C5F 0.027 0.018 0.025 0.007 0.005 0.008
C6F 0.022(6) 0.038(8) 0.038(7) 0.009(6) 0.017(6) 0.004(5)
N2F 0.03 0.052 0.042 -0.019 0.02 -0.016
C7F 0.034(7) 0.026(7) 0.021(6) 0.003(5) 0.015(6) 0.008(5)
C8F 0.02 0.014 0.022 -0.005 0.005 0.005
C9A 0.023 0.018 0.021 0.004 0 -0.001
C10F 0.014(5) 0.011(5) 0.022(6) -0.001(5) 0.007(5) -0.002(4)
C11F 0.031(7) 0.019(6) 0.027(7) 0.004(5) 0.013(6) 0.002(5)
C12F 0.025(6) 0.027(7) 0.035(7) 0.011(6) 0.022(6) 0.010(5)
C13F 0.022(6) 0.013(6) 0.026(6) 0.007(5) 0.015(5) 0.009(4)
C14F 0.025 0.046 0.013 0.022 -0.002 0.009
C15F 0.028 0.03 0.018 0.009 0.003 0.012
C16F 0.033 0.019 0.018 -0.004 0.007 0
C17F 0.036(7) 0.011(6) 0.022(6) 0.016(5) 0.003(6) 0.014(5)
C18F 0.037 0.024 0.014 -0.008 0.005 0.006
C19F 0.036(7) 0.005(5) 0.033(7) -0.006(5) 0.023(6) 0.000(5)
C20F 0.016 0.017 0.015 0.005 0.006 0.001
C21F 0.024 0.018 0.022 -0.007 0.007 0.012
C22F 0.026(6) 0.010(6) 0.038(7) 0.017(5) 0.022(6) 0.007(5)
C23F 0.015(5) 0.009(5) 0.013(5) 0.013(4) 0.004(5) 0.004(4)
C24F 0.047 0.02 0.025 0.007 0.014 0.017
C25F 0.030(7) 0.024(7) 0.024(7) 0.026(5) 0.010(6) 0.019(5)
C26F 0.034(7) 0.012(6) 0.015(6) 0.005(5) 0.004(5) 0.010(5)
C27F 0.039 0.015 0.028 0.011 0.013 0.009
C28A 0.027 0.027 0.06 -0.011 0.018 -0.005
C29F 0.036(7) 0.017(7) 0.035(8) 0.009(5) 0.017(7) 0.008(5)
C30F 0.023 0.034 0.035 -0.009 0.012 0.001
C31A 0.021 0.036 0.043 -0.015 0.001 0.002
C32A 0.013 0.045 0.066 -0.013 0.004 -0.005
C33F 0.029 0.039 0.026 0.009 0.002 -0.012
C34A 0.019 0.039 0.056 -0.029 -0.015 0.007
C35F 0.029 0.067 0.051 0.002 0.015 0.019
C36F 0.036 0.18 0.03 0.008 0.019 0.024
loop_
_geom_bond_atom_site_label_1
_geom_bond_atom_site_label_2
_geom_bond_site_symmetry_1
_geom_bond_site_symmetry_2
Cu1 O1 1_555 1_555
Cu2 O5 1_555 1_555
O1 C1 1_555 1_555
O2 C1 1_555 1_555
O3 Cu1 1_555 1_555
O4 C2 1_555 1_555
N1 Cu1 1_555 1_555
O5 C4 1_555 1_555
O6 C10 1_555 1_555
O7 C10 1_555 1_555
C1 C23 1_555 1_555
C2 O3 1_555 1_555
O8 C15 1_555 1_555
C3 C2 1_555 1_555
O9 C4 1_555 1_555
O10 C17 1_555 1_555
O11 Cu2 1_555 1_555
C4 C20 1_555 1_555
C5 H1 1_555 1_555
C6 H2 1_555 1_555
N2 C33 1_555 1_555
C7 C10 1_555 1_555
C8 C3 1_555 1_555
H3 C8 1_555 1_555
C9 C28 1_555 1_555
C11 H4 1_555 1_555
C12 C7 1_555 1_555
H5 C12 1_555 1_555
C13 C11 1_555 1_555
H6 C13 1_555 1_555
C14 H7 1_555 1_555
C15 C18 1_555 1_555
C16 O8 1_555 1_555
C17 C22 1_555 1_555
C18 C14 1_555 1_555
H8 C18 1_555 1_555
C19 C7 1_555 1_555
H9 C19 1_555 1_555
C20 C14 1_555 1_555
C21 C3 1_555 1_555
H10 C21 1_555 1_555
C22 C19 1_555 1_555
H11 C22 1_555 1_555
C23 C13 1_555 1_555
C24 C15 1_555 1_555
H12 C24 1_555 1_555
C25 C12 1_555 1_555
H13 C25 1_555 1_555
C26 O10 1_555 1_555
C27 C20 1_555 1_555
H14 C27 1_555 1_555
C28 H15 1_555 1_555
C29 C6 1_555 1_555
H16 C29 1_555 1_555
C30 C16 1_555 1_555
H17 C30 1_555 1_555
C31 N1 1_555 1_555
H18 C31 1_555 1_555
C32 N1 1_555 1_555
H19 C32 1_555 1_555
C33 O11 1_555 1_555
H20 C33 1_555 1_555
C34 C9 1_555 1_555
H21 C34 1_555 1_555
C35 N2 1_555 1_555
H22 C35 1_555 1_555
H23 C35 1_555 1_555
H24 C35 1_555 1_555
C36 N2 1_555 1_555
H25 C36 1_555 1_555
H26 C36 1_555 1_555
H27 C36 1_555 1_555
Cu1F O2 1_555 1_555
Cu1A N1A 1_555 1_555
Cu2F O5F 1_555 1_555
Cu2C O6 1_555 1_555
Cu2G O7 1_555 1_555
Cu2D O9 1_555 1_555
Cu2E O6F 1_555 1_555
Cu2A O7F 1_555 1_555
Cu2B O9F 1_555 1_555
O1F Cu1F 1_555 1_555
O2F Cu1 1_555 1_555
O3F Cu1F 1_555 1_555
O4F Cu1 1_555 1_555
N1A C31A 1_555 1_555
N1F Cu1F 1_555 1_555
O5F C4F 1_555 1_555
O6F C10F 1_555 1_555
O6C Cu2 1_555 1_555
O6E Cu2F 1_555 1_555
O7F C10F 1_555 1_555
O7G Cu2 1_555 1_555
O7A Cu2F 1_555 1_555
C1F O1F 1_555 1_555
C2F O3F 1_555 1_555
O8F C15F 1_555 1_555
C3F C2F 1_555 1_555
O9F C4F 1_555 1_555
O9D Cu2 1_555 1_555
O9B Cu2F 1_555 1_555
O10F C17F 1_555 1_555
O11F Cu2F 1_555 1_555
C4F C20F 1_555 1_555
C5F H1F 1_555 1_555
C6F H2F 1_555 1_555
N2F C33F 1_555 1_555
C7F C10F 1_555 1_555
C8F C3F 1_555 1_555
H3F C8F 1_555 1_555
C9A C9 1_555 1_555
C11F H4F 1_555 1_555
C12F C7F 1_555 1_555
H5F C12F 1_555 1_555
C13F C11F 1_555 1_555
H6F C13F 1_555 1_555
C14F H7F 1_555 1_555
C15F C18F 1_555 1_555
C16F O8F 1_555 1_555
C17F C22F 1_555 1_555
C18F C14F 1_555 1_555
H8F C18F 1_555 1_555
C19F C7F 1_555 1_555
H9F C19F 1_555 1_555
C20F C14F 1_555 1_555
C21F C3F 1_555 1_555
H10F C21F 1_555 1_555
C22F C19F 1_555 1_555
H11F C22F 1_555 1_555
C23F C1F 1_555 1_555
C24F C15F 1_555 1_555
H12F C24F 1_555 1_555
C25F C12F 1_555 1_555
H13F C25F 1_555 1_555
C26F O10F 1_555 1_555
C27F C20F 1_555 1_555
H14F C27F 1_555 1_555
C28A C9A 1_555 1_555
H15A C28A 1_555 1_555
C29F C6F 1_555 1_555
H16F C29F 1_555 1_555
C30F C16F 1_555 1_555
H17F C30F 1_555 1_555
C31A C28A 1_555 1_555
H18A C31A 1_555 1_555
C32A N1A 1_555 1_555
H19A C32A 1_555 1_555
C33F O11F 1_555 1_555
H20F C33F 1_555 1_555
C34A C9A 1_555 1_555
H21A C34A 1_555 1_555
C35F N2F 1_555 1_555
H22F C35F 1_555 1_555
H23F C35F 1_555 1_555
H24F C35F 1_555 1_555
C36F N2F 1_555 1_555
H25F C36F 1_555 1_555
H26F C36F 1_555 1_555
H27F C36F 1_555 1_555
O4 Cu1F 1_555 1_555
C5 C8 1_555 1_555
C5 C16 1_555 1_555
C6 C26 1_555 1_555
C11 C26 1_555 1_555
C17 C25 1_555 1_555
C21 C30 1_555 1_555
C23 C29 1_555 1_555
C24 C27 1_555 1_555
C28 C31 1_555 1_555
C32 C34 1_555 1_555
O2F C1F 1_555 1_555
O4F C2F 1_555 1_555
C5F C8F 1_555 1_555
C5F C16F 1_555 1_555
C6F C26F 1_555 1_555
C11F C26F 1_555 1_555
C13F C23F 1_555 1_555
C17F C25F 1_555 1_555
C21F C30F 1_555 1_555
C23F C29F 1_555 1_555
C24F C27F 1_555 1_555
C32A C34A 1_555 1_555

#END
