
#######################################################################
#
#                 Cambridge Crystallographic Data Centre
#                                CCDC 
#
#######################################################################
#
# If this CIF has been generated from an entry in the Cambridge 
# Structural Database, then it will include bibliographic, chemical, 
# crystal, experimental, refinement or atomic coordinate data resulting 
# from the CCDC's data processing and validation procedures.
#
#######################################################################

data_HEDCAW
_chemical_formula_moiety         '(C68 H60 N4 O24 Zn4)n'
_chemical_name_systematic        
catena-(tetrakis((\m~4~-4,4'-Oxydibenzoato)-(N,N-dimethylformamide))-tetra-zinc)
_symmetry_cell_setting           monoclinic
_symmetry_space_group_name_H-M   'C 2/c'
_symmetry_Int_Tables_number      15
_space_group_name_Hall           '-C 2yc'
loop_
_symmetry_equiv_pos_site_id
_symmetry_equiv_pos_as_xyz
1 x,y,z
2 -x,y,1/2-z
3 1/2+x,1/2+y,z
4 1/2-x,1/2+y,1/2-z
5 -x,-y,-z
6 x,-y,1/2+z
7 1/2-x,1/2-y,-z
8 1/2+x,1/2-y,1/2+z
_cell_length_a                   27.3020(13)
_cell_length_b                   15.9448(6)
_cell_length_c                   21.0207(12)
_cell_angle_alpha                90
_cell_angle_beta                 95.461(4)
_cell_angle_gamma                90
_cell_volume                     9109.3
_exptl_crystal_colour            colorless
_exptl_crystal_description       prism
_cell_formula_units_Z            4
loop_
_atom_site_label
_atom_site_type_symbol
_atom_site_fract_x
_atom_site_fract_y
_atom_site_fract_z
Zn1 Zn 0.30347(4) 0.73880(6) 0.00741(6)
Zn2 Zn 0.49466(4) 1.50316(6) -0.31916(5)
O1 O 0.2966(3) 0.8331(3) -0.0601(3)
O2 O 0.2921(3) 0.6496(4) -0.0620(3)
O3 O 0.2175(2) 0.8518(4) -0.0685(3)
O4 O 0.2123(3) 0.6691(3) -0.0695(3)
O5 O 0.2800(3) 1.1625(4) -0.2274(4)
C1 C 0.3190(3) 1.2131(5) -0.2284(5)
O6 O 0.2247(2) 0.3451(4) -0.2383(3)
O7 O 0.0523(2) 0.0834(3) -0.3081(3)
C2 C 0.1079(3) 0.1724(5) -0.2492(5)
O8 O 0.0486(2) 0.0942(3) -0.2006(4)
O9 O 0.4593(2) 1.4082(3) -0.1816(3)
O10 O 0.3756(3) 0.7320(5) 0.0311(4)
C3 C 0.2771(3) 0.4413(6) -0.1782(5)
H1 H 0.3048 0.4107 -0.1863
C4 C 0.3942(3) 1.3269(5) -0.2306(5)
C5 C 0.3258(3) 1.2516(5) -0.2846(4)
H2 H 0.3049 1.2401 -0.3211
O11 O 0.4425(2) 1.4213(4) -0.2864(4)
C6 C 0.1631(4) 0.2715(5) -0.1894(5)
H3 H 0.1746 0.2958 -0.1506
C7 C 0.3081(4) 0.9706(5) -0.1312(5)
H4 H 0.3347 0.9385 -0.1147
C8 C 0.2792(4) 0.5169(5) -0.1431(5)
H5 H 0.3104 0.5383 -0.1311
C9 C 0.1344(3) 0.1944(5) -0.3017(5)
H6 H 0.1244 0.1693 -0.3407
N1 N 0.4006(3) 1.5217(5) -0.4776(4)
C10 C 0.1962(4) 0.5321(6) -0.1520(5)
H7 H 0.1688 0.5638 -0.1443
C11 C 0.3490(4) 1.2330(6) -0.1697(5)
H8 H 0.3444 1.2076 -0.1309
C12 C 0.2307(4) 1.0628(5) -0.1788(5)
H9 H 0.2036 1.0946 -0.1943
C13 C 0.3847(3) 1.2920(5) -0.1756(5)
H10 H 0.4036 1.3088 -0.1387
C14 C 0.1247(4) 0.2156(6) -0.1909(5)
H11 H 0.1094 0.2056 -0.1539
O12 O 0.4734(3) 1.5045(4) -0.4184(3)
C15 C 0.2627(3) 0.9450(6) -0.1208(4)
C16 C 0.3647(4) 1.3089(5) -0.2873(5)
H12 H 0.3708 1.3342 -0.3256
C17 C 0.1850(4) 0.2927(5) -0.2432(4)
C18 C 0.2770(3) 1.0905(5) -0.1882(4)
C19 C 0.2422(3) 0.5598(6) -0.1257(4)
C20 C 0.0680(3) 0.1137(5) -0.2578(6)
C21 C 0.1735(5) 0.2496(5) -0.3005(5)
H13 H 0.1912 0.2575 -0.3357
C22 C 0.2275(4) 0.4164(5) -0.2004(5)
C23 C 0.2469(4) 0.6347(5) -0.0830(4)
C24 C 0.2236(4) 0.9913(6) -0.1479(5)
H14 H 0.1917 0.9724 -0.1448
C25 C 0.1887(4) 0.4605(6) -0.1889(5)
H15 H 0.1573 0.4441 -0.2049
C26 C 0.3172(3) 1.0409(7) -0.1645(6)
H16 H 0.3492 1.0559 -0.1715
C27 C 0.2562(3) 0.8706(5) -0.0769(5)
C28 C 0.4330(3) 1.3903(5) -0.2287(4)
C29 C 0.4266(5) 1.5151(6) -0.4230(5)
C30 C 0.3491(6) 1.5373(11) -0.4900(9)
H17 H 0.3353 1.5475 -0.4505
H18 H 0.3335 1.4893 -0.5108
H19 H 0.3440 1.5854 -0.5172
C31 C 0.4221(7) 1.5045(9) -0.5379(8)
H20 H 0.4564 1.4913 -0.5289
H21 H 0.4186 1.5532 -0.5648
H22 H 0.4053 1.4580 -0.5591
N2 N 0.4589(7) 0.7118(11) 0.0045(10)
C32 C 0.4697(9) 0.7177(13) 0.0755(10)
H23 H 0.5035 0.7037 0.0872
H24 H 0.4489 0.6794 0.0957
H25 H 0.4635 0.7739 0.0891
C33 C 0.3984(8) 0.7309(11) -0.0046(11)
H26 H 0.3844 0.7416 -0.0458
C34 C 0.4757(17) 0.719(2) -0.054(2)
H27 H 0.5102 0.7069 -0.0506
H28 H 0.4704 0.7758 -0.0689
H29 H 0.4583 0.6811 -0.0830
Zn1A Zn 0.69653(4) 0.73880(6) -0.50741(6)
Zn1F Zn 0.19653(4) 0.76120(6) -0.00741(6)
Zn1G Zn 0.80347(4) 0.76120(6) -0.49259(6)
Zn2A Zn 0.50534(4) 1.50316(6) -0.18084(5)
Zn2B Zn -0.00534(4) 0.00316(6) -0.31916(5)
Zn2B_2 Zn 0.99466(4) 0.00316(6) -0.31916(5)
Zn2C Zn 0.00534(4) 0.00316(6) -0.18084(5)
Zn2C_2 Zn 1.00534(4) 0.00316(6) -0.18084(5)
O1A O 0.7034(3) 0.8331(3) -0.4399(3)
O2A O 0.7079(3) 0.6496(4) -0.4380(3)
O3A O 0.7825(2) 0.8518(4) -0.4315(3)
O3F O 0.2825(2) 0.6482(4) 0.0685(3)
O3G O 0.7175(2) 0.6482(4) -0.5685(3)
O4A O 0.7877(3) 0.6691(3) -0.4305(3)
O4F O 0.2877(3) 0.8309(3) 0.0695(3)
O4G O 0.7123(3) 0.8309(3) -0.5695(3)
O5A O 0.7200(3) 1.1625(4) -0.2726(4)
C1A C 0.6810(3) 1.2131(5) -0.2716(5)
O6A O 0.7753(2) 0.3451(4) -0.2617(3)
O7A O 0.9477(2) 0.0834(3) -0.1919(3)
O7B O 0.5523(2) 1.5834(3) -0.3081(3)
O7C O 0.4477(2) 1.5834(3) -0.1919(3)
C2A C 0.8921(3) 0.1724(5) -0.2508(5)
O8A O 0.9514(2) 0.0942(3) -0.2994(4)
O8B O 0.5486(2) 1.5942(3) -0.2006(4)
O8C O 0.4514(2) 1.5942(3) -0.2994(4)
O9A O 0.5407(2) 1.4082(3) -0.3184(3)
O10A O 0.6244(3) 0.7320(5) -0.5311(4)
C3A C 0.7229(3) 0.4413(6) -0.3218(5)
H1A H 0.6952 0.4107 -0.3137
C4A C 0.6058(3) 1.3269(5) -0.2694(5)
C5A C 0.6742(3) 1.2516(5) -0.2154(4)
H2A H 0.6951 1.2401 -0.1789
O11A O 0.5575(2) 1.4213(4) -0.2136(4)
C6A C 0.8369(4) 0.2715(5) -0.3106(5)
H3A H 0.8254 0.2958 -0.3494
C7A C 0.6919(4) 0.9706(5) -0.3688(5)
H4A H 0.6653 0.9385 -0.3853
C8A C 0.7208(4) 0.5169(5) -0.3569(5)
H5A H 0.6896 0.5383 -0.3689
C9A C 0.8656(3) 0.1944(5) -0.1983(5)
H6A H 0.8756 0.1693 -0.1593
N1A N 0.5994(3) 1.5217(5) -0.0224(4)
C10A C 0.8038(4) 0.5321(6) -0.3480(5)
H7A H 0.8312 0.5638 -0.3557
C11A C 0.6510(4) 1.2330(6) -0.3303(5)
H8A H 0.6556 1.2076 -0.3691
C12A C 0.7693(4) 1.0628(5) -0.3212(5)
H9A H 0.7964 1.0946 -0.3057
C13A C 0.6153(3) 1.2920(5) -0.3244(5)
H10A H 0.5964 1.3088 -0.3613
C14A C 0.8753(4) 0.2156(6) -0.3091(5)
H11A H 0.8906 0.2056 -0.3461
O12A O 0.5266(3) 1.5045(4) -0.0816(3)
C15A C 0.7373(3) 0.9450(6) -0.3792(4)
C16A C 0.6353(4) 1.3089(5) -0.2127(5)
H12A H 0.6292 1.3342 -0.1744
C17A C 0.8150(4) 0.2927(5) -0.2568(4)
C18A C 0.7230(3) 1.0905(5) -0.3118(4)
C19A C 0.7578(3) 0.5598(6) -0.3743(4)
C20A C 0.9320(3) 0.1137(5) -0.2422(6)
C21A C 0.8265(5) 0.2496(5) -0.1995(5)
H13A H 0.8088 0.2575 -0.1643
C22A C 0.7725(4) 0.4164(5) -0.2996(5)
C23A C 0.7531(4) 0.6347(5) -0.4170(4)
C24A C 0.7764(4) 0.9913(6) -0.3521(5)
H14A H 0.8083 0.9724 -0.3552
C25A C 0.8113(4) 0.4605(6) -0.3111(5)
H15A H 0.8427 0.4441 -0.2951
C26A C 0.6828(3) 1.0409(7) -0.3355(6)
H16A H 0.6508 1.0559 -0.3285
C27A C 0.7438(3) 0.8706(5) -0.4231(5)
C28A C 0.5670(3) 1.3903(5) -0.2713(4)
C29A C 0.5734(5) 1.5151(6) -0.0770(5)
C30A C 0.6509(6) 1.5373(11) -0.0100(9)
H17A H 0.6647 1.5475 -0.0495
H18A H 0.6665 1.4893 0.0108
H19A H 0.6560 1.5854 0.0172
C31A C 0.5779(7) 1.5045(9) 0.0379(8)
H20A H 0.5436 1.4913 0.0289
H21A H 0.5814 1.5532 0.0648
H22A H 0.5947 1.4580 0.0591
N2A N 0.5411(7) 0.7118(11) -0.5045(10)
C32A C 0.5303(9) 0.7177(13) -0.5755(10)
H23A H 0.4965 0.7037 -0.5872
H24A H 0.5511 0.6794 -0.5957
H25A H 0.5365 0.7739 -0.5891
C33A C 0.6016(8) 0.7309(11) -0.4954(11)
H26A H 0.6156 0.7416 -0.4542
C34A C 0.5243(17) 0.719(2) -0.446(2)
H27A H 0.4898 0.7069 -0.4494
H28A H 0.5296 0.7758 -0.4311
H29A H 0.5417 0.6811 -0.4170
loop_
_geom_bond_atom_site_label_1
_geom_bond_atom_site_label_2
_geom_bond_site_symmetry_1
_geom_bond_site_symmetry_2
Zn1 O1 1_555 1_555
Zn2 O11 1_555 1_555
O1 C27 1_555 1_555
O2 Zn1 1_555 1_555
O3 C27 1_555 1_555
O4 C23 1_555 1_555
O5 C1 1_555 1_555
C1 C5 1_555 1_555
O6 C17 1_555 1_555
O7 C20 1_555 1_555
C2 C9 1_555 1_555
O8 C20 1_555 1_555
O9 C28 1_555 1_555
O10 Zn1 1_555 1_555
C3 H1 1_555 1_555
C4 C13 1_555 1_555
C5 H2 1_555 1_555
O11 C28 1_555 1_555
C6 H3 1_555 1_555
C7 H4 1_555 1_555
C8 C3 1_555 1_555
H5 C8 1_555 1_555
C9 H6 1_555 1_555
N1 C29 1_555 1_555
C10 H7 1_555 1_555
C11 C1 1_555 1_555
H8 C11 1_555 1_555
C12 H9 1_555 1_555
C13 C11 1_555 1_555
H10 C13 1_555 1_555
C14 C2 1_555 1_555
H11 C14 1_555 1_555
O12 Zn2 1_555 1_555
C15 C7 1_555 1_555
C16 C4 1_555 1_555
H12 C16 1_555 1_555
C17 C6 1_555 1_555
C18 O5 1_555 1_555
C19 C8 1_555 1_555
C20 C2 1_555 1_555
C21 C9 1_555 1_555
H13 C21 1_555 1_555
C22 O6 1_555 1_555
C23 O2 1_555 1_555
C24 C12 1_555 1_555
H14 C24 1_555 1_555
C25 C10 1_555 1_555
H15 C25 1_555 1_555
C26 C7 1_555 1_555
H16 C26 1_555 1_555
C27 C15 1_555 1_555
C28 C4 1_555 1_555
C29 O12 1_555 1_555
C30 N1 1_555 1_555
H17 C30 1_555 1_555
H18 C30 1_555 1_555
H19 C30 1_555 1_555
C31 N1 1_555 1_555
H20 C31 1_555 1_555
H21 C31 1_555 1_555
H22 C31 1_555 1_555
N2 C32 1_555 1_555
C32 H23 1_555 1_555
H24 C32 1_555 1_555
H25 C32 1_555 1_555
C33 O10 1_555 1_555
H26 C33 1_555 1_555
C34 N2 1_555 1_555
H27 C34 1_555 1_555
H28 C34 1_555 1_555
H29 C34 1_555 1_555
Zn1A O1A 1_555 1_555
Zn1F O3 1_555 1_555
Zn1G O3A 1_555 1_555
Zn2A O9 1_555 1_555
Zn2B O7 1_555 1_555
Zn2B_2 O8A 1_555 1_555
Zn2C O8 1_555 1_555
Zn2C_2 O7A 1_555 1_555
O1A C27A 1_555 1_555
O2A Zn1A 1_555 1_555
O3A C27A 1_555 1_555
O3F Zn1 1_555 1_555
O3G Zn1A 1_555 1_555
O4A Zn1G 1_555 1_555
O4F Zn1 1_555 1_555
O4G Zn1A 1_555 1_555
O5A C1A 1_555 1_555
C1A C5A 1_555 1_555
O6A C17A 1_555 1_555
O7A C20A 1_555 1_555
O7B Zn2 1_555 1_555
O7C Zn2A 1_555 1_555
C2A C9A 1_555 1_555
O8A C20A 1_555 1_555
O8B Zn2A 1_555 1_555
O8C Zn2 1_555 1_555
O9A Zn2 1_555 1_555
O10A Zn1A 1_555 1_555
C3A H1A 1_555 1_555
C4A C13A 1_555 1_555
C5A H2A 1_555 1_555
O11A Zn2A 1_555 1_555
C6A H3A 1_555 1_555
C7A H4A 1_555 1_555
C8A C3A 1_555 1_555
H5A C8A 1_555 1_555
C9A H6A 1_555 1_555
N1A C29A 1_555 1_555
C10A H7A 1_555 1_555
C11A C1A 1_555 1_555
H8A C11A 1_555 1_555
C12A H9A 1_555 1_555
C13A C11A 1_555 1_555
H10A C13A 1_555 1_555
C14A C2A 1_555 1_555
H11A C14A 1_555 1_555
O12A Zn2A 1_555 1_555
C15A C7A 1_555 1_555
C16A C4A 1_555 1_555
H12A C16A 1_555 1_555
C17A C6A 1_555 1_555
C18A O5A 1_555 1_555
C19A C8A 1_555 1_555
C20A C2A 1_555 1_555
C21A C9A 1_555 1_555
H13A C21A 1_555 1_555
C22A O6A 1_555 1_555
C23A O2A 1_555 1_555
C24A C12A 1_555 1_555
H14A C24A 1_555 1_555
C25A C10A 1_555 1_555
H15A C25A 1_555 1_555
C26A C7A 1_555 1_555
H16A C26A 1_555 1_555
C27A C15A 1_555 1_555
C28A O9A 1_555 1_555
C29A O12A 1_555 1_555
C30A N1A 1_555 1_555
H17A C30A 1_555 1_555
H18A C30A 1_555 1_555
H19A C30A 1_555 1_555
C31A N1A 1_555 1_555
H20A C31A 1_555 1_555
H21A C31A 1_555 1_555
H22A C31A 1_555 1_555
N2A C32A 1_555 1_555
C32A H23A 1_555 1_555
H24A C32A 1_555 1_555
H25A C32A 1_555 1_555
C33A O10A 1_555 1_555
H26A C33A 1_555 1_555
C34A N2A 1_555 1_555
H27A C34A 1_555 1_555
H28A C34A 1_555 1_555
H29A C34A 1_555 1_555
O4 Zn1F 1_555 1_555
C3 C22 1_555 1_555
C5 C16 1_555 1_555
C6 C14 1_555 1_555
C10 C19 1_555 1_555
C12 C18 1_555 1_555
C15 C24 1_555 1_555
C17 C21 1_555 1_555
C18 C26 1_555 1_555
C19 C23 1_555 1_555
C22 C25 1_555 1_555
N2 C33 1_555 1_555
O4A C23A 1_555 1_555
C3A C22A 1_555 1_555
C4A C28A 1_555 1_555
C5A C16A 1_555 1_555
O11A C28A 1_555 1_555
C6A C14A 1_555 1_555
C10A C19A 1_555 1_555
C12A C18A 1_555 1_555
C15A C24A 1_555 1_555
C17A C21A 1_555 1_555
C18A C26A 1_555 1_555
C19A C23A 1_555 1_555
C22A C25A 1_555 1_555
N2A C33A 1_555 1_555

#END
