
#######################################################################
#
#                 Cambridge Crystallographic Data Centre
#                                CCDC 
#
#######################################################################
#
# If this CIF has been generated from an entry in the Cambridge 
# Structural Database, then it will include bibliographic, chemical, 
# crystal, experimental, refinement or atomic coordinate data resulting 
# from the CCDC's data processing and validation procedures.
#
#######################################################################

data_KUDWAJ
_chemical_formula_moiety         '(C44 H42 Cu4 N10 O20)n,11(H2 O1)'
_chemical_name_systematic        
"catena-(bis(\m-3,3',3''-(2,4,6-trioxo-1,3,5-triazinane-1,3,5-triyl)tripropanoato)-bis(\m-4,4'-bipyridine)-bis(\m-hydroxo)-tetra-copper(ii) undecahydrate unknown solvate)"
_symmetry_cell_setting           monoclinic
_symmetry_space_group_name_H-M   'C 2/c'
_symmetry_Int_Tables_number      15
_space_group_name_Hall           '-C 2yc'
loop_
_symmetry_equiv_pos_site_id
_symmetry_equiv_pos_as_xyz
1 x,y,z
2 -x,y,1/2-z
3 1/2+x,1/2+y,z
4 1/2-x,1/2+y,1/2-z
5 -x,-y,-z
6 x,-y,1/2+z
7 1/2-x,1/2-y,-z
8 1/2+x,1/2-y,1/2+z
_cell_length_a                   22.877(3)
_cell_length_b                   23.111(3)
_cell_length_c                   18.364(2)
_cell_angle_alpha                90
_cell_angle_beta                 105.399(2)
_cell_angle_gamma                90
_cell_volume                     9360.68
_exptl_crystal_colour            blue
_exptl_crystal_description       block
_cell_formula_units_Z            4
loop_
_atom_site_label
_atom_site_type_symbol
_atom_site_fract_x
_atom_site_fract_y
_atom_site_fract_z
Cu1 Cu 0.649068(18) 0.221685(19) 0.55791(2)
Cu2 Cu 0.720613(17) 0.304009(18) 0.46079(2)
N1 N 0.80909(13) 0.37014(13) 0.81423(17)
N2 N 0.90687(13) 0.37745(14) 0.89286(16)
N3 N 0.84510(13) 0.45933(13) 0.86592(17)
N4 N 0.59607(14) 0.22744(15) 0.62796(19)
N5 N 0.64209(13) 0.31474(13) 0.38500(17)
O1 O 0.75089(13) 0.44995(14) 0.78887(18)
O2 O 0.94174(12) 0.46511(13) 0.94194(17)
O3 O 0.87213(14) 0.29255(13) 0.83689(18)
O4 O 0.71807(11) 0.25569(12) 0.63610(13)
O5 O 0.68619(12) 0.33369(12) 0.56805(15)
O6 O 1.07562(11) 0.30110(14) 0.98047(16)
O7 O 1.11434(12) 0.33985(14) 0.89259(16)
O8 O 0.81934(16) 0.63457(12) 0.90306(19)
O9 O 0.74469(11) 0.61597(11) 0.95446(16)
O10 O 0.80094(9) 0.27594(9) 0.51526(12)
H1 H 0.8187 0.2987 0.5608
C1 C 0.79890(16) 0.42750(18) 0.8212(2)
C2 C 0.90116(16) 0.43571(17) 0.9031(2)
C3 C 0.86319(16) 0.34348(17) 0.8471(2)
C4 C 0.76147(16) 0.33643(18) 0.7610(2)
H2 H 0.7219 0.3489 0.7646
H3 H 0.7660 0.2957 0.7740
C5 C 0.76614(18) 0.34507(19) 0.6808(2)
H4 H 0.7602 0.3857 0.6676
H5 H 0.8065 0.3343 0.6782
C6 C 0.72017(16) 0.30976(17) 0.6249(2)
C7 C 0.96574(15) 0.35017(18) 0.9310(2)
H6 H 0.9591 0.3100 0.9419
H7 H 0.9832 0.3697 0.9785
C8 C 1.00939(17) 0.3533(2) 0.8821(2)
H8 H 1.0132 0.3933 0.8680
H9 H 0.9928 0.3315 0.8361
C9 C 1.07176(17) 0.32993(18) 0.9208(2)
C10 C 0.83681(18) 0.52215(16) 0.8717(2)
H10 H 0.8157 0.5373 0.8225
H11 H 0.8762 0.5407 0.8873
C11 C 0.80093(19) 0.53662(17) 0.9280(2)
H12 H 0.8237 0.5247 0.9781
H13 H 0.7630 0.5154 0.9150
C12 C 0.78793(17) 0.60102(17) 0.9280(2)
C13 C 0.5869(3) 0.2748(3) 0.6633(4)
H14 H 0.6069 0.3085 0.6563
C14 C 0.5489(3) 0.2765(3) 0.7103(4)
H15 H 0.5430 0.3114 0.7326
C15 C 0.52010(19) 0.2289(2) 0.7247(2)
C16 C 0.5278(3) 0.1797(2) 0.6870(3)
H16 H 0.5074 0.1460 0.6930
C17 C 0.5660(3) 0.1798(2) 0.6400(3)
H17 H 0.5711 0.1457 0.6156
C18 C 0.59196(18) 0.3295(2) 0.4039(2)
H18 H 0.5949 0.3394 0.4539
C19 C 0.53567(17) 0.3309(2) 0.3526(2)
H19 H 0.5016 0.3404 0.3686
C20 C 0.52984(15) 0.31834(16) 0.2775(2)
C21 C 0.58189(19) 0.3036(2) 0.2591(2)
H20 H 0.5804 0.2948 0.2092
C22 C 0.63613(18) 0.3016(2) 0.3128(2)
H21 H 0.6705 0.2905 0.2983
N4A N 0.40393(14) 0.22744(15) 0.87204(19)
C13A C 0.4131(3) 0.2748(3) 0.8367(4)
H14A H 0.3931 0.3085 0.8437
C14A C 0.4511(3) 0.2765(3) 0.7897(4)
H15A H 0.4570 0.3114 0.7674
C15A C 0.47990(19) 0.2289(2) 0.7753(2)
C16A C 0.4722(3) 0.1797(2) 0.8130(3)
H16A H 0.4926 0.1460 0.8070
C17A C 0.4340(3) 0.1798(2) 0.8600(3)
H17A H 0.4289 0.1457 0.8844
N5A N 0.35791(13) 0.31474(13) 0.11500(17)
C18A C 0.40804(18) 0.3295(2) 0.0961(2)
H18A H 0.4051 0.3394 0.0461
C19A C 0.46433(17) 0.3309(2) 0.1474(2)
H19A H 0.4984 0.3404 0.1314
C20A C 0.47016(15) 0.31834(16) 0.2225(2)
C21A C 0.41811(19) 0.3036(2) 0.2409(2)
H20A H 0.4196 0.2948 0.2908
C22A C 0.36387(18) 0.3016(2) 0.1872(2)
H21A H 0.3295 0.2905 0.2017
Cu1A Cu 0.350932(18) 0.221685(19) -0.05791(2)
Cu2A Cu 0.279387(17) 0.304009(18) 0.03921(2)
N1A N 0.19091(13) 0.37014(13) -0.31423(17)
N2A N 0.09313(13) 0.37745(14) -0.39286(16)
N3A N 0.15490(13) 0.45933(13) -0.36592(17)
O1A O 0.24911(13) 0.44995(14) -0.28887(18)
O2A O 0.05826(12) 0.46511(13) -0.44194(17)
O3A O 0.12787(14) 0.29255(13) -0.33689(18)
O4A O 0.28193(11) 0.25569(12) -0.13610(13)
O5A O 0.31381(12) 0.33369(12) -0.06805(15)
O6A O -0.07562(11) 0.30110(14) -0.48047(16)
O7A O -0.11434(12) 0.33985(14) -0.39259(16)
O8A O 0.18066(16) 0.63457(12) -0.40306(19)
O9A O 0.25531(11) 0.61597(11) -0.45446(16)
O10A O 0.19906(9) 0.27594(9) -0.01526(12)
H1A H 0.1813 0.2987 -0.0608
C1A C 0.20110(16) 0.42750(18) -0.3212(2)
C2A C 0.09884(16) 0.43571(17) -0.4031(2)
C3A C 0.13681(16) 0.34348(17) -0.3471(2)
C4A C 0.23853(16) 0.33643(18) -0.2610(2)
H2A H 0.2781 0.3489 -0.2646
H3A H 0.2340 0.2957 -0.2740
C5A C 0.23386(18) 0.34507(19) -0.1808(2)
H4A H 0.2398 0.3857 -0.1676
H5A H 0.1935 0.3343 -0.1782
C6A C 0.27983(16) 0.30976(17) -0.1249(2)
C7A C 0.03426(15) 0.35017(18) -0.4310(2)
H6A H 0.0409 0.3100 -0.4419
H7A H 0.0168 0.3697 -0.4785
C8A C -0.00939(17) 0.3533(2) -0.3821(2)
H8A H -0.0132 0.3933 -0.3680
H9A H 0.0072 0.3315 -0.3361
C9A C -0.07176(17) 0.32993(18) -0.4208(2)
C10A C 0.16319(18) 0.52215(16) -0.3717(2)
H10A H 0.1843 0.5373 -0.3225
H11A H 0.1238 0.5407 -0.3873
C11A C 0.19907(19) 0.53662(17) -0.4280(2)
H12A H 0.1763 0.5247 -0.4781
H13A H 0.2370 0.5154 -0.4150
C12A C 0.21207(17) 0.60102(17) -0.4280(2)
Cu1A_2 Cu 0.350932(18) 0.221685(19) 0.94209(2)
Cu1B Cu 0.149068(18) 0.721685(19) -0.44209(2)
Cu1C Cu 0.850932(18) 0.721685(19) 0.94209(2)
Cu1F Cu -0.149068(18) 0.278315(19) -0.55791(2)
Cu1F_2 Cu 0.850932(18) 0.278315(19) 0.44209(2)
Cu1G Cu 0.149068(18) 0.278315(19) 0.05791(2)
Cu1G_2 Cu 1.149068(18) 0.278315(19) 1.05791(2)
Cu2D Cu 0.279387(17) 0.695991(18) -0.46079(2)
Cu2E Cu 0.720613(17) 0.695991(18) 0.96079(2)
Cu2F Cu 0.779387(17) 0.195991(18) 0.53921(2)
Cu2G Cu 0.220613(17) 0.195991(18) -0.03921(2)
N4A_2 N 0.40393(14) 0.22744(15) -0.12796(19)
O6F O 0.42438(11) 0.19890(14) 0.01953(16)
O6G O 0.57562(11) 0.19890(14) 0.48047(16)
O8B O 0.31934(16) 0.13457(12) -0.09694(19)
O8C O 0.68066(16) 0.13457(12) 0.59694(19)
O9D O 0.25531(11) 0.38403(11) 0.04554(16)
O9E O 0.74469(11) 0.38403(11) 0.45446(16)
O10F O 0.69906(9) 0.22406(9) 0.48474(12)
O10G O 0.30094(9) 0.22406(9) 0.01526(12)
O11 O 0.0000 0.4906(2) 0.7500
O12 O 0.11028(17) 0.43179(16) 0.7866(2)
H22 H 0.0740 0.4357 0.7598
H23 H 0.1179 0.3962 0.7958
O13 O 0.0171(2) 0.55171(18) 0.8859(2)
H24 H 0.0506 0.5618 0.8862
H25 H 0.0187 0.5239 0.9078
O14 O 0.1936(4) 0.5189(4) 0.8537(4)
H26 H 0.1564 0.5204 0.8306
H27 H 0.2039 0.4815 0.8560
O15 O 0.1316(4) 0.6004(5) 0.9301(6)
H28 H 0.1313 0.6139 0.8904
H29 H 0.1415 0.5633 0.9306
O16 O 0.6893(4) 0.5356(4) 0.0415(5)
H30 H 0.7255 0.5235 0.0580
H31 H 0.6896 0.5716 0.0325
H32? H -0.0074 0.5067 0.7270
H33? H 0.0149 0.5152 0.7842
loop_
_geom_bond_atom_site_label_1
_geom_bond_atom_site_label_2
_geom_bond_site_symmetry_1
_geom_bond_site_symmetry_2
Cu1 N4 1_555 1_555
Cu2 N5 1_555 1_555
N1 C1 1_555 1_555
N2 C2 1_555 1_555
N3 C1 1_555 1_555
N4 C13 1_555 1_555
N5 C18 1_555 1_555
O1 C1 1_555 1_555
O2 C2 1_555 1_555
O3 C3 1_555 1_555
O4 Cu1 1_555 1_555
O5 Cu1 1_555 1_555
O6 C9 1_555 1_555
O7 C9 1_555 1_555
O8 C12 1_555 1_555
O9 C12 1_555 1_555
O10 Cu2 1_555 1_555
H1 O10 1_555 1_555
C2 N3 1_555 1_555
C3 N1 1_555 1_555
C4 N1 1_555 1_555
H2 C4 1_555 1_555
H3 C4 1_555 1_555
C5 C4 1_555 1_555
H4 C5 1_555 1_555
H5 C5 1_555 1_555
C6 O4 1_555 1_555
C7 N2 1_555 1_555
H6 C7 1_555 1_555
H7 C7 1_555 1_555
C8 C7 1_555 1_555
H8 C8 1_555 1_555
H9 C8 1_555 1_555
C9 C8 1_555 1_555
C10 N3 1_555 1_555
H10 C10 1_555 1_555
H11 C10 1_555 1_555
C11 C10 1_555 1_555
H12 C11 1_555 1_555
H13 C11 1_555 1_555
C12 C11 1_555 1_555
C13 H14 1_555 1_555
C14 C13 1_555 1_555
H15 C14 1_555 1_555
C15 C14 1_555 1_555
C16 C15 1_555 1_555
H16 C16 1_555 1_555
C17 N4 1_555 1_555
H17 C17 1_555 1_555
C18 H18 1_555 1_555
C19 C18 1_555 1_555
H19 C19 1_555 1_555
C20 C19 1_555 1_555
C21 C20 1_555 1_555
H20 C21 1_555 1_555
C22 N5 1_555 1_555
H21 C22 1_555 1_555
O12 H22 1_555 1_555
H23 O12 1_555 1_555
O13 H24 1_555 1_555
H25 O13 1_555 1_555
O14 H26 1_555 1_555
H27 O14 1_555 1_555
O15 H28 1_555 1_555
H29 O15 1_555 1_555
O16 H30 1_555 1_555
H31 O16 1_555 1_555
N4A C13A 1_555 1_555
C13A H14A 1_555 1_555
C14A C13A 1_555 1_555
H15A C14A 1_555 1_555
C15A C15 1_555 1_555
C16A C15A 1_555 1_555
H16A C16A 1_555 1_555
C17A N4A 1_555 1_555
H17A C17A 1_555 1_555
N5A C18A 1_555 1_555
C18A H18A 1_555 1_555
C19A C18A 1_555 1_555
H19A C19A 1_555 1_555
C20A C20 1_555 1_555
C21A C20A 1_555 1_555
H20A C21A 1_555 1_555
C22A N5A 1_555 1_555
H21A C22A 1_555 1_555
Cu1A O4A 1_555 1_555
Cu2A N5A 1_555 1_555
N1A C1A 1_555 1_555
N2A C2A 1_555 1_555
N3A C1A 1_555 1_555
O1A C1A 1_555 1_555
O2A C2A 1_555 1_555
O3A C3A 1_555 1_555
O4A C6A 1_555 1_555
O5A Cu1A 1_555 1_555
O6A C9A 1_555 1_555
O7A C9A 1_555 1_555
O8A C12A 1_555 1_555
O9A C12A 1_555 1_555
O10A Cu2A 1_555 1_555
H1A O10A 1_555 1_555
C2A N3A 1_555 1_555
C3A N1A 1_555 1_555
C4A N1A 1_555 1_555
H2A C4A 1_555 1_555
H3A C4A 1_555 1_555
C5A C4A 1_555 1_555
H4A C5A 1_555 1_555
H5A C5A 1_555 1_555
C6A O5A 1_555 1_555
C7A N2A 1_555 1_555
H6A C7A 1_555 1_555
H7A C7A 1_555 1_555
C8A C7A 1_555 1_555
H8A C8A 1_555 1_555
H9A C8A 1_555 1_555
C9A C8A 1_555 1_555
C10A N3A 1_555 1_555
H10A C10A 1_555 1_555
H11A C10A 1_555 1_555
C11A C10A 1_555 1_555
H12A C11A 1_555 1_555
H13A C11A 1_555 1_555
C12A C11A 1_555 1_555
Cu1A_2 N4A 1_555 1_555
Cu1B O8A 1_555 1_555
Cu1C O8 1_555 1_555
Cu1F O6A 1_555 1_555
Cu1F_2 O10 1_555 1_555
Cu1G O10A 1_555 1_555
Cu1G_2 O6 1_555 1_555
Cu2D O9A 1_555 1_555
Cu2E O9 1_555 1_555
Cu2F O10 1_555 1_555
Cu2G O10A 1_555 1_555
N4A_2 Cu1A 1_555 1_555
O6F Cu1A 1_555 1_555
O6G Cu1 1_555 1_555
O8B Cu1A 1_555 1_555
O8C Cu1 1_555 1_555
O9D Cu2A 1_555 1_555
O9E Cu2 1_555 1_555
O10F Cu1 1_555 1_555
O10G Cu1A 1_555 1_555
Cu2 O5 1_555 1_555
Cu2 O10F 1_555 1_555
N2 C3 1_555 1_555
O5 C6 1_555 1_555
C5 C6 1_555 1_555
C16 C17 1_555 1_555
C21 C22 1_555 1_555
C14A C15A 1_555 1_555
C16A C17A 1_555 1_555
C19A C20A 1_555 1_555
C21A C22A 1_555 1_555
Cu2A O5A 1_555 1_555
Cu2A O10G 1_555 1_555
N2A C3A 1_555 1_555
C5A C6A 1_555 1_555
Cu2F O10F 1_555 1_555
Cu2G O10G 1_555 1_555

#END
