
#######################################################################
#
#                 Cambridge Crystallographic Data Centre
#                                CCDC 
#
#######################################################################
#
# If this CIF has been generated from an entry in the Cambridge 
# Structural Database, then it will include bibliographic, chemical, 
# crystal, experimental, refinement or atomic coordinate data resulting 
# from the CCDC's data processing and validation procedures.
#
#######################################################################

data_QAHDIO
_chemical_name_common            UMCM-1-OBnNO2
_chemical_formula_moiety         '(C153 H87 N3 O48 Zn12)n'
_chemical_name_systematic        
catena-(tetrakis(\m~6~-4,4',4''-(Benzene-1,3,5-triyl)tribenzoato)-tris(\m~4~-2-(2-nitrobenzyloxy)terephthalato)-tris(\m~4~-oxo)-dodeca-zinc)
_symmetry_cell_setting           hexagonal
_symmetry_space_group_name_H-M   'P 63/m'
_symmetry_Int_Tables_number      176
_space_group_name_Hall           '-P 6c'
loop_
_symmetry_equiv_pos_site_id
_symmetry_equiv_pos_as_xyz
1 x,y,z
2 -y,x-y,z
3 -x+y,-x,z
4 -x,-y,1/2+z
5 y,-x+y,1/2+z
6 x-y,x,1/2+z
7 -x,-y,-z
8 y,-x+y,-z
9 x-y,x,-z
10 x,y,1/2-z
11 -y,x-y,1/2-z
12 -x+y,-x,1/2-z
_cell_length_a                   41.275(2)
_cell_length_b                   41.275(2)
_cell_length_c                   17.5787(10)
_cell_angle_alpha                90
_cell_angle_beta                 90
_cell_angle_gamma                120
_cell_volume                     25935.3
_exptl_crystal_colour            colorless
_exptl_crystal_description       needle
_cell_formula_units_Z            2
loop_
_atom_site_label
_atom_site_type_symbol
_atom_site_fract_x
_atom_site_fract_y
_atom_site_fract_z
Zn1 Zn 0.372068(14) 0.971452(10) 0.839448(19)
Zn2 Zn 0.320676(20) 0.895604(14) 0.7500
Zn3 Zn 0.408579(15) 0.931212(15) 0.7500
O1 O 0.36816(7) 0.94230(8) 0.7500
O2 O 0.33000(7) 0.94326(8) 0.90550(12)
O3 O 0.41721(11) 0.98446(8) 0.89652(14)
O4 O 0.01710(11) 0.64428(7) 1.31344(13)
O5 O 0.29363(11) 0.88998(7) 0.84298(12)
O6 O 0.32979(16) 0.85405(11) 0.7500
O7 O 0.44071(11) 0.95303(8) 0.83831(15)
O8 O 0.39061(15) 0.87803(10) 0.7500
O9 O 0.4444(5) 1.0167(7) 1.0167(9)
C1 C 0.30280(16) 0.90996(11) 0.90101(17)
C2 C 0.28092(17) 0.89359(11) 0.97271(19)
C3 C 0.25434(21) 0.85599(13) 0.9753(2)
C4 C 0.23624(23) 0.83988(14) 1.0433(2)
C5 C 0.24315(21) 0.86278(13) 1.10795(19)
C6 C 0.26929(23) 0.90037(14) 1.1041(2)
C7 C 0.28797(19) 0.91630(12) 1.0354(2)
C8 C 0.22383(21) 0.84607(13) 1.1806(2)
C9 C 0.24123(27) 0.86133(18) 1.2500
C10 C 0.35815(21) 0.85126(14) 0.7500
C11 C 0.35376(15) 0.81303(10) 0.7500
C12 C 0.38048(17) 0.80566(11) 0.71947(19)
C13 C 0.37593(16) 0.77004(13) 0.7746(3)
C14 C 0.34465(15) 0.74178(9) 0.7619(3)
C15 C 0.31793(18) 0.74914(12) 0.7924(3)
C16 C 0.32248(19) 0.78477(15) 0.7865(2)
C17 C 0.33850(23) 0.70285(16) 0.7500
C18 C 0.30245(22) 0.67135(15) 0.7500
C19 C 0.44049(14) 0.97375(18) 0.8896(2)
C20 C 0.47122(13) 0.98703(18) 0.9473(2)
C21 C 0.47141(16) 1.00666(23) 1.0083(3)
C22 C 0.49973(15) 0.98031(22) 0.9371(3)
C23 C 0.03043(20) 0.65834(13) 1.2500
C24 C 0.06629(22) 0.69493(15) 1.2500
C25 C 0.08410(26) 0.71125(18) 1.3128(3)
C26 C 0.11641(28) 0.74520(19) 1.3118(3)
C27 C 0.18836(21) 0.81439(13) 1.1809(2)
C28 C 0.16995(27) 0.79725(18) 1.2500
C29 C 0.13369(26) 0.76269(17) 1.2500
Zn1I Zn 0.372068(14) 0.971452(10) 0.660552(19)
Zn1I_2 Zn 0.372068(14) 0.971452(10) 1.660552(19)
Zn1_2 Zn 0.372068(14) 0.971452(10) -0.160552(19)
Zn1D Zn -0.028548(10) 0.599384(17) 1.339448(19)
Zn1G Zn -0.028548(10) 0.599384(17) 1.160552(19)
Zn1F Zn 0.627932(14) 1.028548(10) 1.160552(19)
Zn1G_2 Zn -0.028548(10) 0.599384(17) 0.160552(19)
Zn1D_2 Zn -0.028548(10) 0.599384(17) 0.339448(19)
Zn1E Zn 0.400616(17) 1.372068(14) 0.339448(19)
Zn1H Zn 0.400616(17) 1.372068(14) 1.160552(19)
Zn1C Zn 0.627932(14) 1.028548(10) 0.339448(19)
Zn1_3 Zn 0.372068(14) 0.971452(10) 1.839448(19)
Zn1I_3 Zn 0.372068(14) 0.971452(10) -0.339448(19)
Zn1J Zn 0.028548(10) 0.400616(17) 0.660552(19)
Zn2_2 Zn 0.320676(20) 0.895604(14) 1.7500
Zn2_3 Zn 0.320676(20) 0.895604(14) -0.2500
Zn2A Zn 0.104396(14) 0.425072(24) 0.7500
Zn2B Zn 0.574928(24) 0.679324(20) 0.7500
Zn2E Zn 0.425072(24) 1.320676(20) 0.2500
Zn2E_2 Zn 0.425072(24) 1.320676(20) 1.2500
Zn3A Zn 0.068788(15) 0.477367(21) 0.7500
Zn3B Zn 0.522633(21) 0.591421(15) 0.7500
Zn3C Zn 0.591421(15) 1.068788(15) 1.2500
Zn3C_2 Zn 0.591421(15) 1.068788(15) 0.2500
Zn3_2 Zn 0.408579(15) 0.931212(15) 1.7500
Zn3_3 Zn 0.408579(15) 0.931212(15) -0.2500
Zn3D Zn -0.068788(15) 0.522633(21) 0.2500
O1_2 O 0.36816(7) 0.94230(8) 1.7500
O1_3 O 0.36816(7) 0.94230(8) -0.2500
O1A O 0.05770(8) 0.42586(11) 0.7500
O1B O 0.57414(11) 0.63184(7) 0.7500
O1D O -0.05770(8) 0.57414(11) 1.2500
O2I O 0.33000(7) 0.94326(8) 1.59450(12)
O2I_2 O 0.33000(7) 0.94326(8) 0.59450(12)
O2_2 O 0.33000(7) 0.94326(8) -0.09450(12)
O2E O 0.38674(11) 1.33000(7) 0.40550(12)
O2H O 0.38674(11) 1.33000(7) 1.09450(12)
O2D O -0.05674(8) 0.61326(11) 1.40550(12)
O2G O -0.05674(8) 0.61326(11) 1.09450(12)
O3F O 0.58279(11) 1.01554(8) 1.10348(14)
O3I O 0.41721(11) 0.98446(8) 0.60348(14)
O3C O 0.58279(11) 1.01554(8) 0.39652(14)
O3J O 0.01554(8) 0.43275(14) 0.60348(14)
O3D O -0.01554(8) 0.56725(14) 0.39652(14)
O3I_2 O 0.41721(11) 0.98446(8) 1.60348(14)
O3_2 O 0.41721(11) 0.98446(8) -0.10348(14)
O3D_2 O -0.01554(8) 0.56725(14) 1.39652(14)
O3G O -0.01554(8) 0.56725(14) 1.10348(14)
O4I O 0.01710(11) 0.64428(7) 1.18656(13)
O4I_2 O 0.01710(11) 0.64428(7) 0.18656(13)
O4_2 O 0.01710(11) 0.64428(7) 0.31344(13)
O4E O 0.37282(13) 1.01710(11) 0.81344(13)
O4H O 0.37282(13) 1.01710(11) 0.68656(13)
O4H_2 O 0.37282(13) 1.01710(11) 1.68656(13)
O4E_2 O 0.37282(13) 1.01710(11) -0.18656(13)
O5I O 0.29363(11) 0.88998(7) 1.65702(12)
O5I_2 O 0.29363(11) 0.88998(7) 0.65702(12)
O5_2 O 0.29363(11) 0.88998(7) -0.15702(12)
O5E O 0.40365(13) 1.29363(11) 0.34298(12)
O5H O 0.40365(13) 1.29363(11) 1.15702(12)
O5_3 O 0.29363(11) 0.88998(7) 1.84298(12)
O5I_3 O 0.29363(11) 0.88998(7) -0.34298(12)
O6A O 0.14595(11) 0.47574(19) 0.7500
O6B O 0.52426(19) 0.67021(16) 0.7500
O6_2 O 0.32979(16) 0.85405(11) 1.7500
O6_3 O 0.32979(16) 0.85405(11) -0.2500
O7F O 0.55929(11) 1.04697(8) 1.16169(15)
O7I O 0.44071(11) 0.95303(8) 0.66169(15)
O7C O 0.55929(11) 1.04697(8) 0.33831(15)
O7J O 0.04697(8) 0.48768(14) 0.66169(15)
O7D O -0.04697(8) 0.51232(14) 0.33831(15)
O7A O 0.04697(8) 0.48768(14) 0.83831(15)
O7K O 0.51232(14) 0.55929(11) 0.66169(15)
O7B O 0.51232(14) 0.55929(11) 0.83831(15)
O8A O 0.12197(10) 0.51258(18) 0.7500
O8B O 0.48742(18) 0.60939(15) 0.7500
O9F O 0.5556(5) 0.9833(7) 0.9833(9)
O9I O 0.4444(5) 1.0167(7) 0.4833(9)
O9C O 0.5556(5) 0.9833(7) 0.5167(9)
O9J O -0.0167(7) 0.4277(9) 0.4833(9)
O9D O 0.0167(7) 0.5723(9) 0.5167(9)
C1I C 0.30280(16) 0.90996(11) 1.59899(17)
C1I_2 C 0.30280(16) 0.90996(11) 0.59899(17)
C1_2 C 0.30280(16) 0.90996(11) -0.09899(17)
C1E C 0.39284(19) 1.30280(16) 0.40101(17)
C1H C 0.39284(19) 1.30280(16) 1.09899(17)
C2I C 0.28092(17) 0.89359(11) 1.52729(19)
C2I_2 C 0.28092(17) 0.89359(11) 0.52729(19)
C2_2 C 0.28092(17) 0.89359(11) -0.02729(19)
C2E C 0.38733(20) 1.28092(17) 0.47271(19)
C2H C 0.38733(20) 1.28092(17) 1.02729(19)
C3I C 0.25434(21) 0.85599(13) 1.5247(2)
C3I_2 C 0.25434(21) 0.85599(13) 0.5247(2)
C3_2 C 0.25434(21) 0.85599(13) -0.0247(2)
C3E C 0.39835(25) 1.25434(21) 0.4753(2)
C3H C 0.39835(25) 1.25434(21) 1.0247(2)
C4I C 0.23624(23) 0.83988(14) 1.4567(2)
C4I_2 C 0.23624(23) 0.83988(14) 0.4567(2)
C4_2 C 0.23624(23) 0.83988(14) 0.0433(2)
C4E C 0.39636(27) 1.23624(23) 0.5433(2)
C4H C 0.39636(27) 1.23624(23) 0.9567(2)
C5I C 0.24315(21) 0.86278(13) 1.39205(19)
C5I_2 C 0.24315(21) 0.86278(13) 0.39205(19)
C5_2 C 0.24315(21) 0.86278(13) 0.10795(19)
C5E C 0.38037(25) 1.24315(21) 0.60795(19)
C5H C 0.38037(25) 1.24315(21) 0.89205(19)
C6I C 0.26929(23) 0.90037(14) 1.3959(2)
C6I_2 C 0.26929(23) 0.90037(14) 0.3959(2)
C6_2 C 0.26929(23) 0.90037(14) 0.1041(2)
C6E C 0.36892(27) 1.26929(23) 0.6041(2)
C6H C 0.36892(27) 1.26929(23) 0.8959(2)
C7I C 0.28797(19) 0.91630(12) 1.4646(2)
C7I_2 C 0.28797(19) 0.91630(12) 0.4646(2)
C7_2 C 0.28797(19) 0.91630(12) 0.0354(2)
C7E C 0.37167(22) 1.28797(19) 0.5354(2)
C7H C 0.37167(22) 1.28797(19) 0.9646(2)
C8I C 0.22383(21) 0.84607(13) 1.3194(2)
C8I_2 C 0.22383(21) 0.84607(13) 0.3194(2)
C8_2 C 0.22383(21) 0.84607(13) 0.1806(2)
C8E C 0.37776(25) 1.22383(21) 0.6806(2)
C8H C 0.37776(25) 1.22383(21) 0.8194(2)
C9_2 C 0.24123(27) 0.86133(18) 0.2500
C9E C 0.37990(32) 1.24123(27) 0.7500
C10A C 0.14874(14) 0.50689(25) 0.7500
C10B C 0.49311(25) 0.64185(21) 0.7500
C11A C 0.18697(10) 0.54073(18) 0.7500
C11B C 0.45927(18) 0.64624(15) 0.7500
C12I C 0.38048(17) 0.80566(11) 0.78053(19)
C12A C 0.19434(11) 0.57482(20) 0.71947(19)
C12J C 0.19434(11) 0.57482(20) 0.78053(19)
C12B C 0.42518(20) 0.61952(17) 0.71947(19)
C12K C 0.42518(20) 0.61952(17) 0.78053(19)
C13I C 0.37593(16) 0.77004(13) 0.7254(3)
C13A C 0.22996(13) 0.60589(21) 0.7746(3)
C13J C 0.22996(13) 0.60589(21) 0.7254(3)
C13B C 0.39411(21) 0.62407(16) 0.7746(3)
C13K C 0.39411(21) 0.62407(16) 0.7254(3)
C14I C 0.34465(15) 0.74178(9) 0.7381(3)
C14A C 0.25822(9) 0.60287(17) 0.7619(3)
C14J C 0.25822(9) 0.60287(17) 0.7381(3)
C14B C 0.39713(17) 0.65535(15) 0.7619(3)
C14K C 0.39713(17) 0.65535(15) 0.7381(3)
C15I C 0.31793(18) 0.74914(12) 0.7076(3)
C15A C 0.25086(12) 0.56879(22) 0.7924(3)
C15J C 0.25086(12) 0.56879(22) 0.7076(3)
C15B C 0.43121(22) 0.68207(18) 0.7924(3)
C15K C 0.43121(22) 0.68207(18) 0.7076(3)
C16I C 0.32248(19) 0.78477(15) 0.7135(2)
C16A C 0.21523(15) 0.53771(24) 0.7865(2)
C16J C 0.21523(15) 0.53771(24) 0.7135(2)
C16B C 0.46229(24) 0.67752(19) 0.7865(2)
C16K C 0.46229(24) 0.67752(19) 0.7135(2)
C17A C 0.29715(16) 0.63565(28) 0.7500
C17B C 0.36435(28) 0.66150(23) 0.7500
C18A C 0.32865(15) 0.63110(27) 0.7500
C18B C 0.36890(27) 0.69755(22) 0.7500
C19F C 0.55951(14) 1.02625(18) 1.1104(2)
C19I C 0.44049(14) 0.97375(18) 0.6104(2)
C19C C 0.55951(14) 1.02625(18) 0.3896(2)
C19J C 0.02625(18) 0.46674(23) 0.6104(2)
C19D C -0.02625(18) 0.53326(23) 0.3896(2)
C20F C 0.52878(13) 1.01297(18) 1.0527(2)
C20I C 0.47122(13) 0.98703(18) 0.5527(2)
C20C C 0.52878(13) 1.01297(18) 0.4473(2)
C20J C 0.01297(18) 0.48419(22) 0.5527(2)
C20D C -0.01297(18) 0.51581(22) 0.4473(2)
C21F C 0.52859(16) 0.99334(23) 0.9917(3)
C21I C 0.47141(16) 1.00666(23) 0.4917(3)
C21C C 0.52859(16) 0.99334(23) 0.5083(3)
C21J C -0.00666(23) 0.46475(28) 0.4917(3)
C21D C 0.00666(23) 0.53525(28) 0.5083(3)
C22F C 0.50027(15) 1.01969(22) 1.0629(3)
C22I C 0.49973(15) 0.98031(22) 0.5629(3)
C22C C 0.50027(15) 1.01969(22) 0.4371(3)
C22J C 0.01969(22) 0.51942(27) 0.5629(3)
C22D C -0.01969(22) 0.48058(27) 0.4371(3)
C23_2 C 0.03043(20) 0.65834(13) 0.2500
C23E C 0.37209(24) 1.03043(20) 0.7500
C24_2 C 0.06629(22) 0.69493(15) 0.2500
C24E C 0.37136(27) 1.06629(22) 0.7500
C25I C 0.08410(26) 0.71125(18) 1.1872(3)
C25I_2 C 0.08410(26) 0.71125(18) 0.1872(3)
C25_2 C 0.08410(26) 0.71125(18) 0.3128(3)
C25E C 0.37285(32) 1.08410(26) 0.8128(3)
C25H C 0.37285(32) 1.08410(26) 0.6872(3)
C26I C 0.11641(28) 0.74520(19) 1.1882(3)
C26I_2 C 0.11641(28) 0.74520(19) 0.1882(3)
C26_2 C 0.11641(28) 0.74520(19) 0.3118(3)
C26E C 0.37121(34) 1.11641(28) 0.8118(3)
C26H C 0.37121(34) 1.11641(28) 0.6882(3)
C27I C 0.18836(21) 0.81439(13) 1.3191(2)
C27I_2 C 0.18836(21) 0.81439(13) 0.3191(2)
C27_2 C 0.18836(21) 0.81439(13) 0.1809(2)
C27E C 0.37397(25) 1.18836(21) 0.6809(2)
C27H C 0.37397(25) 1.18836(21) 0.8191(2)
C28_2 C 0.16995(27) 0.79725(18) 0.2500
C28E C 0.37270(32) 1.16995(27) 0.7500
C29_2 C 0.13369(26) 0.76269(17) 0.2500
C29E C 0.37100(31) 1.13369(26) 0.7500
O10? O 0.0485(5) 0.5492(5) 0.6222(9)
loop_
_geom_bond_atom_site_label_1
_geom_bond_atom_site_label_2
_geom_bond_site_symmetry_1
_geom_bond_site_symmetry_2
Zn1 O1 1_555 1_555
Zn2 O1 1_555 1_555
Zn3 O1 1_555 1_555
O1 Zn1I 1_555 1_555
O2 Zn1 1_555 1_555
O3 Zn1 1_555 1_555
O4 C23 1_555 1_555
O5 Zn2 1_555 1_555
O6 Zn2 1_555 1_555
O7 Zn3 1_555 1_555
O8 Zn3 1_555 1_555
O9 C21 1_555 1_555
C1 O2 1_555 1_555
C2 C1 1_555 1_555
C3 C2 1_555 1_555
C4 C3 1_555 1_555
C5 C4 1_555 1_555
C6 C5 1_555 1_555
C7 C2 1_555 1_555
C8 C5 1_555 1_555
C9 C8 1_555 1_555
C10 O6 1_555 1_555
C11 C10 1_555 1_555
C12 C11 1_555 1_555
C13 C12 1_555 1_555
C14 C13 1_555 1_555
C15 C14 1_555 1_555
C16 C11 1_555 1_555
C17 C14 1_555 1_555
C18 C17 1_555 1_555
C19 O3 1_555 1_555
C20 C19 1_555 1_555
C21 C20 1_555 1_555
C22 C20 1_555 1_555
C23 C24 1_555 1_555
C24 C25 1_555 1_555
C25 C26 1_555 1_555
C26 C29 1_555 1_555
C27 C8 1_555 1_555
C28 C27 1_555 1_555
C29 C28 1_555 1_555
Zn1I O2I_2 1_555 1_555
Zn1I_2 O1_2 1_555 1_555
Zn1_2 O1_3 1_555 1_555
Zn1D O4 1_555 1_555
Zn1G O1D 1_555 1_555
Zn1F O3F 1_555 1_555
Zn1G_2 O4I_2 1_555 1_555
Zn1D_2 O3D 1_555 1_555
Zn1E O2E 1_555 1_555
Zn1H O2H 1_555 1_555
Zn1C O3C 1_555 1_555
Zn1_3 O1_2 1_555 1_555
Zn1I_3 O1_3 1_555 1_555
Zn1J O1A 1_555 1_555
Zn2_2 O1_2 1_555 1_555
Zn2_3 O1_3 1_555 1_555
Zn2A O1A 1_555 1_555
Zn2B O1B 1_555 1_555
Zn2E O5E 1_555 1_555
Zn2E_2 O5H 1_555 1_555
Zn3A O1A 1_555 1_555
Zn3B O1B 1_555 1_555
Zn3C O7F 1_555 1_555
Zn3C_2 O7C 1_555 1_555
Zn3_2 O1_2 1_555 1_555
Zn3_3 O1_3 1_555 1_555
Zn3D O7D 1_555 1_555
O1D Zn1D 1_555 1_555
O2I Zn1I_2 1_555 1_555
O2I_2 C1I_2 1_555 1_555
O2_2 Zn1_2 1_555 1_555
O2E C1E 1_555 1_555
O2H C1H 1_555 1_555
O2D Zn1D 1_555 1_555
O2G Zn1G 1_555 1_555
O3F C19F 1_555 1_555
O3I Zn1I 1_555 1_555
O3C C19C 1_555 1_555
O3J Zn1J 1_555 1_555
O3D C19D 1_555 1_555
O3I_2 Zn1I_2 1_555 1_555
O3_2 Zn1_2 1_555 1_555
O3D_2 Zn1D 1_555 1_555
O3G Zn1G 1_555 1_555
O4I C23 1_555 1_555
O4I_2 C23_2 1_555 1_555
O4_2 Zn1D_2 1_555 1_555
O4E Zn1 1_555 1_555
O4H Zn1I 1_555 1_555
O4H_2 Zn1I_2 1_555 1_555
O4E_2 Zn1_2 1_555 1_555
O5I Zn2_2 1_555 1_555
O5I_2 Zn2 1_555 1_555
O5_2 Zn2_3 1_555 1_555
O5E C1E 1_555 1_555
O5H C1H 1_555 1_555
O5_3 Zn2_2 1_555 1_555
O5I_3 Zn2_3 1_555 1_555
O6A Zn2A 1_555 1_555
O6B Zn2B 1_555 1_555
O6_2 Zn2_2 1_555 1_555
O6_3 Zn2_3 1_555 1_555
O7F C19F 1_555 1_555
O7I Zn3 1_555 1_555
O7C C19C 1_555 1_555
O7J Zn3A 1_555 1_555
O7D C19D 1_555 1_555
O7A Zn3A 1_555 1_555
O7K Zn3B 1_555 1_555
O7B Zn3B 1_555 1_555
O8A Zn3A 1_555 1_555
O8B Zn3B 1_555 1_555
O9F C21F 1_555 1_555
O9I C21I 1_555 1_555
O9C C21C 1_555 1_555
O9J C21J 1_555 1_555
O9D C21D 1_555 1_555
C1I O2I 1_555 1_555
C1I_2 O5I_2 1_555 1_555
C1_2 O2_2 1_555 1_555
C1E C2E 1_555 1_555
C1H C2H 1_555 1_555
C2I C1I 1_555 1_555
C2I_2 C1I_2 1_555 1_555
C2_2 C1_2 1_555 1_555
C2E C3E 1_555 1_555
C2H C3H 1_555 1_555
C3I C2I 1_555 1_555
C3I_2 C2I_2 1_555 1_555
C3_2 C2_2 1_555 1_555
C3E C4E 1_555 1_555
C3H C4H 1_555 1_555
C4I C3I 1_555 1_555
C4I_2 C3I_2 1_555 1_555
C4_2 C3_2 1_555 1_555
C4E C5E 1_555 1_555
C4H C5H 1_555 1_555
C5I C4I 1_555 1_555
C5I_2 C4I_2 1_555 1_555
C5_2 C4_2 1_555 1_555
C5E C6E 1_555 1_555
C5H C6H 1_555 1_555
C6I C5I 1_555 1_555
C6I_2 C5I_2 1_555 1_555
C6_2 C5_2 1_555 1_555
C6E C7E 1_555 1_555
C6H C7H 1_555 1_555
C7I C2I 1_555 1_555
C7I_2 C2I_2 1_555 1_555
C7_2 C2_2 1_555 1_555
C7E C2E 1_555 1_555
C7H C2H 1_555 1_555
C8I C9 1_555 1_555
C8I_2 C5I_2 1_555 1_555
C8_2 C5_2 1_555 1_555
C8E C5E 1_555 1_555
C8H C5H 1_555 1_555
C9_2 C8I_2 1_555 1_555
C9E C8E 1_555 1_555
C10A O6A 1_555 1_555
C10B O6B 1_555 1_555
C11A C10A 1_555 1_555
C11B C10B 1_555 1_555
C12I C11 1_555 1_555
C12A C11A 1_555 1_555
C12J C11A 1_555 1_555
C12B C11B 1_555 1_555
C12K C11B 1_555 1_555
C13I C12 1_555 1_555
C13A C12A 1_555 1_555
C13J C12A 1_555 1_555
C13B C12B 1_555 1_555
C13K C12B 1_555 1_555
C14I C13 1_555 1_555
C14A C13A 1_555 1_555
C14J C13A 1_555 1_555
C14B C13B 1_555 1_555
C14K C13B 1_555 1_555
C15I C14 1_555 1_555
C15A C14A 1_555 1_555
C15J C14A 1_555 1_555
C15B C14B 1_555 1_555
C15K C14B 1_555 1_555
C16I C11 1_555 1_555
C16A C11A 1_555 1_555
C16J C11A 1_555 1_555
C16B C11B 1_555 1_555
C16K C11B 1_555 1_555
C17A C18 1_555 1_555
C17B C14B 1_555 1_555
C18A C17A 1_555 1_555
C18B C17 1_555 1_555
C19F C20F 1_555 1_555
C19I O3I 1_555 1_555
C19C C20C 1_555 1_555
C19J O3J 1_555 1_555
C19D C20D 1_555 1_555
C20F C21F 1_555 1_555
C20I C19I 1_555 1_555
C20C C21C 1_555 1_555
C20J C19J 1_555 1_555
C20D C21D 1_555 1_555
C21F C22 1_555 1_555
C21I C20I 1_555 1_555
C21C C22I 1_555 1_555
C21J C20J 1_555 1_555
C21D C22J 1_555 1_555
C22F C21 1_555 1_555
C22I C20I 1_555 1_555
C22C C20C 1_555 1_555
C22J C20J 1_555 1_555
C22D C20D 1_555 1_555
C23_2 O4_2 1_555 1_555
C23E O4E 1_555 1_555
C24_2 C23_2 1_555 1_555
C24E C23E 1_555 1_555
C25I C24 1_555 1_555
C25I_2 C24_2 1_555 1_555
C25_2 C24_2 1_555 1_555
C25E C24E 1_555 1_555
C25H C24E 1_555 1_555
C26I C29 1_555 1_555
C26I_2 C25I_2 1_555 1_555
C26_2 C25_2 1_555 1_555
C26E C25E 1_555 1_555
C26H C25H 1_555 1_555
C27I C28 1_555 1_555
C27I_2 C8I_2 1_555 1_555
C27_2 C8_2 1_555 1_555
C27E C8E 1_555 1_555
C27H C8H 1_555 1_555
C28_2 C27I_2 1_555 1_555
C28E C27E 1_555 1_555
C29_2 C26I_2 1_555 1_555
C29E C26E 1_555 1_555
O5 C1 1_555 1_555
O7 C19 1_555 1_555
O8 C10 1_555 1_555
C6 C7 1_555 1_555
C12 C12I 1_555 1_555
C13 C12I 1_555 1_555
C13 C13I 1_555 1_555
C14 C13I 1_555 1_555
C14 C14I 1_555 1_555
C15 C16 1_555 1_555
C15 C14I 1_555 1_555
C15 C15I 1_555 1_555
C16 C16I 1_555 1_555
C17 C14I 1_555 1_555
Zn1G O4I 1_555 1_555
O4H C23E 1_555 1_555
O5I C1I 1_555 1_555
O5_2 C1_2 1_555 1_555
O7I C19I 1_555 1_555
O7J C19J 1_555 1_555
O8A C10A 1_555 1_555
O8B C10B 1_555 1_555
C5I C8I 1_555 1_555
C6I C7I 1_555 1_555
C6I_2 C7I_2 1_555 1_555
C6_2 C7_2 1_555 1_555
C8I C27I 1_555 1_555
C8_2 C9_2 1_555 1_555
C8H C9E 1_555 1_555
C12I C13I 1_555 1_555
C12A C12J 1_555 1_555
C12J C13A 1_555 1_555
C12J C13J 1_555 1_555
C12B C12K 1_555 1_555
C12K C13B 1_555 1_555
C12K C13K 1_555 1_555
C13I C14I 1_555 1_555
C13A C13J 1_555 1_555
C13J C14A 1_555 1_555
C13J C14J 1_555 1_555
C13B C13K 1_555 1_555
C13K C14B 1_555 1_555
C13K C14K 1_555 1_555
C14I C15I 1_555 1_555
C14A C14J 1_555 1_555
C14A C17A 1_555 1_555
C14J C15A 1_555 1_555
C14J C15J 1_555 1_555
C14J C17A 1_555 1_555
C14B C14K 1_555 1_555
C14K C15B 1_555 1_555
C14K C15K 1_555 1_555
C14K C17B 1_555 1_555
C15I C16I 1_555 1_555
C15A C15J 1_555 1_555
C15A C16A 1_555 1_555
C15J C16J 1_555 1_555
C15B C15K 1_555 1_555
C15B C16B 1_555 1_555
C15K C16K 1_555 1_555
C16A C16J 1_555 1_555
C16B C16K 1_555 1_555
C17B C18A 1_555 1_555
C17B C18B 1_555 1_555
C20F C22F 1_555 1_555
C21I C22C 1_555 1_555
C21J C22D 1_555 1_555
C25I C26I 1_555 1_555
C26_2 C29_2 1_555 1_555
C26H C29E 1_555 1_555
C27_2 C28_2 1_555 1_555
C27H C28E 1_555 1_555
C28_2 C29_2 1_555 1_555
C28E C29E 1_555 1_555

#END
