
#######################################################################
#
#                 Cambridge Crystallographic Data Centre
#                                CCDC 
#
#######################################################################
#
# If this CIF has been generated from an entry in the Cambridge 
# Structural Database, then it will include bibliographic, chemical, 
# crystal, experimental, refinement or atomic coordinate data resulting 
# from the CCDC's data processing and validation procedures.
#
#######################################################################

data_ISOJOQ
_chemical_formula_moiety         '(C20 H28 In1 O8)n'
_chemical_name_systematic        catena-[bis(\m~2~-D-Camphorato)-indium]
_symmetry_cell_setting           tetragonal
_symmetry_space_group_name_H-M   'P 43 21 2'
_symmetry_Int_Tables_number      96
_space_group_name_Hall           'P 4nw 2abw'
loop_
_symmetry_equiv_pos_site_id
_symmetry_equiv_pos_as_xyz
1 x,y,z
2 1/2-y,1/2+x,3/4+z
3 -x,-y,1/2+z
4 1/2+y,1/2-x,1/4+z
5 1/2+x,1/2-y,1/4-z
6 y,x,-z
7 1/2-x,1/2+y,3/4-z
8 -y,-x,1/2-z
_cell_length_a                   13.8954(15)
_cell_length_b                   13.8954(15)
_cell_length_c                   17.787(2)
_cell_angle_alpha                90
_cell_angle_beta                 90
_cell_angle_gamma                90
_cell_volume                     3434.35
_exptl_crystal_colour            colorless
_exptl_crystal_description       block
_cell_formula_units_Z            4
loop_
_atom_site_label
_atom_site_type_symbol
_atom_site_fract_x
_atom_site_fract_y
_atom_site_fract_z
_atom_site_U_iso_or_equiv
_atom_site_thermal_displace_type
C1 C 0.2825(9) 0.2678(9) 0.3201(6) 0.0553 Uani
C2 C 0.2923(8) 0.1645(8) 0.3414(7) 0.0487 Uani
C3 C 0.4007(10) 0.1654(9) 0.3742(8) 0.0740 Uani
H1 H 0.4000 0.1778 0.4279 0.0890 Uiso
H2 H 0.4316 0.1038 0.3655 0.0890 Uiso
C4 C 0.4521(9) 0.2412(10) 0.3353(9) 0.0847 Uani
H3 H 0.5061 0.2144 0.3079 0.1020 Uiso
H4 H 0.4765 0.2877 0.3712 0.1020 Uiso
C5 C 0.3812(8) 0.2916(8) 0.2794(7) 0.0603 Uani
H5 H 0.3835 0.2591 0.2305 0.0720 Uiso
C6 C 0.2165(11) 0.1341(8) 0.4006(8) 0.0573 Uani
C7 C 0.2824(12) 0.0984(12) 0.2784(8) 0.1233 Uani
H6 H 0.2887 0.0334 0.2960 0.1850 Uiso
H7 H 0.3317 0.1114 0.2419 0.1850 Uiso
H8 H 0.2203 0.1067 0.2556 0.1850 Uiso
C8 C 0.1997(11) 0.2901(12) 0.2714(10) 0.1187 Uani
H9 H 0.2020 0.2504 0.2273 0.1780 Uiso
H10 H 0.2022 0.3567 0.2569 0.1780 Uiso
H11 H 0.1411 0.2779 0.2983 0.1780 Uiso
C9 C 0.2646(10) 0.3385(10) 0.3805(10) 0.0880 Uani
H12 H 0.2645 0.4022 0.3598 0.1320 Uiso
H13 H 0.3143 0.3334 0.4178 0.1320 Uiso
H14 H 0.2033 0.3256 0.4033 0.1320 Uiso
C10 C 0.4011(9) 0.3990(8) 0.2692(6) 0.0490 Uani
In1 In 0.08733(5) 0.08733(5) 0.5000 0.0393 Uani
O1 O 0.2451(6) 0.1053(6) 0.4646(4) 0.0623 Uani
O2 O 0.1322(6) 0.1350(6) 0.3852(5) 0.0630 Uani
O3 O 0.4510(6) 0.4430(5) 0.3169(5) 0.0630 Uani
O4 O 0.3655(6) 0.4417(6) 0.2145(5) 0.0717 Uani
C1E C 0.2678(9) 0.2825(9) 0.6799(6) 0.0553 Uani
C2E C 0.1645(8) 0.2923(8) 0.6586(7) 0.0487 Uani
C3E C 0.1654(9) 0.4007(10) 0.6258(8) 0.0740 Uani
H1E H 0.1778 0.4000 0.5721 0.0890 Uiso
H2E H 0.1038 0.4316 0.6345 0.0890 Uiso
C4E C 0.2412(10) 0.4521(9) 0.6647(9) 0.0847 Uani
H3E H 0.2144 0.5061 0.6921 0.1020 Uiso
H4E H 0.2877 0.4765 0.6288 0.1020 Uiso
C5E C 0.2916(8) 0.3812(8) 0.7206(7) 0.0603 Uani
H5E H 0.2591 0.3835 0.7695 0.0720 Uiso
C6E C 0.1341(8) 0.2165(11) 0.5994(8) 0.0573 Uani
C7E C 0.0984(12) 0.2824(12) 0.7216(8) 0.1233 Uani
H6E H 0.0334 0.2887 0.7040 0.1850 Uiso
H7E H 0.1114 0.3317 0.7581 0.1850 Uiso
H8E H 0.1067 0.2203 0.7444 0.1850 Uiso
C8E C 0.2901(12) 0.1997(11) 0.7286(10) 0.1187 Uani
H9E H 0.2504 0.2020 0.7727 0.1780 Uiso
H10E H 0.3567 0.2022 0.7431 0.1780 Uiso
H11E H 0.2779 0.1411 0.7017 0.1780 Uiso
C9E C 0.3385(10) 0.2646(10) 0.6195(10) 0.0880 Uani
H12E H 0.4022 0.2645 0.6402 0.1320 Uiso
H13E H 0.3334 0.3143 0.5822 0.1320 Uiso
H14E H 0.3256 0.2033 0.5967 0.1320 Uiso
C10E C 0.3990(8) 0.4011(9) 0.7308(6) 0.0490 Uani
In1A In 0.41267(5) 0.58733(5) 0.2500 0.0393 Uani
In1C In 0.58733(5) 0.41267(5) 0.7500 0.0393 Uani
O1E O 0.1053(6) 0.2451(6) 0.5354(4) 0.0623 Uani
O2E O 0.1350(6) 0.1322(6) 0.6148(5) 0.0630 Uani
O3E O 0.4430(5) 0.4510(6) 0.6831(5) 0.0630 Uani
O3C O -0.0570(5) 0.0490(6) 0.5669(5) 0.0630 Uani
O3F O 0.0490(6) -0.0570(5) 0.4331(5) 0.0630 Uani
O4E O 0.4417(6) 0.3655(6) 0.7855(5) 0.0717 Uani
O4C O -0.0583(6) 0.1345(6) 0.4645(5) 0.0717 Uani
O4F O 0.1345(6) -0.0583(6) 0.5355(5) 0.0717 Uani
loop_
_atom_site_aniso_label
_atom_site_aniso_U_11
_atom_site_aniso_U_22
_atom_site_aniso_U_33
_atom_site_aniso_U_23
_atom_site_aniso_U_13
_atom_site_aniso_U_12
C1 0.058(8) 0.058(9) 0.050(7) -0.003(6) 0.020(6) 0.011(6)
C2 0.052(6) 0.037(6) 0.057(7) 0.003(5) 0.025(6) -0.014(5)
C3 0.067(6) 0.074(6) 0.081(7) 0.024(6) 0.024(6) 0.008(6)
C4 0.065(7) 0.066(7) 0.123(10) 0.016(7) 0.000(7) 0.001(7)
C5 0.054(8) 0.043(7) 0.084(10) -0.002(6) 0.013(6) 0.001(6)
C6 0.082(11) 0.027(6) 0.063(10) -0.006(6) 0.008(9) 0.015(7)
C7 0.168(16) 0.112(13) 0.090(11) -0.049(11) 0.084(11) -0.083(13)
C8 0.103(9) 0.114(9) 0.139(11) 0.009(8) -0.013(8) -0.009(8)
C9 0.062(9) 0.060(8) 0.142(14) -0.020(9) 0.056(9) -0.022(8)
C10 0.050(7) 0.031(7) 0.066(8) 0.014(6) 0.020(7) -0.005(5)
In1 0.0357(4) 0.0357(4) 0.0465(6) -0.0045(4) 0.0045(4) -0.0027(6)
O1 0.064(5) 0.069(6) 0.054(5) 0.025(5) 0.017(4) 0.029(5)
O2 0.048(5) 0.067(6) 0.074(6) -0.016(5) 0.011(5) -0.026(4)
O3 0.096(7) 0.022(4) 0.071(5) 0.003(4) 0.017(5) -0.018(4)
O4 0.074(6) 0.070(7) 0.071(6) 0.030(5) 0.008(5) 0.008(5)
C1E 0.058 0.058 0.05 -0.02 0.003 0.011
C2E 0.037 0.052 0.057 -0.025 -0.003 -0.014
C3E 0.074 0.067 0.081 -0.024 -0.024 0.008
C4E 0.066 0.065 0.123 0 -0.016 0.001
C5E 0.043 0.054 0.084 -0.013 0.002 0.001
C6E 0.027 0.082 0.063 -0.008 0.006 0.015
C7E 0.112 0.168 0.09 -0.084 0.049 -0.083
C8E 0.114 0.103 0.139 0.013 -0.009 -0.009
C9E 0.06 0.062 0.142 -0.056 0.02 -0.022
C10E 0.031 0.05 0.066 -0.02 -0.014 -0.005
In1A 0.0357 0.0357 0.0465 0.0045 0.0045 0.0027
In1C 0.0357 0.0357 0.0465 -0.0045 -0.0045 0.0027
O1E 0.069 0.064 0.054 -0.017 -0.025 0.029
O2E 0.067 0.048 0.074 -0.011 0.016 -0.026
O3E 0.022 0.096 0.071 -0.017 -0.003 -0.018
O3C 0.022 0.096 0.071 -0.017 0.003 0.018
O3F 0.096 0.022 0.071 -0.003 0.017 0.018
O4E 0.07 0.074 0.071 -0.008 -0.03 0.008
O4C 0.07 0.074 0.071 -0.008 0.03 -0.008
O4F 0.074 0.07 0.071 -0.03 0.008 -0.008
loop_
_geom_bond_atom_site_label_1
_geom_bond_atom_site_label_2
_geom_bond_site_symmetry_1
_geom_bond_site_symmetry_2
C1 C2 1_555 1_555
C2 C3 1_555 1_555
C3 H1 1_555 1_555
H2 C3 1_555 1_555
C4 C3 1_555 1_555
H3 C4 1_555 1_555
H4 C4 1_555 1_555
C5 C1 1_555 1_555
H5 C5 1_555 1_555
C6 C2 1_555 1_555
C7 C2 1_555 1_555
H6 C7 1_555 1_555
H7 C7 1_555 1_555
H8 C7 1_555 1_555
C8 C1 1_555 1_555
H9 C8 1_555 1_555
H10 C8 1_555 1_555
H11 C8 1_555 1_555
C9 C1 1_555 1_555
H12 C9 1_555 1_555
H13 C9 1_555 1_555
H14 C9 1_555 1_555
C10 C5 1_555 1_555
In1 O1 1_555 1_555
O1 C6 1_555 1_555
O2 C6 1_555 1_555
O3 C10 1_555 1_555
O4 C10 1_555 1_555
C1E C2E 1_555 1_555
C2E C3E 1_555 1_555
C3E H1E 1_555 1_555
H2E C3E 1_555 1_555
C4E C3E 1_555 1_555
H3E C4E 1_555 1_555
H4E C4E 1_555 1_555
C5E C1E 1_555 1_555
H5E C5E 1_555 1_555
C6E C2E 1_555 1_555
C7E C2E 1_555 1_555
H6E C7E 1_555 1_555
H7E C7E 1_555 1_555
H8E C7E 1_555 1_555
C8E C1E 1_555 1_555
H9E C8E 1_555 1_555
H10E C8E 1_555 1_555
H11E C8E 1_555 1_555
C9E C1E 1_555 1_555
H12E C9E 1_555 1_555
H13E C9E 1_555 1_555
H14E C9E 1_555 1_555
C10E C5E 1_555 1_555
In1A O3 1_555 1_555
In1C O3E 1_555 1_555
O1E In1 1_555 1_555
O2E In1 1_555 1_555
O3E C10E 1_555 1_555
O3C In1 1_555 1_555
O3F In1 1_555 1_555
O4E C10E 1_555 1_555
O4C In1 1_555 1_555
O4F In1 1_555 1_555
C4 C5 1_555 1_555
In1 O2 1_555 1_555
O4 In1A 1_555 1_555
C4E C5E 1_555 1_555
C6E O1E 1_555 1_555
C6E O2E 1_555 1_555
In1C O4E 1_555 1_555

#END
