
#######################################################################
#
#                 Cambridge Crystallographic Data Centre
#                                CCDC 
#
#######################################################################
#
# If this CIF has been generated from an entry in the Cambridge 
# Structural Database, then it will include bibliographic, chemical, 
# crystal, experimental, refinement or atomic coordinate data resulting 
# from the CCDC's data processing and validation procedures.
#
#######################################################################

data_AMAFUQ
_chemical_formula_moiety         '(C10 H6 Cu1 N4 O4)n'
_chemical_name_systematic        
'catena-(bis(\m~2~-pyrimidine-5-carboxylato)-copper unknown solvate)'
_symmetry_cell_setting           rhombohedral
_symmetry_space_group_name_H-M   'R -3'
_symmetry_Int_Tables_number      148
_space_group_name_Hall           '-R 3'
loop_
_symmetry_equiv_pos_site_id
_symmetry_equiv_pos_as_xyz
1 x,y,z
2 -y,x-y,z
3 -x+y,-x,z
4 2/3+x,1/3+y,1/3+z
5 2/3-y,1/3+x-y,1/3+z
6 2/3-x+y,1/3-x,1/3+z
7 1/3+x,2/3+y,2/3+z
8 1/3-y,2/3+x-y,2/3+z
9 1/3-x+y,2/3-x,2/3+z
10 -x,-y,-z
11 y,-x+y,-z
12 x-y,x,-z
13 1/3-x,2/3-y,2/3-z
14 1/3+y,2/3-x+y,2/3-z
15 1/3+x-y,2/3+x,2/3-z
16 2/3-x,1/3-y,1/3-z
17 2/3+y,1/3-x+y,1/3-z
18 2/3+x-y,1/3+x,1/3-z
_cell_length_a                   21.593(3)
_cell_length_b                   21.593(3)
_cell_length_c                   7.7402(13)
_cell_angle_alpha                90
_cell_angle_beta                 90
_cell_angle_gamma                120
_cell_volume                     3125.42
_exptl_crystal_colour            purple
_exptl_crystal_description       'hexagonal column'
_cell_formula_units_Z            9
loop_
_atom_site_label
_atom_site_type_symbol
_atom_site_fract_x
_atom_site_fract_y
_atom_site_fract_z
_atom_site_U_iso_or_equiv
_atom_site_thermal_displace_type
Cu1 Cu 0.0000 0.5000 0.5000 0.0241 Uani
O1 O 0.14985(16) 0.79367(14) 0.0633(3) 0.0284 Uani
O2 O 0.0938(2) 0.6815(2) -0.0352(4) 0.0572 Uani
N1 N 0.06917(18) 0.60435(17) 0.4623(4) 0.0269 Uani
N2 N 0.1587(2) 0.7187(2) 0.5567(4) 0.0388 Uani
C1 C 0.0733(2) 0.63037(19) 0.3021(4) 0.0250 Uani
H1 H 0.0436 0.5992 0.2136 0.0300 Uiso
C2 C 0.1629(2) 0.7437(2) 0.3952(5) 0.0315 Uani
H2 H 0.1967 0.7923 0.3713 0.0380 Uiso
C3 C 0.1196(2) 0.7010(2) 0.2633(4) 0.0256 Uani
C4 C 0.1207(2) 0.7261(2) 0.0802(4) 0.0294 Uani
C5 C 0.1114(2) 0.6506(2) 0.5830(4) 0.0321 Uani
H3 H 0.1070 0.6329 0.6974 0.0380 Uiso
Cu1D Cu 0.1667 0.8333 -0.1667 0.0241 Uani
Cu1G Cu -0.1667 0.1667 1.1667 0.0241 Uani
O1I O -0.14985(16) 0.20633(14) 0.9367(3) 0.0284 Uani
O1H O -0.02285(21) 0.51682(16) 0.7300(3) 0.0284 Uani
O1Q O 0.02285(21) 0.48318(16) 0.2700(3) 0.0284 Uani
O2I O -0.0938(2) 0.3185(2) 1.0352(4) 0.0572 Uani
N1I N -0.06917(18) 0.39565(17) 0.5377(4) 0.0269 Uani
N2I N -0.1587(2) 0.2813(2) 0.4433(4) 0.0388 Uani
C1I C -0.0733(2) 0.36963(19) 0.6979(4) 0.0250 Uani
H1I H -0.0436 0.4008 0.7864 0.0300 Uiso
C2I C -0.1629(2) 0.2563(2) 0.6048(5) 0.0315 Uani
H2I H -0.1967 0.2077 0.6287 0.0380 Uiso
C3I C -0.1196(2) 0.2990(2) 0.7367(4) 0.0256 Uani
C4I C -0.1207(2) 0.2739(2) 0.9198(4) 0.0294 Uani
C5I C -0.1114(2) 0.3494(2) 0.4170(4) 0.0321 Uani
H3I H -0.1070 0.3671 0.3026 0.0380 Uiso
loop_
_atom_site_aniso_label
_atom_site_aniso_U_11
_atom_site_aniso_U_22
_atom_site_aniso_U_33
_atom_site_aniso_U_23
_atom_site_aniso_U_13
_atom_site_aniso_U_12
Cu1 0.0462(4) 0.0209(3) 0.0101(3) 0.0010(2) 0.0055(2) 0.0205(3)
O1 0.0272 0.0283 0.0128 0.0066 -0.001 0.0012
O2 0.105 0.04 0.0143 -0.0028 -0.0051 0.027
N1 0.0436(19) 0.0271(16) 0.0135(13) 0.0031(11) 0.0031(12) 0.0204(15)
N2 0.047(2) 0.0386(19) 0.0154(15) 0.0031(13) -0.0063(14) 0.0099(17)
C1 0.039(2) 0.0259(18) 0.0117(15) -0.0004(13) 0.0007(13) 0.0175(16)
C2 0.036(2) 0.032(2) 0.0165(16) 0.0014(14) -0.0022(15) 0.0094(17)
C3 0.035(2) 0.0279(18) 0.0120(15) 0.0035(13) 0.0026(13) 0.0143(16)
C4 0.038 0.0314 0.014 0.0026 0.0028 0.0137
C5 0.047(2) 0.032(2) 0.0134(15) 0.0016(14) -0.0009(15) 0.0169(18)
Cu1D 0.0209 0.0261 0.0101 0.0045 -0.001 0.0004
Cu1G 0.0209 0.0261 0.0101 0.0045 -0.001 0.0004
O1I 0.0272 0.0283 0.0128 0.0066 -0.001 0.0012
O1H 0.0531 0.0272 0.0128 0.001 0.0076 0.026
O1Q 0.0531 0.0272 0.0128 0.001 0.0076 0.026
O2I 0.105 0.04 0.0143 -0.0028 -0.0051 0.027
N1I 0.0436 0.0271 0.0135 0.0031 0.0031 0.0204
N2I 0.047 0.0386 0.0154 0.0031 -0.0063 0.0099
C1I 0.039 0.0259 0.0117 -0.0004 0.0007 0.0175
C2I 0.036 0.032 0.0165 0.0014 -0.0022 0.0094
C3I 0.035 0.0279 0.012 0.0035 0.0026 0.0143
C4I 0.038 0.0314 0.014 0.0026 0.0028 0.0137
C5I 0.047 0.032 0.0134 0.0016 -0.0009 0.0169
loop_
_geom_bond_atom_site_label_1
_geom_bond_atom_site_label_2
_geom_bond_site_symmetry_1
_geom_bond_site_symmetry_2
Cu1 N1 1_555 1_555
O1 C4 1_555 1_555
O2 C4 1_555 1_555
N1 C1 1_555 1_555
N2 C2 1_555 1_555
C1 H1 1_555 1_555
C2 H2 1_555 1_555
C3 C1 1_555 1_555
C4 C3 1_555 1_555
C5 N1 1_555 1_555
H3 C5 1_555 1_555
Cu1D O1 1_555 1_555
Cu1G O1I 1_555 1_555
O1I C4I 1_555 1_555
O1H Cu1 1_555 1_555
O1Q Cu1 1_555 1_555
O2I C4I 1_555 1_555
N1I Cu1 1_555 1_555
N2I C2I 1_555 1_555
C1I N1I 1_555 1_555
H1I C1I 1_555 1_555
C2I H2I 1_555 1_555
C3I C1I 1_555 1_555
C4I C3I 1_555 1_555
C5I N1I 1_555 1_555
H3I C5I 1_555 1_555
N2 C5 1_555 1_555
C2 C3 1_555 1_555
N2I C5I 1_555 1_555
C2I C3I 1_555 1_555

#END
