
#######################################################################
#
#                 Cambridge Crystallographic Data Centre
#                                CCDC 
#
#######################################################################
#
# If this CIF has been generated from an entry in the Cambridge 
# Structural Database, then it will include bibliographic, chemical, 
# crystal, experimental, refinement or atomic coordinate data resulting 
# from the CCDC's data processing and validation procedures.
#
#######################################################################

data_KUJNOT
_chemical_formula_moiety         '(C52 H36 N18 O10 Zn5)n,7n(C4 H9 N1 O1)'
_chemical_name_systematic        
'catena-(hexakis(\m~3~-Benzotriazolato)-bis(\m~2~-benzene-1,4-dicarboxylato)-diaqua-penta-zinc N,N-dimethylacetamide solvate)'
_symmetry_cell_setting           tetragonal
_symmetry_space_group_name_H-M   'I 41/a'
_symmetry_Int_Tables_number      88
_space_group_name_Hall           '-I 4ad'
loop_
_symmetry_equiv_pos_site_id
_symmetry_equiv_pos_as_xyz
1 x,y,z
2 -x,1/2-y,z
3 3/4-y,1/4+x,1/4+z
4 1/4+y,1/4-x,1/4+z
5 1/2+x,1/2+y,1/2+z
6 1/2-x,-y,1/2+z
7 1/4-y,3/4+x,3/4+z
8 3/4+y,3/4-x,3/4+z
9 -x,-y,-z
10 x,1/2+y,-z
11 1/4+y,3/4-x,3/4-z
12 3/4-y,3/4+x,3/4-z
13 1/2-x,1/2-y,1/2-z
14 1/2+x,y,1/2-z
15 3/4+y,1/4-x,1/4-z
16 1/4-y,1/4+x,1/4-z
_cell_length_a                   30.048(5)
_cell_length_b                   30.048(5)
_cell_length_c                   37.908(5)
_cell_angle_alpha                90
_cell_angle_beta                 90
_cell_angle_gamma                90
_cell_volume                     34226.5
_exptl_crystal_colour            colorless
_exptl_crystal_description       block
_cell_formula_units_Z            16
loop_
_atom_site_label
_atom_site_type_symbol
_atom_site_fract_x
_atom_site_fract_y
_atom_site_fract_z
_atom_site_U_iso_or_equiv
_atom_site_thermal_displace_type
Zn1 Zn 0.663636(17) 0.055031(17) 0.125198(16) 0.0426 Uani
Zn2 Zn 0.67406(2) -0.040238(18) 0.069018(16) 0.0576 Uani
Zn3 Zn 0.569706(19) 0.03982(2) 0.182095(17) 0.0599 Uani
Zn4 Zn 0.64483(2) 0.152142(19) 0.071470(17) 0.0678 Uani
Zn5 Zn 0.762555(19) 0.06888(2) 0.178921(17) 0.0690 Uani
C1 C 0.65183(15) -0.22609(14) -0.02758(13) 0.0790 Uani
C2 C 0.66450(16) -0.22873(13) 0.00682(13) 0.1237 Uani
H1 H 0.6694 -0.2564 0.0171 0.1480 Uiso
C3 C 0.66997(16) -0.19107(17) 0.02609(11) 0.1243 Uani
H2 H 0.6787 -0.1929 0.0496 0.1490 Uiso
C4 C 0.66273(15) -0.15080(14) 0.01101(14) 0.0833 Uani
C5 C 0.65005(16) -0.14817(13) -0.02339(14) 0.1370 Uani
H3 H 0.6451 -0.1205 -0.0337 0.1640 Uiso
C6 C 0.64460(16) -0.18582(18) -0.04267(10) 0.1217 Uani
H4 H 0.6359 -0.1840 -0.0662 0.1460 Uiso
C7 C 0.6459(3) -0.2684(2) -0.0486(2) 0.0930 Uani
C8 C 0.6697(3) -0.1080(3) 0.0328(2) 0.1010 Uani
C9 C 0.46115(13) 0.04909(15) 0.24244(13) 0.0790 Uani
C10 C 0.45998(13) 0.06846(16) 0.27488(13) 0.1350 Uani
H5 H 0.4860 0.0793 0.2850 0.1620 Uiso
C11 C 0.42084(17) 0.07198(16) 0.29257(10) 0.1323 Uani
H6 H 0.4201 0.0852 0.3147 0.1590 Uiso
C12 C 0.38285(13) 0.05611(15) 0.27780(12) 0.0727 Uani
C13 C 0.38400(14) 0.03674(14) 0.24536(12) 0.1090 Uani
H7 H 0.3579 0.0259 0.2353 0.1310 Uiso
C14 C 0.42315(17) 0.03321(14) 0.22768(10) 0.1117 Uani
H8 H 0.4239 0.0200 0.2055 0.1340 Uiso
C15 C 0.5040(3) 0.0458(3) 0.2216(2) 0.0983 Uani
C16 C 0.3388(2) 0.0611(2) 0.29724(19) 0.0803 Uani
C17 C 0.73257(13) 0.17870(15) 0.11360(11) 0.0707 Uani
C18 C 0.75984(16) 0.15761(12) 0.13752(12) 0.0727 Uani
C19 C 0.79790(15) 0.17824(17) 0.14922(12) 0.1070 Uani
H9 H 0.8163 0.1640 0.1654 0.1280 Uiso
C20 C 0.80872(15) 0.21993(18) 0.13701(15) 0.1463 Uani
H10 H 0.8345 0.2339 0.1449 0.1750 Uiso
C21 C 0.78146(19) 0.24100(13) 0.11309(15) 0.1507 Uani
H11 H 0.7888 0.2692 0.1048 0.1810 Uiso
C22 C 0.74338(17) 0.22039(15) 0.10139(12) 0.1043 Uani
H12 H 0.7250 0.2346 0.0852 0.1250 Uiso
C23 C 0.56651(16) -0.04844(13) 0.13931(12) 0.0770 Uani
C24 C 0.59234(14) -0.06800(16) 0.11306(12) 0.0770 Uani
C25 C 0.58269(17) -0.11077(17) 0.10144(12) 0.1363 Uani
H13 H 0.6000 -0.1238 0.0839 0.1640 Uiso
C26 C 0.5472(2) -0.13399(15) 0.11604(16) 0.2027 Uani
H14 H 0.5407 -0.1626 0.1083 0.2430 Uiso
C27 C 0.52137(16) -0.11445(18) 0.14229(15) 0.1790 Uani
H15 H 0.4976 -0.1300 0.1521 0.2150 Uiso
C28 C 0.53104(15) -0.07168(18) 0.15391(12) 0.1173 Uani
H16 H 0.5138 -0.0586 0.1714 0.1410 Uiso
C29 C 0.55602(14) 0.14815(18) 0.11374(15) 0.0927 Uani
C30 C 0.53791(18) 0.12138(15) 0.13961(14) 0.0997 Uani
C31 C 0.49477(19) 0.12821(19) 0.15064(15) 0.1470 Uani
H17 H 0.4825 0.1102 0.1681 0.1760 Uiso
C32 C 0.46973(15) 0.1618(2) 0.1358(2) 0.2320 Uani
H18 H 0.4406 0.1664 0.1432 0.2800 Uiso
C33 C 0.4879(2) 0.18852(17) 0.10993(19) 0.1910 Uani
H19 H 0.4709 0.2112 0.0999 0.2290 Uiso
C34 C 0.5310(2) 0.18171(17) 0.09890(15) 0.1600 Uani
H20 H 0.5432 0.1997 0.0815 0.1920 Uiso
C35 C 0.78625(16) -0.01833(13) 0.13331(11) 0.0673 Uani
C36 C 0.76429(13) -0.04476(15) 0.10934(11) 0.0620 Uani
C37 C 0.78436(17) -0.08248(14) 0.09645(11) 0.0973 Uani
H21 H 0.7695 -0.1004 0.0802 0.1170 Uiso
C38 C 0.82638(18) -0.09378(14) 0.10753(14) 0.1330 Uani
H22 H 0.8400 -0.1193 0.0988 0.1590 Uiso
C39 C 0.84833(13) -0.06735(19) 0.13150(14) 0.1403 Uani
H23 H 0.8768 -0.0750 0.1390 0.1680 Uiso
C40 C 0.82828(16) -0.02963(17) 0.14439(11) 0.1047 Uani
H24 H 0.8431 -0.0118 0.1606 0.1250 Uiso
C41 C 0.64669(12) 0.03931(11) 0.23691(9) 0.0527 Uani
C42 C 0.69211(12) 0.04518(11) 0.23521(9) 0.0490 Uani
C43 C 0.71722(11) 0.04353(11) 0.26567(11) 0.0643 Uani
H25 H 0.7479 0.0475 0.2645 0.0770 Uiso
C44 C 0.69697(15) 0.03603(12) 0.29785(9) 0.0790 Uani
H26 H 0.7140 0.0350 0.3183 0.0950 Uiso
C45 C 0.65157(15) 0.03015(12) 0.29953(9) 0.0817 Uani
H27 H 0.6379 0.0251 0.3212 0.0980 Uiso
C46 C 0.62643(11) 0.03180(11) 0.26905(11) 0.0743 Uani
H28 H 0.5958 0.0278 0.2702 0.0890 Uiso
C47 C 0.67336(11) 0.03597(12) 0.01333(9) 0.0477 Uani
C48 C 0.66736(11) 0.08149(12) 0.01444(9) 0.0523 Uani
C49 C 0.66877(11) 0.10606(11) -0.01630(11) 0.0743 Uani
H29 H 0.6647 0.1367 -0.0155 0.0890 Uiso
C50 C 0.67618(12) 0.08510(15) -0.04818(9) 0.0793 Uani
H30 H 0.6771 0.1017 -0.0689 0.0950 Uiso
C51 C 0.68219(12) 0.03959(15) -0.04929(9) 0.0787 Uani
H31 H 0.6872 0.0255 -0.0708 0.0940 Uiso
C52 C 0.68078(11) 0.01502(11) -0.01855(11) 0.0653 Uani
H32 H 0.6848 -0.0157 -0.0193 0.0790 Uiso
N1 N 0.74304(14) 0.11649(13) 0.14445(10) 0.0543 Uani
N2 N 0.70617(14) 0.11310(13) 0.12575(10) 0.0483 Uani
N3 N 0.58439(14) -0.00890(14) 0.14624(11) 0.0563 Uani
N4 N 0.69881(14) 0.14995(14) 0.10667(10) 0.0577 Uani
N5 N 0.61903(13) -0.00376(13) 0.12475(11) 0.0467 Uani
N6 N 0.62357(14) -0.03888(14) 0.10390(11) 0.0623 Uani
N7 N 0.56911(15) 0.09068(14) 0.14828(12) 0.0670 Uani
N8 N 0.60353(14) 0.09836(13) 0.12777(11) 0.0530 Uani
N9 N 0.59743(15) 0.13327(14) 0.10692(12) 0.0663 Uani
N10 N 0.72447(14) -0.02628(14) 0.10328(10) 0.0527 Uani
N11 N 0.72263(13) 0.01058(13) 0.12306(10) 0.0463 Uani
N12 N 0.75947(14) 0.01630(14) 0.14162(10) 0.0560 Uani
N13 N 0.63049(13) 0.04284(13) 0.20381(10) 0.0530 Uani
N14 N 0.66562(13) 0.05042(12) 0.18270(10) 0.0447 Uani
N15 N 0.70280(13) 0.05193(13) 0.20125(10) 0.0490 Uani
N16 N 0.67037(13) 0.02107(12) 0.04692(10) 0.0477 Uani
N17 N 0.66326(12) 0.05602(13) 0.06752(10) 0.0443 Uani
N18 N 0.66065(13) 0.09292(13) 0.04841(10) 0.0493 Uani
O1 O 0.6295(2) -0.26760(16) -0.07832(14) 0.1387 Uani
O2 O 0.65922(18) -0.30385(14) -0.03479(12) 0.1153 Uani
O3 O 0.6559(3) -0.07348(15) 0.02215(14) 0.1917 Uani
O4 O 0.6852(2) -0.11016(19) 0.06192(18) 0.1570 Uani
O5 O 0.50649(17) 0.02320(17) 0.19530(16) 0.1380 Uani
O6 O 0.53674(16) 0.0681(2) 0.23087(14) 0.1623 Uani
O7 O 0.30501(14) 0.04391(17) 0.28413(11) 0.1083 Uani
O8 O 0.33645(15) 0.08106(18) 0.32446(14) 0.1233 Uani
O9 O 0.75933(17) 0.12894(16) 0.21995(14) 0.1593 Uani
O10 O 0.5818(2) 0.1469(2) 0.03412(18) 0.2377 Uani
Zn4I Zn 0.64483(2) -0.347858(19) -0.071470(17) 0.0678 Uani
Zn5M Zn 0.262555(19) 0.06888(2) 0.321079(17) 0.0690 Uani
O1I O 0.6295(2) 0.23240(16) 0.07832(14) 0.1387 Uani
O2I O 0.65922(18) 0.19615(14) 0.03479(12) 0.1153 Uani
O7M O 0.80501(14) 0.04391(17) 0.21587(11) 0.1083 Uani
O8M O 0.83645(15) 0.08106(18) 0.17554(14) 0.1233 Uani
loop_
_atom_site_aniso_label
_atom_site_aniso_U_11
_atom_site_aniso_U_22
_atom_site_aniso_U_33
_atom_site_aniso_U_23
_atom_site_aniso_U_13
_atom_site_aniso_U_12
Zn1 0.0476(4) 0.0430(4) 0.0373(3) 0.0003(3) 0.0001(3) -0.0006(4)
Zn2 0.0845(5) 0.0406(4) 0.0477(4) -0.0035(3) 0.0030(4) 0.0037(3)
Zn3 0.0449(4) 0.0760(5) 0.0589(4) -0.0032(4) 0.0099(3) -0.0078(4)
Zn4 0.1025(6) 0.0407(4) 0.0601(5) 0.0087(3) 0.0079(4) 0.0070(4)
Zn5 0.0449(4) 0.1052(6) 0.0570(5) 0.0190(4) -0.0059(3) -0.0107(4)
C1 0.112 0.046 0.079 -0.019 0.005 -0.005
C2 0.235 0.044 0.092 -0.014 -0.055 0.018
C3 0.205 0.066 0.102 -0.026 -0.058 0.029
C4 0.105 0.055 0.09 -0.032 0.018 -0.004
C5 0.289 0.05 0.072 0.002 0.021 0
C6 0.229 0.062 0.074 -0.004 -0.003 -0.009
C7 0.134 0.061 0.084 -0.023 0.027 -0.014
C8 0.126 0.076 0.101 -0.039 0.043 -0.002
C9 0.037(4) 0.111(5) 0.089(5) 0.009(4) 0.021(4) 0.007(4)
C10 0.059(5) 0.259(10) 0.087(6) -0.021(6) 0.015(4) -0.039(6)
C11 0.062(5) 0.270(10) 0.065(5) -0.039(5) 0.021(4) -0.033(6)
C12 0.045(4) 0.111(5) 0.062(4) 0.012(4) 0.012(3) -0.003(4)
C13 0.065(5) 0.169(7) 0.093(6) -0.025(5) 0.032(4) -0.040(5)
C14 0.090(5) 0.158(7) 0.087(5) -0.040(5) 0.045(5) -0.041(5)
C15 0.076(6) 0.120(7) 0.099(7) 0.032(5) 0.039(5) 0.011(5)
C16 0.059(5) 0.111(6) 0.071(5) 0.021(4) 0.020(4) 0.008(4)
C17 0.083(5) 0.054(4) 0.075(5) -0.009(3) 0.011(4) -0.026(4)
C18 0.065(4) 0.076(5) 0.077(5) -0.016(4) -0.003(4) -0.026(4)
C19 0.088(5) 0.109(6) 0.124(6) 0.017(5) -0.016(5) -0.037(5)
C20 0.141(8) 0.105(7) 0.193(10) 0.031(6) -0.044(7) -0.076(6)
C21 0.154(9) 0.099(6) 0.199(10) 0.010(6) -0.010(7) -0.089(6)
C22 0.130(7) 0.050(4) 0.133(7) 0.011(4) -0.002(5) -0.019(4)
C23 0.066(5) 0.082(5) 0.083(5) -0.009(4) 0.013(4) -0.028(4)
C24 0.082(5) 0.071(5) 0.078(5) -0.021(4) 0.009(4) -0.032(4)
C25 0.171(8) 0.118(7) 0.120(7) -0.039(5) 0.063(6) -0.076(6)
C26 0.268(13) 0.130(8) 0.210(11) -0.085(7) 0.121(9) -0.129(8)
C27 0.181(9) 0.142(8) 0.214(10) -0.082(7) 0.082(8) -0.121(7)
C28 0.121(6) 0.127(6) 0.104(6) -0.021(5) 0.040(5) -0.064(5)
C29 0.064(5) 0.063(5) 0.151(7) 0.011(4) 0.004(5) 0.033(4)
C30 0.067(5) 0.076(5) 0.156(8) 0.008(5) 0.035(5) 0.009(4)
C31 0.085(6) 0.127(7) 0.229(10) 0.041(7) 0.065(6) 0.028(5)
C32 0.146(9) 0.130(9) 0.42(2) 0.077(10) 0.086(11) 0.066(8)
C33 0.117(8) 0.116(8) 0.340(16) 0.074(8) 0.008(9) 0.050(7)
C34 0.109(7) 0.104(7) 0.267(12) 0.061(7) 0.026(7) 0.037(6)
C35 0.056(4) 0.090(5) 0.056(4) 0.010(4) -0.001(3) 0.025(4)
C36 0.068(4) 0.064(4) 0.054(4) 0.004(3) 0.007(3) 0.027(4)
C37 0.124(6) 0.090(5) 0.078(5) -0.004(4) 0.003(5) 0.052(5)
C38 0.121(7) 0.132(7) 0.146(8) -0.010(6) -0.017(6) 0.076(6)
C39 0.102(6) 0.186(10) 0.133(8) -0.027(7) -0.038(6) 0.074(6)
C40 0.090(6) 0.137(7) 0.087(6) -0.022(5) -0.007(4) 0.035(5)
C41 0.073(4) 0.056(3) 0.029(3) -0.002(3) 0.007(3) -0.005(3)
C42 0.053(4) 0.055(3) 0.039(4) 0.001(3) 0.003(3) 0.000(3)
C43 0.067(4) 0.075(4) 0.051(4) 0.003(3) -0.005(3) 0.003(3)
C44 0.091(5) 0.102(5) 0.044(4) 0.011(3) -0.009(4) 0.011(4)
C45 0.112(6) 0.097(5) 0.036(4) 0.008(3) 0.013(4) 0.006(4)
C46 0.073(4) 0.085(4) 0.065(4) 0.004(4) 0.024(4) -0.005(3)
C47 0.060(4) 0.045(3) 0.038(3) -0.002(3) -0.005(3) -0.009(3)
C48 0.054(3) 0.062(4) 0.041(4) 0.008(3) -0.006(3) -0.009(3)
C49 0.085(4) 0.076(4) 0.062(4) 0.008(4) -0.003(4) -0.007(3)
C50 0.099(5) 0.095(5) 0.044(4) 0.015(4) 0.001(3) -0.012(4)
C51 0.105(5) 0.091(5) 0.040(4) -0.009(4) 0.006(3) -0.003(4)
C52 0.072(4) 0.067(4) 0.057(4) -0.006(3) -0.002(3) 0.001(3)
N1 0.058(3) 0.057(3) 0.048(3) -0.005(2) -0.003(2) -0.012(3)
N2 0.058(3) 0.046(3) 0.041(3) 0.004(2) 0.003(2) -0.007(2)
N3 0.057(3) 0.059(3) 0.053(3) -0.004(2) -0.003(2) -0.010(3)
N4 0.080(3) 0.044(3) 0.049(3) -0.003(2) 0.004(2) -0.003(3)
N5 0.054(3) 0.044(3) 0.042(3) -0.003(2) 0.000(2) -0.002(2)
N6 0.074(3) 0.047(3) 0.066(3) -0.009(3) 0.004(3) -0.013(3)
N7 0.044(3) 0.068(3) 0.089(4) 0.007(3) 0.024(3) 0.010(3)
N8 0.064(3) 0.039(3) 0.056(3) 0.002(2) -0.003(3) 0.003(2)
N9 0.068(3) 0.046(3) 0.085(4) 0.008(3) 0.006(3) 0.007(3)
N10 0.067(3) 0.050(3) 0.041(3) 0.000(2) 0.000(2) 0.013(3)
N11 0.053(3) 0.054(3) 0.032(3) 0.009(2) 0.001(2) 0.003(2)
N12 0.043(3) 0.079(3) 0.046(3) 0.007(2) -0.005(2) 0.010(3)
N13 0.053(3) 0.065(3) 0.041(3) 0.000(2) 0.009(2) -0.011(2)
N14 0.040(3) 0.055(3) 0.039(3) -0.002(2) -0.001(2) -0.008(2)
N15 0.044(3) 0.065(3) 0.038(3) 0.003(2) -0.001(2) 0.000(2)
N16 0.064(3) 0.041(3) 0.038(3) 0.002(2) -0.008(2) 0.002(2)
N17 0.060(3) 0.034(2) 0.039(3) -0.003(2) -0.006(2) 0.000(2)
N18 0.065(3) 0.043(3) 0.040(3) 0.002(2) -0.003(2) 0.003(2)
O1 0.223 0.091 0.102 -0.041 -0.017 -0.02
O2 0.206 0.045 0.095 -0.028 -0.002 -0.002
O3 0.429 0.04 0.106 -0.02 0.062 0
O4 0.168 0.11 0.193 -0.107 -0.025 0.029
O5 0.118(4) 0.121(4) 0.175(6) -0.021(4) 0.107(4) -0.019(3)
O6 0.056(3) 0.319(8) 0.112(4) -0.003(5) 0.022(3) -0.021(4)
O7 0.047(3) 0.193(5) 0.085(3) 0.023(3) 0.016(3) -0.005(3)
O8 0.090(4) 0.168(5) 0.112(4) -0.032(4) 0.054(3) -0.020(3)
O9 0.158(5) 0.156(5) 0.164(5) 0.010(4) -0.020(4) -0.047(4)
O10 0.224(7) 0.222(7) 0.267(8) 0.066(6) 0.050(6) 0.084(6)
Zn4I 0.1025 0.0407 0.0601 -0.0087 -0.0079 0.007
Zn5M 0.0449 0.1052 0.057 -0.019 0.0059 -0.0107
O1I 0.223(6) 0.091(4) 0.102(4) 0.041(3) 0.017(4) -0.020(4)
O2I 0.206(5) 0.045(3) 0.095(4) 0.028(3) 0.002(3) -0.002(3)
O7M 0.047 0.193 0.085 -0.023 -0.016 -0.005
O8M 0.09 0.168 0.112 0.032 -0.054 -0.02
loop_
_geom_bond_atom_site_label_1
_geom_bond_atom_site_label_2
_geom_bond_site_symmetry_1
_geom_bond_site_symmetry_2
Zn1 N2 1_555 1_555
Zn2 N6 1_555 1_555
Zn3 N3 1_555 1_555
Zn4 N4 1_555 1_555
Zn5 N1 1_555 1_555
C1 C2 1_555 1_555
C2 H1 1_555 1_555
C3 C2 1_555 1_555
H2 C3 1_555 1_555
C4 C3 1_555 1_555
C5 C4 1_555 1_555
H3 C5 1_555 1_555
C6 C1 1_555 1_555
H4 C6 1_555 1_555
C7 C1 1_555 1_555
C8 C4 1_555 1_555
C9 C10 1_555 1_555
C10 H5 1_555 1_555
C11 C10 1_555 1_555
H6 C11 1_555 1_555
C12 C11 1_555 1_555
C13 C12 1_555 1_555
H7 C13 1_555 1_555
C14 C9 1_555 1_555
H8 C14 1_555 1_555
C15 C9 1_555 1_555
C16 C12 1_555 1_555
C17 C18 1_555 1_555
C18 C19 1_555 1_555
C19 H9 1_555 1_555
C20 C19 1_555 1_555
H10 C20 1_555 1_555
C21 C20 1_555 1_555
H11 C21 1_555 1_555
C22 C17 1_555 1_555
H12 C22 1_555 1_555
C23 C24 1_555 1_555
C24 C25 1_555 1_555
C25 H13 1_555 1_555
C26 C25 1_555 1_555
H14 C26 1_555 1_555
C27 C26 1_555 1_555
H15 C27 1_555 1_555
C28 C23 1_555 1_555
H16 C28 1_555 1_555
C29 C30 1_555 1_555
C30 C31 1_555 1_555
C31 H17 1_555 1_555
C32 C31 1_555 1_555
H18 C32 1_555 1_555
C33 C32 1_555 1_555
H19 C33 1_555 1_555
C34 C29 1_555 1_555
H20 C34 1_555 1_555
C35 C36 1_555 1_555
C36 C37 1_555 1_555
C37 H21 1_555 1_555
C38 C37 1_555 1_555
H22 C38 1_555 1_555
C39 C38 1_555 1_555
H23 C39 1_555 1_555
C40 C35 1_555 1_555
H24 C40 1_555 1_555
C41 C42 1_555 1_555
C42 C43 1_555 1_555
C43 H25 1_555 1_555
C44 C43 1_555 1_555
H26 C44 1_555 1_555
C45 C44 1_555 1_555
H27 C45 1_555 1_555
C46 C41 1_555 1_555
H28 C46 1_555 1_555
C47 C48 1_555 1_555
C48 C49 1_555 1_555
C49 H29 1_555 1_555
C50 C49 1_555 1_555
H30 C50 1_555 1_555
C51 C50 1_555 1_555
H31 C51 1_555 1_555
C52 C47 1_555 1_555
H32 C52 1_555 1_555
N1 C18 1_555 1_555
N2 N1 1_555 1_555
N3 C23 1_555 1_555
N4 C17 1_555 1_555
N5 Zn1 1_555 1_555
N6 C24 1_555 1_555
N7 Zn3 1_555 1_555
N8 Zn1 1_555 1_555
N9 Zn4 1_555 1_555
N10 Zn2 1_555 1_555
N11 Zn1 1_555 1_555
N12 Zn5 1_555 1_555
N13 Zn3 1_555 1_555
N14 Zn1 1_555 1_555
N15 Zn5 1_555 1_555
N16 Zn2 1_555 1_555
N17 Zn1 1_555 1_555
N18 Zn4 1_555 1_555
O1 C7 1_555 1_555
O2 C7 1_555 1_555
O3 Zn2 1_555 1_555
O4 Zn2 1_555 1_555
O5 Zn3 1_555 1_555
O6 Zn3 1_555 1_555
O7 C16 1_555 1_555
O8 C16 1_555 1_555
O9 Zn5 1_555 1_555
O10 Zn4 1_555 1_555
Zn4I O1 1_555 1_555
Zn5M O7 1_555 1_555
O1I Zn4 1_555 1_555
O2I Zn4 1_555 1_555
O7M Zn5 1_555 1_555
O8M Zn5 1_555 1_555
C5 C6 1_555 1_555
C8 O3 1_555 1_555
C8 O4 1_555 1_555
C13 C14 1_555 1_555
C15 O5 1_555 1_555
C15 O6 1_555 1_555
C21 C22 1_555 1_555
C27 C28 1_555 1_555
C29 N9 1_555 1_555
C30 N7 1_555 1_555
C33 C34 1_555 1_555
C35 N12 1_555 1_555
C36 N10 1_555 1_555
C39 C40 1_555 1_555
C41 N13 1_555 1_555
C42 N15 1_555 1_555
C45 C46 1_555 1_555
C47 N16 1_555 1_555
C48 N18 1_555 1_555
C51 C52 1_555 1_555
N2 N4 1_555 1_555
N3 N5 1_555 1_555
N5 N6 1_555 1_555
N7 N8 1_555 1_555
N8 N9 1_555 1_555
N10 N11 1_555 1_555
N11 N12 1_555 1_555
N13 N14 1_555 1_555
N14 N15 1_555 1_555
N16 N17 1_555 1_555
N17 N18 1_555 1_555
O2 Zn4I 1_555 1_555
O8 Zn5M 1_555 1_555

#END
