
#######################################################################
#
#                 Cambridge Crystallographic Data Centre
#                                CCDC 
#
#######################################################################
#
# If this CIF has been generated from an entry in the Cambridge 
# Structural Database, then it will include bibliographic, chemical, 
# crystal, experimental, refinement or atomic coordinate data resulting 
# from the CCDC's data processing and validation procedures.
#
#######################################################################

data_RAYKOT
_chemical_formula_moiety         '(C32 H22 N4 O7 Zn1)n'
_chemical_name_systematic        
catena-[(\m~2~-N,N'-Di(pyridin-4-yl)biphenyl-4,4'-dicarboxamido)-(\m~2~-5-hydroxyisophthalato)-zinc]
_symmetry_cell_setting           hexagonal
_symmetry_space_group_name_H-M   'P 64 2 2'
_symmetry_Int_Tables_number      181
_space_group_name_Hall           'P 64 2 (0 0 2)'
loop_
_symmetry_equiv_pos_site_id
_symmetry_equiv_pos_as_xyz
1 x,y,z
2 -y,x-y,1/3+z
3 -x+y,-x,2/3+z
4 -x,-y,z
5 y,-x+y,1/3+z
6 x-y,x,2/3+z
7 y,x,1/3-z
8 x-y,-y,-z
9 -x,-x+y,2/3-z
10 -y,-x,1/3-z
11 -x+y,y,-z
12 x,x-y,2/3-z
_cell_length_a                   16.5764(2)
_cell_length_b                   16.5764(2)
_cell_length_c                   25.3058(5)
_cell_angle_alpha                90
_cell_angle_beta                 90
_cell_angle_gamma                120
_cell_volume                     6021.87
_exptl_crystal_colour            colorless
_exptl_crystal_description       block
_cell_formula_units_Z            6
loop_
_atom_site_label
_atom_site_type_symbol
_atom_site_fract_x
_atom_site_fract_y
_atom_site_fract_z
_atom_site_U_iso_or_equiv
_atom_site_thermal_displace_type
C1 C 0.3969(2) 1.03587(19) 0.11991(13) 0.0581 Uani
C2 C 0.2587(2) 0.5855(2) 0.09645(14) 0.0649 Uani
C3 C 0.3957(2) 1.0119(2) 0.17044(14) 0.0704 Uani
H1 H 0.4173 1.0572 0.1967 0.0840 Uiso
C4 C 0.4896(2) 1.45253(19) 0.05586(14) 0.0670 Uani
C5 C 0.2518(2) 0.5358(2) 0.04620(15) 0.0760 Uani
C6 C 0.4455(2) 1.2649(2) 0.06108(14) 0.0728 Uani
C7 C 0.29152(15) 0.5830(3) 0.0000 0.0618 Uani
H2 H 0.3239 0.6478 0.0000 0.0740 Uiso
C8 C 0.3417(3) 0.8778(2) 0.09813(14) 0.0857 Uani
H3 H 0.3280 0.8333 0.0720 0.1030 Uiso
C9 C 0.4267(5) 1.3017(3) 0.0197(2) 0.2114 Uani
H4 H 0.3980 1.2637 -0.0094 0.2540 Uiso
C10 C 0.3619(3) 0.9185(3) 0.18390(14) 0.0873 Uani
H5 H 0.3587 0.9027 0.2194 0.1050 Uiso
C11 C 0.4130(3) 1.1636(2) 0.06330(15) 0.0928 Uani
C12 C 0.4937(3) 1.3242(3) 0.0984(2) 0.1332 Uani
H6 H 0.5125 1.3039 0.1277 0.1600 Uiso
C13 C 0.2018(3) 0.4353(2) 0.04655(17) 0.1189 Uani
H7 H 0.1749 0.4018 0.0773 0.1430 Uiso
C14 C 0.3681(3) 0.9656(2) 0.08291(15) 0.0970 Uani
H8 H 0.3668 0.9789 0.0473 0.1160 Uiso
C15 C 0.4474(5) 1.3936(3) 0.0173(2) 0.1996 Uani
H9 H 0.4307 1.4141 -0.0128 0.2400 Uiso
C16 C 0.5179(3) 1.4194(3) 0.0949(2) 0.1373 Uani
H10 H 0.5553 1.4601 0.1212 0.1650 Uiso
C17 C 0.19575(17) 0.3915(3) 0.0000 0.1445 Uani
N1 N 0.33434(16) 0.85141(16) 0.14797(10) 0.0560 Uani
N2 N 0.42478(19) 1.12810(17) 0.10807(10) 0.0672 Uani
H11 H 0.4535 1.1676 0.1329 0.0810 Uiso
O1 O 0.29166(15) 0.67113(14) 0.09514(9) 0.0699 Uani
O2 O 0.23213(16) 0.53997(18) 0.13864(11) 0.0946 Uani
O3 O 0.1566(12) 0.2966(3) -0.0011(6) 0.4882 Uani
O4 O 0.3797(3) 1.1150(2) 0.02467(12) 0.1868 Uani
Zn1 Zn 0.285738(19) 0.714262(19) 0.1667 0.0534 Uani
C1C C 0.6031(2) 1.96413(19) 0.11991(13) 0.0581 Uani
C2J C 0.3268(3) 0.5855(2) -0.09645(14) 0.0649 Uani
C3C C 0.6043(2) 1.9881(2) 0.17044(14) 0.0704 Uani
H1C H 0.5827 1.9428 0.1967 0.0840 Uiso
C4C C 0.5104(2) 1.54747(19) 0.05586(14) 0.0670 Uani
C5J C 0.2840(3) 0.5358(2) -0.04620(15) 0.0760 Uani
C6C C 0.5545(2) 1.7351(2) 0.06108(14) 0.0728 Uani
C8C C 0.6583(3) 2.1222(2) 0.09813(14) 0.0857 Uani
H3C H 0.6720 2.1667 0.0720 0.1030 Uiso
C9C C 0.5733(5) 1.6983(3) 0.0197(2) 0.2114 Uani
H4C H 0.6020 1.7363 -0.0094 0.2540 Uiso
C10C C 0.6381(3) 2.0815(3) 0.18390(14) 0.0873 Uani
H5C H 0.6413 2.0973 0.2194 0.1050 Uiso
C11C C 0.5870(3) 1.8364(2) 0.06330(15) 0.0928 Uani
C12C C 0.5063(3) 1.6758(3) 0.0984(2) 0.1332 Uani
H6C H 0.4875 1.6961 0.1277 0.1600 Uiso
C13J C 0.2335(4) 0.4353(2) -0.04655(17) 0.1189 Uani
H7J H 0.2269 0.4018 -0.0773 0.1430 Uiso
C14C C 0.6319(3) 2.0344(2) 0.08291(15) 0.0970 Uani
H8C H 0.6332 2.0211 0.0473 0.1160 Uiso
C15C C 0.5526(5) 1.6064(3) 0.0173(2) 0.1996 Uani
H9C H 0.5693 1.5859 -0.0128 0.2400 Uiso
C16C C 0.4821(3) 1.5806(3) 0.0949(2) 0.1373 Uani
H10C H 0.4447 1.5399 0.1212 0.1650 Uiso
N1C N 0.66566(16) 2.14859(16) 0.14797(10) 0.0560 Uani
N1I N 0.14859(16) 0.66566(16) 0.18536(10) 0.0560 Uani
N2C N 0.57522(19) 1.87190(17) 0.10807(10) 0.0672 Uani
H11C H 0.5465 1.8324 0.1329 0.0810 Uiso
O1J O 0.37947(21) 0.67113(14) -0.09514(9) 0.0699 Uani
O1I O 0.32887(14) 0.70834(15) 0.23819(9) 0.0699 Uani
O2J O 0.30784(24) 0.53997(18) -0.13864(11) 0.0946 Uani
O3J O 0.1400(12) 0.2966(3) 0.0011(6) 0.4882 Uani
O4C O 0.6203(3) 1.8850(2) 0.02467(12) 0.1868 Uani
Zn1C Zn 0.714262(19) 2.285738(19) 0.1667 0.0534 Uani
Zn1J Zn 0.428524(27) 0.714262(19) -0.1667 0.0534 Uani
loop_
_atom_site_aniso_label
_atom_site_aniso_U_11
_atom_site_aniso_U_22
_atom_site_aniso_U_33
_atom_site_aniso_U_23
_atom_site_aniso_U_13
_atom_site_aniso_U_12
C1 0.0744(18) 0.0437(16) 0.052(2) -0.0045(14) -0.0149(16) 0.0264(13)
C2 0.0592(15) 0.0665(17) 0.069(2) 0.0174(16) 0.0310(15) 0.0315(13)
C3 0.0976(19) 0.0529(15) 0.060(2) -0.0117(17) -0.0122(19) 0.0371(14)
C4 0.0717(17) 0.0478(14) 0.089(2) -0.0010(16) -0.0114(18) 0.0355(13)
C5 0.081(2) 0.0578(18) 0.089(3) 0.0052(17) 0.0372(19) 0.0345(14)
C6 0.118(2) 0.0514(15) 0.062(2) -0.0142(15) -0.0215(19) 0.0521(14)
C7 0.064(2) 0.036(2) 0.076(3) 0.000 0.034(2) 0.0180(12)
C8 0.141(3) 0.0536(18) 0.050(2) -0.0071(16) -0.014(2) 0.0393(19)
C9 0.442(7) 0.083(3) 0.109(4) -0.018(2) -0.109(4) 0.131(3)
C10 0.141(3) 0.087(2) 0.050(2) -0.0037(17) -0.009(2) 0.0690(18)
C11 0.160(3) 0.0514(18) 0.062(2) -0.0170(17) -0.027(2) 0.0492(19)
C12 0.178(3) 0.0655(19) 0.180(5) -0.020(3) -0.078(3) 0.0788(18)
C13 0.159(3) 0.0458(19) 0.137(3) 0.020(2) 0.091(3) 0.040(2)
C14 0.184(3) 0.0450(18) 0.051(2) 0.0027(16) -0.021(2) 0.049(2)
C15 0.398(7) 0.076(2) 0.128(4) -0.009(2) -0.100(4) 0.121(3)
C16 0.165(4) 0.064(2) 0.172(5) -0.019(3) -0.077(3) 0.049(2)
C17 0.179(5) 0.016(3) 0.184(6) 0.000 0.103(5) 0.0078(13)
N1 0.0642(14) 0.0463(13) 0.0552(18) 0.0014(12) -0.0011(13) 0.0260(10)
N2 0.0971(16) 0.0447(13) 0.0578(17) -0.0144(13) -0.0192(15) 0.0340(12)
O1 0.0871(12) 0.0558(11) 0.0645(14) 0.0030(10) 0.0233(11) 0.0341(9)
O2 0.0984(14) 0.1056(16) 0.0902(19) 0.0329(13) 0.0393(13) 0.0588(12)
O3 0.740(8) 0.171(3) 0.554(7) 0.205(5) 0.447(6) 0.228(5)
O4 0.397(4) 0.0703(15) 0.0814(19) -0.0225(14) -0.089(2) 0.108(2)
Zn1 0.05176(13) 0.05176(13) 0.0538(3) 0.0085(2) 0.0085(2) 0.02375(19)
C1C 0.0744 0.0437 0.052 0.0045 0.0149 0.0264
C2J 0.0627 0.0665 0.069 -0.0174 0.0136 0.035
C3C 0.0976 0.0529 0.06 0.0117 0.0122 0.0371
C4C 0.0717 0.0478 0.089 0.001 0.0114 0.0355
C5J 0.0698 0.0578 0.089 -0.0052 0.032 0.0233
C6C 0.118 0.0514 0.062 0.0142 0.0215 0.0521
C8C 0.141 0.0536 0.05 0.0071 0.014 0.0393
C9C 0.442 0.083 0.109 0.018 0.109 0.131
C10C 0.141 0.087 0.05 0.0037 0.009 0.069
C11C 0.16 0.0514 0.062 0.017 0.027 0.0492
C12C 0.178 0.0655 0.18 0.02 0.078 0.0788
C13J 0.1248 0.0458 0.137 -0.02 0.071 0.0058
C14C 0.184 0.045 0.051 -0.0027 0.021 0.049
C15C 0.398 0.076 0.128 0.009 0.1 0.121
C16C 0.165 0.064 0.172 0.019 0.077 0.049
N1C 0.0642 0.0463 0.0552 -0.0014 0.0011 0.026
N1I 0.0463 0.0642 0.0552 -0.0011 0.0014 0.026
N2C 0.0971 0.0447 0.0578 0.0144 0.0192 0.034
O1J 0.0747 0.0558 0.0645 -0.003 0.0203 0.0217
O1I 0.0558 0.0871 0.0645 0.0233 0.003 0.0341
O2J 0.0864 0.1056 0.0902 -0.0329 0.0064 0.0468
O3J 0.455 0.171 0.554 -0.205 0.242 -0.057
O4C 0.397 0.0703 0.0814 0.0225 0.089 0.108
Zn1C 0.05176 0.05176 0.0538 -0.0085 -0.0085 0.02375
Zn1J 0.05602 0.05176 0.0538 -0.0085 1.23084e-18 0.02801
loop_
_geom_bond_atom_site_label_1
_geom_bond_atom_site_label_2
_geom_bond_site_symmetry_1
_geom_bond_site_symmetry_2
C1 C3 1_555 1_555
C2 C5 1_555 1_555
C3 H1 1_555 1_555
C4 C15 1_555 1_555
C5 C7 1_555 1_555
C6 C9 1_555 1_555
C7 H2 1_555 1_555
C8 H3 1_555 1_555
C9 H4 1_555 1_555
C10 C3 1_555 1_555
H5 C10 1_555 1_555
C11 C6 1_555 1_555
C12 C6 1_555 1_555
H6 C12 1_555 1_555
C13 C5 1_555 1_555
H7 C13 1_555 1_555
C14 C1 1_555 1_555
H8 C14 1_555 1_555
C15 C9 1_555 1_555
H9 C15 1_555 1_555
C16 C4 1_555 1_555
H10 C16 1_555 1_555
C17 C13 1_555 1_555
N1 C8 1_555 1_555
N2 C1 1_555 1_555
H11 N2 1_555 1_555
O1 C2 1_555 1_555
O2 C2 1_555 1_555
O3 C17 1_555 1_555
O4 C11 1_555 1_555
Zn1 N1 1_555 1_555
C1C C3C 1_555 1_555
C2J C5J 1_555 1_555
C3C H1C 1_555 1_555
C4C C4 1_555 1_555
C5J C7 1_555 1_555
C6C C9C 1_555 1_555
C8C H3C 1_555 1_555
C9C H4C 1_555 1_555
C10C C3C 1_555 1_555
H5C C10C 1_555 1_555
C11C C6C 1_555 1_555
C12C C6C 1_555 1_555
H6C C12C 1_555 1_555
C13J C17 1_555 1_555
H7J C13J 1_555 1_555
C14C C1C 1_555 1_555
H8C C14C 1_555 1_555
C15C C4C 1_555 1_555
H9C C15C 1_555 1_555
C16C C4C 1_555 1_555
H10C C16C 1_555 1_555
N1C C8C 1_555 1_555
N1I Zn1 1_555 1_555
N2C C1C 1_555 1_555
H11C N2C 1_555 1_555
O1J C2J 1_555 1_555
O1I Zn1 1_555 1_555
O2J C2J 1_555 1_555
O3J C17 1_555 1_555
O4C C11C 1_555 1_555
Zn1C N1C 1_555 1_555
Zn1J O1J 1_555 1_555
C8 C14 1_555 1_555
C10 N1 1_555 1_555
C11 N2 1_555 1_555
C12 C16 1_555 1_555
O1 Zn1 1_555 1_555
O3 O3J 1_555 1_555
C5J C13J 1_555 1_555
C8C C14C 1_555 1_555
C9C C15C 1_555 1_555
C10C N1C 1_555 1_555
C11C N2C 1_555 1_555
C12C C16C 1_555 1_555

#END
