
#######################################################################
#
#                 Cambridge Crystallographic Data Centre
#                                CCDC 
#
#######################################################################
#
# If this CIF has been generated from an entry in the Cambridge 
# Structural Database, then it will include bibliographic, chemical, 
# crystal, experimental, refinement or atomic coordinate data resulting 
# from the CCDC's data processing and validation procedures.
#
#######################################################################

data_RAYLEK
_chemical_formula_moiety         '(C32 H23 N5 O6 Zn1)n'
_chemical_name_systematic        
catena-[(\m~2~-N,N'-Di(pyridin-4-yl)biphenyl-4,4'-dicarboxamido)-(\m~2~-5-aminoisophthalato)-zinc]
_symmetry_cell_setting           hexagonal
_symmetry_space_group_name_H-M   'P 62 2 2'
_symmetry_Int_Tables_number      180
_space_group_name_Hall           'P 62 2 (0 0 4)'
loop_
_symmetry_equiv_pos_site_id
_symmetry_equiv_pos_as_xyz
1 x,y,z
2 x-y,x,1/3+z
3 -y,x-y,2/3+z
4 -x,-y,z
5 -x+y,-x,1/3+z
6 y,-x+y,2/3+z
7 -y,-x,2/3-z
8 x-y,-y,-z
9 x,x-y,1/3-z
10 y,x,2/3-z
11 -x+y,y,-z
12 -x,-x+y,1/3-z
_cell_length_a                   16.5755(6)
_cell_length_b                   16.5755(6)
_cell_length_c                   25.117(2)
_cell_angle_alpha                90
_cell_angle_beta                 90
_cell_angle_gamma                120
_cell_volume                     5976.29
_exptl_crystal_colour            colorless
_exptl_crystal_description       block
_cell_formula_units_Z            6
loop_
_atom_site_label
_atom_site_type_symbol
_atom_site_fract_x
_atom_site_fract_y
_atom_site_fract_z
_atom_site_U_iso_or_equiv
_atom_site_thermal_displace_type
C1 C 0.41617(15) 0.67347(16) 0.06953(11) 0.0872 Uani
C2 C 0.46731(16) 0.71716(17) 0.12090(11) 0.0987 Uani
C3 C 0.4192(2) 0.70961(11) 0.1667 0.0838 Uani
H1 H 0.3544 0.6772 0.1667 0.1000 Uiso
C4 C 0.56495(18) 0.7678(3) 0.11956(14) 0.1675 Uani
H2 H 0.5968 0.7753 0.0878 0.2010 Uiso
C5 C 0.6136(3) 0.80678(14) 0.1667 0.2010 Uani
C6 C 0.08360(18) 0.44572(17) -0.01690(9) 0.0894 Uani
H3 H 0.0993 0.4604 -0.0525 0.1070 Uiso
C7 C -0.01135(15) 0.38353(15) -0.00370(9) 0.0765 Uani
H4 H -0.0564 0.3607 -0.0303 0.0920 Uiso
C8 C -0.03561(13) 0.35818(15) 0.04627(9) 0.0640 Uani
C9 C 0.03527(16) 0.3974(2) 0.08380(10) 0.1089 Uani
H5 H 0.0221 0.3816 0.1195 0.1310 Uiso
C10 C 0.12422(17) 0.45899(19) 0.06834(10) 0.0943 Uani
H6 H 0.1698 0.4857 0.0945 0.1130 Uiso
C11 C -0.16129(18) 0.2456(2) 0.10159(10) 0.1066 Uani
C12 C -0.26486(17) 0.17574(18) 0.10382(10) 0.0867 Uani
C13 C -0.3227(2) 0.1681(2) 0.06942(17) 0.1621 Uani
H7 H -0.3024 0.2083 0.0404 0.1950 Uiso
C14 C -0.4158(2) 0.1018(2) 0.07310(18) 0.1802 Uani
H8 H -0.4561 0.1037 0.0481 0.2170 Uiso
C15 C -0.45102(15) 0.03698(15) 0.10897(11) 0.0753 Uani
C16 C -0.3937(3) 0.0520(4) 0.14505(15) 0.2478 Uani
H9 H -0.4156 0.0160 0.1757 0.2970 Uiso
C17 C -0.3006(2) 0.1178(4) 0.14307(15) 0.2623 Uani
H10 H -0.2621 0.1208 0.1708 0.3150 Uiso
N1 N 0.7087(3) 0.85436(13) 0.1667 0.2878 Uani
H11 H 0.7387 0.8784 0.1957 0.3450 Uiso
N2 N 0.14930(11) 0.48287(12) 0.01855(7) 0.0645 Uani
N3 N -0.12679(12) 0.29470(13) 0.05788(7) 0.0719 Uani
H12 H -0.1666 0.2859 0.0333 0.0860 Uiso
O1 O 0.33114(10) 0.62137(11) 0.07193(7) 0.0845 Uani
O2 O 0.46070(13) 0.69229(12) 0.02700(8) 0.1188 Uani
O3 O -0.11368(17) 0.2571(2) 0.14002(9) 0.2329 Uani
Zn1 Zn 0.286190(14) 0.57238(3) 0.0000 0.0651 Uani
C1H C 0.41617(15) 0.74270(22) 0.26380(11) 0.0872 Uani
C2H C 0.46731(16) 0.75015(23) 0.21243(11) 0.0987 Uani
C4H C 0.56495(18) 0.79715(35) 0.21377(14) 0.1675 Uani
H2H H 0.5968 0.8215 0.2455 0.2010 Uiso
C6C C -1.08360(18) -0.44572(17) -0.01690(9) 0.0894 Uani
H3C H -1.0993 -0.4604 -0.0525 0.1070 Uiso
C7C C -0.98865(15) -0.38353(15) -0.00370(9) 0.0765 Uani
H4C H -0.9436 -0.3607 -0.0303 0.0920 Uiso
C8C C -0.96439(13) -0.35818(15) 0.04627(9) 0.0640 Uani
C9C C -1.03527(16) -0.3974(2) 0.08380(10) 0.1089 Uani
H5C H -1.0221 -0.3816 0.1195 0.1310 Uiso
C10C C -1.12422(17) -0.45899(19) 0.06834(10) 0.0943 Uani
H6C H -1.1698 -0.4857 0.0945 0.1130 Uiso
C11C C -0.83871(18) -0.2456(2) 0.10159(10) 0.1066 Uani
C12C C -0.73514(17) -0.17574(18) 0.10382(10) 0.0867 Uani
C13C C -0.6773(2) -0.1681(2) 0.06942(17) 0.1621 Uani
H7C H -0.6976 -0.2083 0.0404 0.1950 Uiso
C14C C -0.5842(2) -0.1018(2) 0.07310(18) 0.1802 Uani
H8C H -0.5439 -0.1037 0.0481 0.2170 Uiso
C15C C -0.54898(15) -0.03698(15) 0.10897(11) 0.0753 Uani
C16C C -0.6063(3) -0.0520(4) 0.14505(15) 0.2478 Uani
H9C H -0.5844 -0.0160 0.1757 0.2970 Uiso
C17C C -0.6994(2) -0.1178(4) 0.14307(15) 0.2623 Uani
H10C H -0.7379 -0.1208 0.1708 0.3150 Uiso
H11H H 0.7387 0.8603 0.1376 0.3450 Uiso
N2C N -1.14930(11) -0.48287(12) 0.01855(7) 0.0645 Uani
N2J N 0.33357(16) 0.48287(12) -0.01855(7) 0.0645 Uani
N3C N -0.87321(12) -0.29470(13) 0.05788(7) 0.0719 Uani
H12C H -0.8334 -0.2859 0.0333 0.0860 Uiso
O1H O 0.33114(10) 0.70977(15) 0.26140(7) 0.0845 Uani
O1J O 0.29023(15) 0.62137(11) -0.07193(7) 0.0845 Uani
O2H O 0.46070(13) 0.76841(18) 0.30633(8) 0.1188 Uani
O3C O -0.88632(17) -0.2571(2) 0.14002(9) 0.2329 Uani
Zn1D Zn 0.286190(33) 0.713810(14) 0.3333 0.0651 Uani
Zn1C Zn -1.286190(14) -0.57238(3) 0.0000 0.0651 Uani
loop_
_atom_site_aniso_label
_atom_site_aniso_U_11
_atom_site_aniso_U_22
_atom_site_aniso_U_33
_atom_site_aniso_U_23
_atom_site_aniso_U_13
_atom_site_aniso_U_12
C1 0.0621(12) 0.0668(12) 0.131(2) -0.0245(12) 0.0264(13) 0.0309(9)
C2 0.0518(11) 0.0787(14) 0.146(2) -0.0604(14) 0.0079(13) 0.0179(11)
C3 0.0394(18) 0.0750(16) 0.125(2) -0.0508(18) 0.000 0.0197(9)
C4 0.0538(15) 0.155(2) 0.226(3) -0.110(2) 0.0441(17) 0.0014(17)
C5 0.035(2) 0.239(4) 0.261(4) -0.167(4) 0.000 0.0174(12)
C6 0.0924(16) 0.0935(17) 0.0613(13) 0.0080(12) -0.0012(12) 0.0307(14)
C7 0.0583(12) 0.0754(13) 0.0808(14) -0.0029(12) -0.0153(13) 0.0221(10)
C8 0.0469(11) 0.0647(13) 0.0672(13) 0.0028(11) -0.0075(10) 0.0179(10)
C9 0.0496(16) 0.130(2) 0.0698(15) 0.0205(16) 0.0032(12) -0.0131(16)
C10 0.0528(14) 0.117(2) 0.0750(15) -0.0042(15) -0.0090(12) 0.0139(14)
C11 0.0581(15) 0.126(2) 0.0829(17) 0.0124(16) -0.0183(14) 0.0065(15)
C12 0.0526(15) 0.0729(17) 0.0786(15) 0.0053(13) -0.0170(12) -0.0106(13)
C13 0.0598(19) 0.098(2) 0.252(4) 0.071(2) -0.030(2) -0.0180(17)
C14 0.072(2) 0.141(3) 0.286(4) 0.102(3) -0.012(3) 0.0220(19)
C15 0.0508(12) 0.0425(11) 0.1201(17) 0.0039(12) -0.0117(13) 0.0140(9)
C16 0.081(3) 0.312(6) 0.146(3) 0.086(3) -0.012(2) -0.055(4)
C17 0.080(2) 0.319(5) 0.143(3) 0.109(3) -0.034(2) -0.084(3)
N1 0.043(2) 0.400(7) 0.301(5) -0.203(5) 0.000 0.0213(12)
N2 0.0486(9) 0.0676(10) 0.0728(11) 0.0031(9) 0.0068(8) 0.0256(7)
N3 0.0472(9) 0.0712(11) 0.0765(11) 0.0013(10) -0.0139(9) 0.0140(8)
O1 0.0607(9) 0.0807(9) 0.0943(10) -0.0327(8) 0.0049(8) 0.0219(7)
O2 0.1163(12) 0.0919(11) 0.1400(15) -0.0076(10) 0.0571(11) 0.0458(9)
O3 0.0780(15) 0.316(3) 0.1041(13) 0.0911(16) -0.0259(12) -0.052(2)
Zn1 0.05762(16) 0.0604(2) 0.0783(2) 0.000 0.01556(17) 0.03022(12)
C1H 0.0621 0.0671 0.131 -0.0509 -0.0264 0.0312
C2H 0.0518 0.0947 0.146 -0.0683 -0.0079 0.0339
C4H 0.0538 0.206 0.226 -0.1541 -0.0441 0.0524
C6C 0.0924 0.0935 0.0613 -0.008 0.0012 0.0307
C7C 0.0583 0.0754 0.0808 0.0029 0.0153 0.0221
C8C 0.0469 0.0647 0.0672 -0.0028 0.0075 0.0179
C9C 0.0496 0.13 0.0698 -0.0205 -0.0032 -0.0131
C10C 0.0528 0.117 0.075 0.0042 0.009 0.0139
C11C 0.0581 0.126 0.0829 -0.0124 0.0183 0.0065
C12C 0.0526 0.0729 0.0786 -0.0053 0.017 -0.0106
C13C 0.0598 0.098 0.252 -0.071 0.03 -0.018
C14C 0.072 0.141 0.286 -0.102 0.012 0.022
C15C 0.0508 0.0425 0.1201 -0.0039 0.0117 0.014
C16C 0.081 0.312 0.146 -0.086 0.012 -0.055
C17C 0.08 0.319 0.143 -0.109 0.034 -0.084
N2C 0.0486 0.0676 0.0728 -0.0031 -0.0068 0.0256
N2J 0.065 0.0676 0.0728 -0.0031 0.0037 0.042
N3C 0.0472 0.0712 0.0765 -0.0013 0.0139 0.014
O1H 0.0607 0.0976 0.0943 -0.0376 -0.0049 0.0388
O1J 0.0976 0.0807 0.0943 0.0327 0.0376 0.0588
O2H 0.1163 0.1166 0.14 -0.0647 -0.0571 0.0705
O3C 0.078 0.316 0.1041 -0.0911 0.0259 -0.052
Zn1D 0.05758 0.05762 0.0783 -0.01556 -0.01556 0.0274
Zn1C 0.05762 0.0604 0.0783 0 -0.01556 0.03022
loop_
_geom_bond_atom_site_label_1
_geom_bond_atom_site_label_2
_geom_bond_site_symmetry_1
_geom_bond_site_symmetry_2
C1 C2 1_555 1_555
C2 C3 1_555 1_555
C3 H1 1_555 1_555
C4 C2 1_555 1_555
H2 C4 1_555 1_555
C5 C4 1_555 1_555
C6 H3 1_555 1_555
C7 C6 1_555 1_555
H4 C7 1_555 1_555
C8 C7 1_555 1_555
C9 C8 1_555 1_555
H5 C9 1_555 1_555
C10 C9 1_555 1_555
H6 C10 1_555 1_555
C11 C12 1_555 1_555
C12 C13 1_555 1_555
C13 H7 1_555 1_555
C14 C13 1_555 1_555
H8 C14 1_555 1_555
C15 C14 1_555 1_555
C16 C15 1_555 1_555
H9 C16 1_555 1_555
C17 C12 1_555 1_555
H10 C17 1_555 1_555
N1 C5 1_555 1_555
H11 N1 1_555 1_555
N2 C6 1_555 1_555
N3 C8 1_555 1_555
H12 N3 1_555 1_555
O1 C1 1_555 1_555
O2 C1 1_555 1_555
O3 C11 1_555 1_555
Zn1 N2 1_555 1_555
C1H C2H 1_555 1_555
C2H C3 1_555 1_555
C4H C5 1_555 1_555
H2H C4H 1_555 1_555
C6C H3C 1_555 1_555
C7C C6C 1_555 1_555
H4C C7C 1_555 1_555
C8C C7C 1_555 1_555
C9C C8C 1_555 1_555
H5C C9C 1_555 1_555
C10C C9C 1_555 1_555
H6C C10C 1_555 1_555
C11C C12C 1_555 1_555
C12C C13C 1_555 1_555
C13C H7C 1_555 1_555
C14C C13C 1_555 1_555
H8C C14C 1_555 1_555
C15C C15 1_555 1_555
C16C C15C 1_555 1_555
H9C C16C 1_555 1_555
C17C C12C 1_555 1_555
H10C C17C 1_555 1_555
H11H N1 1_555 1_555
N2C C6C 1_555 1_555
N2J Zn1 1_555 1_555
N3C C8C 1_555 1_555
H12C N3C 1_555 1_555
O1H C1H 1_555 1_555
O1J Zn1 1_555 1_555
O2H C1H 1_555 1_555
O3C C11C 1_555 1_555
Zn1D O1H 1_555 1_555
Zn1C N2C 1_555 1_555
C10 N2 1_555 1_555
C11 N3 1_555 1_555
C16 C17 1_555 1_555
O1 Zn1 1_555 1_555
C2H C4H 1_555 1_555
C10C N2C 1_555 1_555
C11C N3C 1_555 1_555
C14C C15C 1_555 1_555
C16C C17C 1_555 1_555

#END
