
#######################################################################
#
#                 Cambridge Crystallographic Data Centre
#                                CCDC 
#
#######################################################################
#
# If this CIF has been generated from an entry in the Cambridge 
# Structural Database, then it will include bibliographic, chemical, 
# crystal, experimental, refinement or atomic coordinate data resulting 
# from the CCDC's data processing and validation procedures.
#
#######################################################################

data_RAYMAH
_chemical_formula_moiety         '(C33 H22 N4 O8 Zn1)n'
_chemical_name_systematic        
catena-[(\m~2~-N,N'-Di(pyridin-4-yl)biphenyl-4,4'-dicarboxamido)-(\m~2~-5-carboxyisophthalato)-zinc]
_symmetry_cell_setting           hexagonal
_symmetry_space_group_name_H-M   'P 62 2 2'
_symmetry_Int_Tables_number      180
_space_group_name_Hall           'P 62 2 (0 0 4)'
loop_
_symmetry_equiv_pos_site_id
_symmetry_equiv_pos_as_xyz
1 x,y,z
2 x-y,x,1/3+z
3 -y,x-y,2/3+z
4 -x,-y,z
5 -x+y,-x,1/3+z
6 y,-x+y,2/3+z
7 -y,-x,2/3-z
8 x-y,-y,-z
9 x,x-y,1/3-z
10 y,x,2/3-z
11 -x+y,y,-z
12 -x,-x+y,1/3-z
_cell_length_a                   16.5028(4)
_cell_length_b                   16.5028(4)
_cell_length_c                   25.4515(15)
_cell_angle_alpha                90
_cell_angle_beta                 90
_cell_angle_gamma                120
_cell_volume                     6002.87
_exptl_crystal_colour            colorless
_exptl_crystal_description       block
_cell_formula_units_Z            6
loop_
_atom_site_label
_atom_site_type_symbol
_atom_site_fract_x
_atom_site_fract_y
_atom_site_fract_z
_atom_site_U_iso_or_equiv
_atom_site_thermal_displace_type
C1 C 0.67737(18) 0.41810(19) 0.09696(11) 0.0625 Uani
C2 C 0.7197(2) 0.46821(19) 0.04587(12) 0.0738 Uani
C3 C 0.71056(14) 0.4211(3) 0.0000 0.0612 Uani
H1 H 0.6780 0.3560 0.0000 0.0730 Uiso
C4 C 0.7710(4) 0.5653(2) 0.04500(16) 0.1430 Uani
H2 H 0.7810 0.5982 0.0763 0.1720 Uiso
C5 C 0.8065(2) 0.6130(4) 0.0000 0.2194 Uani
C6 C 0.8571(3) 0.7142(6) 0.0000 0.4204 Uani
C7 C 0.4673(2) 0.1242(2) 0.09875(11) 0.0766 Uani
H3 H 0.4958 0.1697 0.0729 0.0920 Uiso
C8 C 0.4071(3) 0.0348(2) 0.08320(12) 0.0890 Uani
H4 H 0.3967 0.0208 0.0476 0.1070 Uiso
C9 C 0.3620(2) -0.03429(18) 0.11959(11) 0.0623 Uani
C10 C 0.3829(2) -0.0081(2) 0.17102(12) 0.0810 Uani
H5 H 0.3551 -0.0526 0.1974 0.0970 Uiso
C11 C 0.4447(3) 0.0837(2) 0.18403(12) 0.0851 Uani
H6 H 0.4572 0.1002 0.2193 0.1020 Uiso
C12 C 0.2583(3) -0.1643(2) 0.06178(13) 0.0942 Uani
C13 C 0.1836(2) -0.2655(2) 0.06040(12) 0.0736 Uani
C14 C 0.1361(5) -0.3049(4) 0.01686(18) 0.1807 Uani
H7 H 0.1500 -0.2686 -0.0133 0.2170 Uiso
C15 C 0.0681(5) -0.3956(3) 0.01459(18) 0.1997 Uani
H8 H 0.0403 -0.4196 -0.0178 0.2400 Uiso
C16 C 0.0393(2) -0.4514(2) 0.05480(12) 0.0662 Uani
C17 C 0.0978(3) -0.4166(3) 0.09481(17) 0.1300 Uani
H9 H 0.0924 -0.4577 0.1214 0.1560 Uiso
C18 C 0.1653(3) -0.3255(3) 0.10023(18) 0.1256 Uani
H10 H 0.1987 -0.3047 0.1315 0.1510 Uiso
N1 N 0.48714(15) 0.14971(15) 0.14734(9) 0.0575 Uani
N2 N 0.29677(18) -0.12808(16) 0.10803(9) 0.0709 Uani
H11 H 0.2797 -0.1666 0.1340 0.0850 Uiso
O1 O 0.62362(14) 0.33094(13) 0.09512(8) 0.0682 Uani
O2 O 0.69753(15) 0.46409(17) 0.13801(9) 0.0894 Uani
O3 O 0.8515(8) 0.7589(3) 0.03579(19) 0.5013 Uani
O4 O 0.2786(3) -0.1184(2) 0.02275(11) 0.2103 Uani
Zn1 Zn 0.57526(3) 0.287631(16) 0.1667 0.0522 Uani
C1J C 0.74073(26) 0.41810(19) -0.09696(11) 0.0625 Uani
C2J C 0.74851(28) 0.46821(19) -0.04587(12) 0.0738 Uani
C4J C 0.7943(4) 0.5653(2) -0.04500(16) 0.1430 Uani
H2J H 0.8172 0.5982 -0.0763 0.1720 Uiso
C7C C -0.4673(2) -1.1242(2) 0.09875(11) 0.0766 Uani
H3C H -0.4958 -1.1697 0.0729 0.0920 Uiso
C8C C -0.4071(3) -1.0348(2) 0.08320(12) 0.0890 Uani
H4C H -0.3967 -1.0208 0.0476 0.1070 Uiso
C9C C -0.3620(2) -0.96571(18) 0.11959(11) 0.0623 Uani
C10C C -0.3829(2) -0.9919(2) 0.17102(12) 0.0810 Uani
H5C H -0.3551 -0.9474 0.1974 0.0970 Uiso
C11C C -0.4447(3) -1.0837(2) 0.18403(12) 0.0851 Uani
H6C H -0.4572 -1.1002 0.2193 0.1020 Uiso
C12C C -0.2583(3) -0.8357(2) 0.06178(13) 0.0942 Uani
C13C C -0.1836(2) -0.7345(2) 0.06040(12) 0.0736 Uani
C14C C -0.1361(5) -0.6951(4) 0.01686(18) 0.1807 Uani
H7C H -0.1500 -0.7314 -0.0133 0.2170 Uiso
C15C C -0.0681(5) -0.6044(3) 0.01459(18) 0.1997 Uani
H8C H -0.0403 -0.5804 -0.0178 0.2400 Uiso
C16C C -0.0393(2) -0.5486(2) 0.05480(12) 0.0662 Uani
C17C C -0.0978(3) -0.5834(3) 0.09481(17) 0.1300 Uani
H9C H -0.0924 -0.5423 0.1214 0.1560 Uiso
C18C C -0.1653(3) -0.6745(3) 0.10023(18) 0.1256 Uani
H10C H -0.1987 -0.6953 0.1315 0.1510 Uiso
N1C N -0.48714(15) -1.14971(15) 0.14734(9) 0.0575 Uani
N1H N 0.48714(15) 0.33743(21) 0.18599(9) 0.0575 Uani
N2C N -0.29677(18) -0.87192(16) 0.10803(9) 0.0709 Uani
H11C H -0.2797 -0.8334 0.1340 0.0850 Uiso
O1J O 0.70732(19) 0.33094(13) -0.09512(8) 0.0682 Uani
O1H O 0.62362(14) 0.29268(19) 0.23821(8) 0.0682 Uani
O2J O 0.76656(23) 0.46409(17) -0.13801(9) 0.0894 Uani
O3J O 0.9074(9) 0.7589(3) -0.03579(19) 0.5013 Uani
O4C O -0.2786(3) -0.8816(2) 0.02275(11) 0.2103 Uani
Zn1B Zn 0.712369(16) 0.287629(34) -0.1666 0.0522 Uani
Zn1K Zn -0.57526(3) -1.287629(34) 0.1666 0.0522 Uani
loop_
_atom_site_aniso_label
_atom_site_aniso_U_11
_atom_site_aniso_U_22
_atom_site_aniso_U_33
_atom_site_aniso_U_23
_atom_site_aniso_U_13
_atom_site_aniso_U_12
C1 0.0670(12) 0.0643(13) 0.0613(16) -0.0102(12) 0.0132(12) 0.0367(10)
C2 0.0804(17) 0.0420(12) 0.0841(19) -0.0062(13) 0.0278(16) 0.0194(12)
C3 0.0664(17) 0.0376(19) 0.070(2) 0.000 0.0240(18) 0.0188(10)
C4 0.181(4) 0.0475(18) 0.139(3) -0.0272(19) 0.077(3) 0.011(2)
C5 0.359(10) 0.043(3) 0.151(5) 0.000 0.143(6) 0.0217(15)
C6 0.79(3) 0.066(5) 0.164(6) 0.000 0.207(11) 0.033(2)
C7 0.101(2) 0.0502(15) 0.0462(15) 0.0036(12) -0.0056(15) 0.0135(15)
C8 0.107(3) 0.0534(18) 0.0541(17) 0.0059(14) -0.0091(18) 0.0007(17)
C9 0.0620(15) 0.0477(14) 0.0608(16) 0.0043(12) -0.0120(13) 0.0152(12)
C10 0.0899(19) 0.0521(15) 0.0685(18) 0.0104(16) -0.0005(17) 0.0111(15)
C11 0.113(2) 0.0679(18) 0.0564(17) 0.0013(14) -0.0060(16) 0.0318(17)
C12 0.099(3) 0.0539(18) 0.071(2) 0.0176(16) -0.0132(18) -0.0059(18)
C13 0.0719(18) 0.0582(17) 0.0619(18) 0.0047(14) -0.0082(15) 0.0110(15)
C14 0.219(6) 0.087(3) 0.086(3) 0.001(2) -0.029(3) -0.036(4)
C15 0.237(7) 0.090(3) 0.087(3) -0.012(2) -0.020(4) -0.057(4)
C16 0.0521(14) 0.0520(14) 0.0828(19) 0.0046(14) -0.0011(15) 0.0172(11)
C17 0.131(3) 0.069(2) 0.122(3) 0.029(2) -0.038(3) -0.001(2)
C18 0.114(3) 0.067(2) 0.110(3) 0.013(2) -0.037(3) -0.019(2)
N1 0.0622(11) 0.0467(10) 0.0626(14) 0.0009(9) 0.0015(10) 0.0264(8)
N2 0.0731(14) 0.0459(12) 0.0679(14) 0.0149(11) -0.0075(13) 0.0105(11)
O1 0.0779(10) 0.0618(10) 0.0561(10) 0.0049(8) 0.0186(9) 0.0283(8)
O2 0.0837(12) 0.0990(14) 0.0764(13) -0.0273(11) 0.0111(11) 0.0388(11)
O3 0.94(2) 0.086(3) 0.208(5) -0.016(3) 0.182(8) 0.054(7)
O4 0.249(4) 0.0916(19) 0.0794(16) 0.0340(15) -0.054(2) -0.073(3)
Zn1 0.0557(3) 0.05055(16) 0.0521(2) -0.00435(17) 0.000 0.02787(13)
C1J 0.0579 0.0643 0.0613 0.0102 0.0234 0.0276
C2J 0.0836 0.042 0.0841 0.0062 0.034 0.0226
C4J 0.2065 0.0475 0.139 0.0272 0.1042 0.0365
C7C 0.101 0.0502 0.0462 -0.0036 0.0056 0.0135
C8C 0.107 0.0534 0.0541 -0.0059 0.0091 0.0007
C9C 0.062 0.0477 0.0608 -0.0043 0.012 0.0152
C10C 0.0899 0.0521 0.0685 -0.0104 0.0005 0.0111
C11C 0.113 0.0679 0.0564 -0.0013 0.006 0.0318
C12C 0.099 0.0539 0.071 -0.0176 0.0132 -0.0059
C13C 0.0719 0.0582 0.0619 -0.0047 0.0082 0.011
C14C 0.219 0.087 0.086 -0.001 0.029 -0.036
C15C 0.237 0.09 0.087 0.012 0.02 -0.057
C16C 0.0521 0.052 0.0828 -0.0046 0.0011 0.0172
C17C 0.131 0.069 0.122 -0.029 0.038 -0.001
C18C 0.114 0.067 0.11 -0.013 0.037 -0.019
N1C 0.0622 0.0467 0.0626 -0.0009 -0.0015 0.0264
N1H 0.0622 0.0561 0.0626 -0.0006 -0.0015 0.0358
N2C 0.0731 0.0459 0.0679 -0.0149 0.0075 0.0105
O1J 0.0831 0.0618 0.0561 -0.0049 0.0137 0.0335
O1H 0.0779 0.0831 0.0561 -0.0137 -0.0186 0.0496
O2J 0.1051 0.099 0.0764 0.0273 0.0384 0.0602
O3J 0.918 0.086 0.208 0.016 0.198 0.032
O4C 0.249 0.0916 0.0794 -0.034 0.054 -0.073
Zn1B 0.05055 0.05051 0.0521 0.00435 0.00435 0.02268
Zn1K 0.0557 0.05055 0.0521 0.00435 0 0.02787
loop_
_geom_bond_atom_site_label_1
_geom_bond_atom_site_label_2
_geom_bond_site_symmetry_1
_geom_bond_site_symmetry_2
C1 C2 1_555 1_555
C2 C3 1_555 1_555
C3 H1 1_555 1_555
C4 C2 1_555 1_555
H2 C4 1_555 1_555
C5 C4 1_555 1_555
C6 C5 1_555 1_555
C7 H3 1_555 1_555
C8 C7 1_555 1_555
H4 C8 1_555 1_555
C9 C8 1_555 1_555
C10 C9 1_555 1_555
H5 C10 1_555 1_555
C11 C10 1_555 1_555
H6 C11 1_555 1_555
C12 C13 1_555 1_555
C13 C14 1_555 1_555
C14 H7 1_555 1_555
C15 C14 1_555 1_555
H8 C15 1_555 1_555
C16 C15 1_555 1_555
C17 C16 1_555 1_555
H9 C17 1_555 1_555
C18 C13 1_555 1_555
H10 C18 1_555 1_555
N1 C7 1_555 1_555
N2 C9 1_555 1_555
H11 N2 1_555 1_555
O1 C1 1_555 1_555
O2 C1 1_555 1_555
O3 C6 1_555 1_555
O4 C12 1_555 1_555
Zn1 N1 1_555 1_555
C1J C2J 1_555 1_555
C2J C3 1_555 1_555
C4J C5 1_555 1_555
H2J C4J 1_555 1_555
C7C H3C 1_555 1_555
C8C C7C 1_555 1_555
H4C C8C 1_555 1_555
C9C C8C 1_555 1_555
C10C C9C 1_555 1_555
H5C C10C 1_555 1_555
C11C C10C 1_555 1_555
H6C C11C 1_555 1_555
C12C C13C 1_555 1_555
C13C C14C 1_555 1_555
C14C H7C 1_555 1_555
C15C C14C 1_555 1_555
H8C C15C 1_555 1_555
C16C C16 1_555 1_555
C17C C16C 1_555 1_555
H9C C17C 1_555 1_555
C18C C13C 1_555 1_555
H10C C18C 1_555 1_555
N1C C7C 1_555 1_555
N1H Zn1 1_555 1_555
N2C C9C 1_555 1_555
H11C N2C 1_555 1_555
O1J C1J 1_555 1_555
O1H Zn1 1_555 1_555
O2J C1J 1_555 1_555
O3J C6 1_555 1_555
O4C C12C 1_555 1_555
Zn1B O1J 1_555 1_555
Zn1K N1C 1_555 1_555
C11 N1 1_555 1_555
C12 N2 1_555 1_555
C17 C18 1_555 1_555
O1 Zn1 1_555 1_555
C2J C4J 1_555 1_555
C11C N1C 1_555 1_555
C12C N2C 1_555 1_555
C15C C16C 1_555 1_555
C17C C18C 1_555 1_555

#END
