
#######################################################################
#
#                 Cambridge Crystallographic Data Centre
#                                CCDC 
#
#######################################################################
#
# If this CIF has been generated from an entry in the Cambridge 
# Structural Database, then it will include bibliographic, chemical, 
# crystal, experimental, refinement or atomic coordinate data resulting 
# from the CCDC's data processing and validation procedures.
#
#######################################################################

data_YEVQOG
_chemical_formula_moiety         '(C10 H12 Ag2 N4)n,0.5n(C2 H6 O1)'
_chemical_name_systematic        
"catena-((\m~4~-3,3',5,5'-tetramethyl-1H,1'H-4,4'-bipyrazolato)-di-silver(i) hemikis(ethanol) clathrate)"
_symmetry_cell_setting           cubic
_symmetry_space_group_name_H-M   'I -4 3 d'
_symmetry_Int_Tables_number      220
_space_group_name_Hall           'I -4bd 2c 3'
loop_
_symmetry_equiv_pos_site_id
_symmetry_equiv_pos_as_xyz
1 x,y,z
2 1/2-x,-y,1/2+z
3 -x,1/2+y,1/2-z
4 1/2+x,1/2-y,-z
5 z,x,y
6 1/2+z,1/2-x,-y
7 1/2-z,-x,1/2+y
8 -z,1/2+x,1/2-y
9 y,z,x
10 -y,1/2+z,1/2-x
11 1/2+y,1/2-z,-x
12 1/2-y,-z,1/2+x
13 1/4+y,1/4+x,1/4+z
14 1/4-y,3/4-x,3/4+z
15 3/4+y,1/4-x,3/4-z
16 3/4-y,3/4+x,1/4-z
17 1/4+x,1/4+z,1/4+y
18 3/4-x,3/4+z,1/4-y
19 1/4-x,3/4-z,3/4+y
20 3/4+x,1/4-z,3/4-y
21 1/4+z,1/4+y,1/4+x
22 3/4+z,1/4-y,3/4-x
23 3/4-z,3/4+y,1/4-x
24 1/4-z,3/4-y,3/4+x
25 1/2+x,1/2+y,1/2+z
26 -x,1/2-y,z
27 1/2-x,y,-z
28 x,-y,1/2-z
29 1/2+z,1/2+x,1/2+y
30 z,-x,1/2-y
31 -z,1/2-x,y
32 1/2-z,x,-y
33 1/2+y,1/2+z,1/2+x
34 1/2-y,z,-x
35 y,-z,1/2-x
36 -y,1/2-z,x
37 3/4+y,3/4+x,3/4+z
38 3/4-y,1/4-x,1/4+z
39 1/4+y,3/4-x,1/4-z
40 1/4-y,1/4+x,3/4-z
41 3/4+x,3/4+z,3/4+y
42 1/4-x,1/4+z,3/4-y
43 3/4-x,1/4-z,1/4+y
44 1/4+x,3/4-z,1/4-y
45 3/4+z,3/4+y,3/4+x
46 1/4+z,3/4-y,1/4-x
47 1/4-z,1/4+y,3/4-x
48 3/4-z,1/4-y,1/4+x
_cell_length_a                   27.147(2)
_cell_length_b                   27.147(2)
_cell_length_c                   27.147(2)
_cell_angle_alpha                90
_cell_angle_beta                 90
_cell_angle_gamma                90
_cell_volume                     20006.2
_cell_formula_units_Z            48
loop_
_atom_site_label
_atom_site_type_symbol
_atom_site_fract_x
_atom_site_fract_y
_atom_site_fract_z
_atom_site_U_iso_or_equiv
_atom_site_thermal_displace_type
Ag1 Ag 0.31585(4) 0.26411(4) 0.71981(4) 0.0846 Uani
Ag2 Ag 0.52975(4) 0.47864(4) 0.88555(4) 0.0856 Uani
N1 N 0.3289(4) 0.3170(4) 0.7714(4) 0.0737 Uani
N2 N 0.2977(4) 0.3229(4) 0.8112(4) 0.0800 Uani
N3 N 0.4762(4) 0.4261(4) 0.8798(4) 0.0767 Uani
N4 N 0.4716(4) 0.3887(4) 0.9137(4) 0.0840 Uani
C1 C 0.4147(5) 0.3389(7) 0.7469(5) 0.1080 Uani
H1 H 0.4448 0.3482 0.7638 0.1620 Uiso
H2 H 0.4072 0.3631 0.7217 0.1620 Uiso
H3 H 0.4190 0.3069 0.7317 0.1620 Uiso
C2 C 0.3733(6) 0.3367(5) 0.7831(5) 0.0830 Uani
C3 C 0.3705(5) 0.3576(5) 0.8309(5) 0.0800 Uani
C4 C 0.3238(6) 0.3489(5) 0.8447(5) 0.0853 Uani
C5 C 0.3000(6) 0.3585(6) 0.8961(6) 0.1103 Uani
H4 H 0.3244 0.3729 0.9179 0.1650 Uiso
H5 H 0.2884 0.3277 0.9098 0.1650 Uiso
H6 H 0.2725 0.3810 0.8924 0.1650 Uiso
C6 C 0.4331(5) 0.4566(5) 0.8053(5) 0.0880 Uani
H7 H 0.4392 0.4899 0.8168 0.1320 Uiso
H8 H 0.4000 0.4543 0.7922 0.1320 Uiso
H9 H 0.4567 0.4483 0.7797 0.1320 Uiso
C7 C 0.4387(5) 0.4214(5) 0.8473(5) 0.0800 Uani
C8 C 0.4120(5) 0.3807(5) 0.8595(6) 0.0810 Uani
C9 C 0.4331(6) 0.3623(5) 0.9008(5) 0.0837 Uani
C10 C 0.4211(7) 0.3183(6) 0.9300(6) 0.1137 Uani
H10 H 0.4151 0.3277 0.9639 0.1700 Uiso
H11 H 0.4485 0.2954 0.9287 0.1700 Uiso
H12 H 0.3919 0.3027 0.9166 0.1700 Uiso
Ag1K Ag 0.23589(4) 0.28019(4) 0.81585(4) 0.0846 Uani
Ag2I Ag 0.52136(4) 0.38555(4) 0.97025(4) 0.0856 Uani
N2E N 0.3112(4) 0.2023(4) 0.6771(4) 0.0800 Uani
N4F N 0.5863(4) 0.5284(4) 0.8887(4) 0.0840 Uani
O1 O 0.415(4) 0.163(4) 0.854(4) 0.2000 Uiso
C11 C 0.443(3) 0.189(3) 0.793(3) 0.1300 Uiso
C12 C 0.457(2) 0.179(3) 0.829(3) 0.1300 Uiso
C13? C 0.441(5) 0.182(4) 0.856(5) 0.1600 Uiso
C14? C 0.419(3) 0.2002(19) 0.814(3) 0.1700 Uiso
H13? H 0.3863 0.2088 0.8239 0.0700 Uiso
H14? H 0.4072 0.1886 0.7831 0.0700 Uiso
O2? O 0.447(2) 0.148(2) 0.812(2) 0.1500 Uiso
H15? H 0.4531 0.2135 0.8353 0.0600 Uiso
O3? O 0.358(6) 0.142(6) 0.858(6) 0.2100 Uiso
loop_
_atom_site_aniso_label
_atom_site_aniso_U_11
_atom_site_aniso_U_22
_atom_site_aniso_U_33
_atom_site_aniso_U_23
_atom_site_aniso_U_13
_atom_site_aniso_U_12
Ag1 0.0949(7) 0.0799(7) 0.0791(7) -0.0103(6) -0.0033(6) -0.0019(6)
Ag2 0.0759(6) 0.0887(7) 0.0922(7) -0.0020(6) -0.0012(5) -0.0096(6)
N1 0.076(7) 0.072(6) 0.073(6) 0.001(6) 0.002(6) -0.016(5)
N2 0.082(7) 0.074(7) 0.084(8) 0.003(6) -0.025(6) -0.010(6)
N3 0.068(7) 0.070(6) 0.092(8) 0.002(6) 0.002(6) -0.006(6)
N4 0.084(7) 0.099(8) 0.069(6) 0.005(6) 0.004(6) -0.009(7)
C1 0.085(10) 0.152(15) 0.087(10) -0.012(10) 0.026(8) -0.016(10)
C2 0.107(11) 0.069(8) 0.073(8) 0.002(7) -0.006(8) 0.001(7)
C3 0.062(8) 0.091(9) 0.087(9) 0.013(7) -0.019(7) -0.010(7)
C4 0.089(10) 0.072(9) 0.095(10) -0.014(7) 0.018(8) 0.007(7)
C5 0.112(12) 0.108(12) 0.111(12) -0.041(10) 0.014(10) -0.024(10)
C6 0.087(9) 0.081(9) 0.096(10) 0.008(8) -0.018(8) -0.015(7)
C7 0.072(9) 0.090(10) 0.078(9) 0.008(8) -0.002(7) -0.012(7)
C8 0.082(9) 0.069(8) 0.092(10) -0.012(7) 0.011(8) 0.000(7)
C9 0.081(9) 0.096(10) 0.074(9) 0.006(8) -0.006(7) -0.024(8)
C10 0.145(15) 0.111(12) 0.085(10) 0.010(10) -0.002(10) -0.023(11)
Ag1K 0.0799 0.0791 0.0949 0.0033 0.0019 -0.0103
Ag2I 0.0887 0.0922 0.0759 0.0012 -0.0096 0.002
N2E 0.084 0.082 0.074 -0.01 -0.003 0.025
N4F 0.069 0.084 0.099 0.009 -0.005 0.004
loop_
_geom_bond_atom_site_label_1
_geom_bond_atom_site_label_2
_geom_bond_site_symmetry_1
_geom_bond_site_symmetry_2
Ag1 N1 1_555 1_555
Ag2 N3 1_555 1_555
N1 N2 1_555 1_555
N2 C4 1_555 1_555
N3 N4 1_555 1_555
N4 C9 1_555 1_555
C1 H1 1_555 1_555
H2 C1 1_555 1_555
H3 C1 1_555 1_555
C2 N1 1_555 1_555
C3 C2 1_555 1_555
C4 C3 1_555 1_555
C5 C4 1_555 1_555
H4 C5 1_555 1_555
H5 C5 1_555 1_555
H6 C5 1_555 1_555
C6 H7 1_555 1_555
H8 C6 1_555 1_555
H9 C6 1_555 1_555
C7 N3 1_555 1_555
C8 C3 1_555 1_555
C9 C8 1_555 1_555
C10 C9 1_555 1_555
H10 C10 1_555 1_555
H11 C10 1_555 1_555
H12 C10 1_555 1_555
O1 C12 1_555 1_555
C11 C12 1_555 1_555
Ag1K N2 1_555 1_555
Ag2I N4 1_555 1_555
N2E Ag1 1_555 1_555
N4F Ag2 1_555 1_555
C1 C2 1_555 1_555
C6 C7 1_555 1_555
C7 C8 1_555 1_555

#END
