
#######################################################################
#
#                 Cambridge Crystallographic Data Centre
#                                CCDC 
#
#######################################################################
#
# If this CIF has been generated from an entry in the Cambridge 
# Structural Database, then it will include bibliographic, chemical, 
# crystal, experimental, refinement or atomic coordinate data resulting 
# from the CCDC's data processing and validation procedures.
#
#######################################################################

data_YEYVII
_chemical_name_common            
catena-((mu!4$-3,3',5,5'-Tetramethyl-4,4'-bipyrazolato)-di-silver(i))
_chemical_formula_moiety         '(C10 H12 Ag2 N4)n'
_chemical_name_systematic        
catena-((\m~4~-3,3',5,5'-tetramethyl-1H,1'H-4,4'-bipyrazolato)-di-silver(i))
_symmetry_cell_setting           cubic
_symmetry_space_group_name_H-M   'I -4 3 d'
_symmetry_Int_Tables_number      220
_space_group_name_Hall           'I -4bd 2c 3'
loop_
_symmetry_equiv_pos_site_id
_symmetry_equiv_pos_as_xyz
1 x,y,z
2 1/2-x,-y,1/2+z
3 -x,1/2+y,1/2-z
4 1/2+x,1/2-y,-z
5 z,x,y
6 1/2+z,1/2-x,-y
7 1/2-z,-x,1/2+y
8 -z,1/2+x,1/2-y
9 y,z,x
10 -y,1/2+z,1/2-x
11 1/2+y,1/2-z,-x
12 1/2-y,-z,1/2+x
13 1/4+y,1/4+x,1/4+z
14 1/4-y,3/4-x,3/4+z
15 3/4+y,1/4-x,3/4-z
16 3/4-y,3/4+x,1/4-z
17 1/4+x,1/4+z,1/4+y
18 3/4-x,3/4+z,1/4-y
19 1/4-x,3/4-z,3/4+y
20 3/4+x,1/4-z,3/4-y
21 1/4+z,1/4+y,1/4+x
22 3/4+z,1/4-y,3/4-x
23 3/4-z,3/4+y,1/4-x
24 1/4-z,3/4-y,3/4+x
25 1/2+x,1/2+y,1/2+z
26 -x,1/2-y,z
27 1/2-x,y,-z
28 x,-y,1/2-z
29 1/2+z,1/2+x,1/2+y
30 z,-x,1/2-y
31 -z,1/2-x,y
32 1/2-z,x,-y
33 1/2+y,1/2+z,1/2+x
34 1/2-y,z,-x
35 y,-z,1/2-x
36 -y,1/2-z,x
37 3/4+y,3/4+x,3/4+z
38 3/4-y,1/4-x,1/4+z
39 1/4+y,3/4-x,1/4-z
40 1/4-y,1/4+x,3/4-z
41 3/4+x,3/4+z,3/4+y
42 1/4-x,1/4+z,3/4-y
43 3/4-x,1/4-z,1/4+y
44 1/4+x,3/4-z,1/4-y
45 3/4+z,3/4+y,3/4+x
46 1/4+z,3/4-y,1/4-x
47 1/4-z,1/4+y,3/4-x
48 3/4-z,1/4-y,1/4+x
_cell_length_a                   27.2326(15)
_cell_length_b                   27.2326(15)
_cell_length_c                   27.2326(15)
_cell_angle_alpha                90
_cell_angle_beta                 90
_cell_angle_gamma                90
_cell_volume                     20196.1
_exptl_crystal_colour            colorless
_exptl_crystal_description       polyhedral
_cell_formula_units_Z            48
loop_
_atom_site_label
_atom_site_type_symbol
_atom_site_fract_x
_atom_site_fract_y
_atom_site_fract_z
_atom_site_U_iso_or_equiv
_atom_site_thermal_displace_type
Ag1 Ag 0.43016(3) 0.97452(4) 0.01033(3) 0.1113 Uani
Ag2 Ag 0.22598(3) 1.14060(3) 0.23274(3) 0.1138 Uani
N1 N 0.4179(4) 1.0271(3) 0.0612(3) 0.1030 Uani
N2 N 0.4501(3) 1.0654(3) 0.0700(4) 0.1087 Uani
N3 N 0.2778(3) 1.1359(4) 0.1799(3) 0.1057 Uani
N4 N 0.2812(4) 1.1690(4) 0.1411(4) 0.1160 Uani
C1 C 0.3311(4) 1.0056(5) 0.0820(5) 0.1400 Uani
H1 H 0.3395 0.9765 0.0633 0.2100 Uiso
H2 H 0.3034 1.0220 0.0667 0.2100 Uiso
H3 H 0.3226 0.9963 0.1153 0.2100 Uiso
C2 C 0.3751(4) 1.0404(4) 0.0830(4) 0.1017 Uani
C3 C 0.3797(5) 1.0854(4) 0.1064(4) 0.1030 Uani
C4 C 0.4271(5) 1.0993(5) 0.0959(4) 0.1100 Uani
C5 C 0.4523(5) 1.1464(5) 0.1093(5) 0.1503 Uani
H4 H 0.4858 1.1459 0.0970 0.2250 Uiso
H5 H 0.4528 1.1500 0.1447 0.2250 Uiso
H6 H 0.4348 1.1738 0.0948 0.2250 Uiso
C6 C 0.3198(5) 1.0605(4) 0.2080(4) 0.1290 Uani
H7 H 0.2964 1.0648 0.2346 0.1940 Uiso
H8 H 0.3528 1.0598 0.2213 0.1940 Uiso
H9 H 0.3130 1.0299 0.1911 0.1940 Uiso
C7 C 0.3152(4) 1.1023(4) 0.1728(4) 0.0993 Uani
C8 C 0.3396(4) 1.1139(5) 0.1300(5) 0.1093 Uani
C9 C 0.3172(5) 1.1561(5) 0.1133(6) 0.1223 Uani
C10 C 0.3279(5) 1.1841(5) 0.0679(5) 0.1427 Uani
H10 H 0.3059 1.2121 0.0658 0.2140 Uiso
H11 H 0.3231 1.1631 0.0396 0.2140 Uiso
H12 H 0.3616 1.1955 0.0686 0.2140 Uiso
Ag1E Ag 0.51033(3) 1.06984(3) 0.02548(4) 0.1113 Uani
Ag2D Ag 0.23274(3) 1.22598(3) 0.14060(3) 0.1138 Uani
N2K N 0.4346(3) 0.9300(4) -0.0499(3) 0.1087 Uani
N4H N 0.1690(4) 1.1411(4) 0.2812(4) 0.1160 Uani
loop_
_atom_site_aniso_label
_atom_site_aniso_U_11
_atom_site_aniso_U_22
_atom_site_aniso_U_33
_atom_site_aniso_U_23
_atom_site_aniso_U_13
_atom_site_aniso_U_12
Ag1 0.1268(7) 0.1019(6) 0.1053(6) -0.0093(5) 0.0068(5) -0.0016(6)
Ag2 0.1021(6) 0.1264(7) 0.1130(7) -0.0020(6) 0.0127(6) 0.0031(5)
N1 0.127(7) 0.089(6) 0.093(5) 0.003(5) 0.022(5) 0.003(6)
N2 0.103(7) 0.096(6) 0.127(8) -0.015(5) 0.017(6) 0.001(5)
N3 0.084(6) 0.136(8) 0.097(6) 0.002(6) 0.010(5) 0.001(6)
N4 0.111(8) 0.103(7) 0.134(8) 0.011(6) 0.003(7) 0.002(6)
C1 0.114(9) 0.134(10) 0.172(12) -0.016(9) 0.022(8) -0.028(8)
C2 0.111(8) 0.110(8) 0.084(7) -0.009(6) -0.024(6) 0.008(7)
C3 0.116(9) 0.109(8) 0.084(7) -0.011(6) 0.007(6) 0.024(7)
C4 0.095(8) 0.128(10) 0.107(8) -0.017(7) 0.011(7) -0.010(7)
C5 0.141(11) 0.170(13) 0.140(11) -0.066(10) 0.027(9) -0.038(9)
C6 0.136(10) 0.132(10) 0.119(9) 0.010(8) 0.017(8) 0.045(8)
C7 0.092(7) 0.105(8) 0.101(8) -0.003(7) -0.002(6) -0.005(6)
C8 0.099(8) 0.129(10) 0.100(8) -0.010(7) -0.006(7) -0.019(7)
C9 0.108(10) 0.118(10) 0.141(12) -0.014(9) 0.019(9) 0.002(8)
C10 0.163(12) 0.122(10) 0.143(11) 0.007(9) 0.038(10) 0.018(9)
Ag1E 0.1053 0.1268 0.1019 -0.0016 0.0093 -0.0068
Ag2D 0.113 0.1021 0.1264 0.0031 -0.002 0.0127
N2K 0.096 0.127 0.103 -0.017 -0.001 -0.015
N4H 0.103 0.134 0.111 0.003 0.002 0.011
loop_
_geom_bond_atom_site_label_1
_geom_bond_atom_site_label_2
_geom_bond_site_symmetry_1
_geom_bond_site_symmetry_2
Ag1 N1 1_555 1_555
Ag2 N3 1_555 1_555
N1 N2 1_555 1_555
N2 C4 1_555 1_555
N3 N4 1_555 1_555
N4 C9 1_555 1_555
C1 H1 1_555 1_555
H2 C1 1_555 1_555
H3 C1 1_555 1_555
C2 N1 1_555 1_555
C3 C2 1_555 1_555
C4 C3 1_555 1_555
C5 C4 1_555 1_555
H4 C5 1_555 1_555
H5 C5 1_555 1_555
H6 C5 1_555 1_555
C6 H7 1_555 1_555
H8 C6 1_555 1_555
H9 C6 1_555 1_555
C7 N3 1_555 1_555
C8 C3 1_555 1_555
C9 C8 1_555 1_555
C10 C9 1_555 1_555
H10 C10 1_555 1_555
H11 C10 1_555 1_555
H12 C10 1_555 1_555
Ag1E N2 1_555 1_555
Ag2D N4 1_555 1_555
N2K Ag1 1_555 1_555
N4H Ag2 1_555 1_555
C1 C2 1_555 1_555
C6 C7 1_555 1_555
C7 C8 1_555 1_555

#END
