
#######################################################################
#
#                 Cambridge Crystallographic Data Centre
#                                CCDC 
#
#######################################################################
#
# If this CIF has been generated from an entry in the Cambridge 
# Structural Database, then it will include bibliographic, chemical, 
# crystal, experimental, refinement or atomic coordinate data resulting 
# from the CCDC's data processing and validation procedures.
#
#######################################################################

data_DAPXID
_chemical_formula_moiety         
'(C30 H12 Cu3 Mn2 N6 O18 2-)n,2n(Na1 1+),42.25n(H2 O1)'
_chemical_name_systematic        
"catena-(Di-sodium tris(\m~4~-N,N'-1,3-phenylenebis(oxamato))-tri-copper-di-manganese hydrate)"
_symmetry_cell_setting           tetragonal
_symmetry_space_group_name_H-M   'P 42/m n m'
_symmetry_Int_Tables_number      136
_space_group_name_Hall           '-P 4n 2n'
loop_
_symmetry_equiv_pos_site_id
_symmetry_equiv_pos_as_xyz
1 x,y,z
2 1/2+x,1/2-y,1/2-z
3 -x,-y,z
4 1/2-x,1/2+y,1/2-z
5 y,x,-z
6 1/2+y,1/2-x,1/2+z
7 1/2-y,1/2+x,1/2+z
8 -y,-x,-z
9 -x,-y,-z
10 1/2-x,1/2+y,1/2+z
11 x,y,-z
12 1/2+x,1/2-y,1/2+z
13 -y,-x,z
14 1/2-y,1/2+x,1/2-z
15 1/2+y,1/2-x,1/2-z
16 y,x,z
_cell_length_a                   36.351(5)
_cell_length_b                   36.351(5)
_cell_length_c                   14.943(3)
_cell_angle_alpha                90
_cell_angle_beta                 90
_cell_angle_gamma                90
_cell_volume                     19745.6
_exptl_crystal_colour            green
_exptl_crystal_description       prism
_cell_formula_units_Z            8
loop_
_atom_site_label
_atom_site_type_symbol
_atom_site_fract_x
_atom_site_fract_y
_atom_site_fract_z
C1 C 0.33725(13) 0.03848(11) 0.2894(3)
C2 C 0.31588(11) 0.03992(10) 0.2006(2)
C3 C 0.29072(10) 0.00775(9) 0.0800(2)
C4 C 0.25290(11) 0.00862(13) 0.0815(3)
H1 H 0.2401 0.0089 0.1354
C5 C 0.23429(17) 0.0091(2) 0.0000
H2 H 0.2087 0.0098 0.0000
C6 C 0.30995(14) 0.00736(12) 0.0000
H3 H 0.3355 0.0069 0.0000
C7 C 0.26896(11) 0.17037(10) 0.2126(3)
C8 C 0.25802(10) 0.15298(9) 0.3023(2)
C9 C 0.21607(9) 0.15085(9) 0.4198(2)
C10 C 0.19236(13) 0.12150(13) 0.4195(3)
H4 H 0.1838 0.1119 0.3658
C11 C 0.1814(3) 0.1065(3) 0.5000
H5 H 0.1663 0.0858 0.5000
C12 C 0.22854(13) 0.16579(13) 0.5000
H6 H 0.2449 0.1854 0.5000
C13 C 0.40266(11) 0.13430(14) 0.2149(3)
C14 C 0.39408(10) 0.15451(12) 0.3028(3)
C15 C 0.41731(9) 0.19127(10) 0.4187(2)
C16 C 0.41344(15) 0.22891(12) 0.4183(3)
H7 H 0.4117 0.2419 0.3648
C17 C 0.4122(3) 0.2469(2) 0.5000
H8 H 0.4105 0.2724 0.5000
C18 C 0.41912(14) 0.17256(15) 0.5000
H9 H 0.4216 0.1471 0.5000
Cu1 Cu 0.33538(3) -0.032208(15) 0.23322(4)
Cu2 Cu 0.208027(18) 0.208027(18) 0.26671(4)
Mn1 Mn 0.326138(15) 0.116880(15) 0.25393(4)
N1 N 0.31029(9) 0.00807(8) 0.1638(2)
N2 N 0.22811(8) 0.16666(8) 0.33697(19)
N3 N 0.42212(8) 0.17229(10) 0.3366(2)
O1 O 0.34254(10) 0.06814(8) 0.32894(19)
O2 O 0.30650(7) 0.07150(6) 0.17042(17)
O3 O 0.34875(12) 0.00781(9) 0.3166(2)
O4 O 0.29689(8) 0.15833(7) 0.17459(19)
O5 O 0.27835(7) 0.12761(7) 0.33232(17)
O6 O 0.24911(9) 0.19580(9) 0.18337(18)
O7 O 0.37718(7) 0.11742(10) 0.1784(2)
O8 O 0.36152(7) 0.15247(8) 0.33329(19)
O9 O 0.43497(8) 0.13661(12) 0.1854(2)
C1J C 0.33725(13) 0.03848(11) -0.2894(3)
C2J C 0.31588(11) 0.03992(10) -0.2006(2)
C3J C 0.29072(10) 0.00775(9) -0.0800(2)
C4J C 0.25290(11) 0.00862(13) -0.0815(3)
H1J H 0.2401 0.0089 -0.1354
C7J C 0.26896(11) 0.17037(10) 0.7874(3)
C8J C 0.25802(10) 0.15298(9) 0.6977(2)
C9J C 0.21607(9) 0.15085(9) 0.5802(2)
C10J C 0.19236(13) 0.12150(13) 0.5805(3)
H4J H 0.1838 0.1119 0.6342
C13J C 0.40266(11) 0.13430(14) 0.7851(3)
C14J C 0.39408(10) 0.15451(12) 0.6972(3)
C15J C 0.41731(9) 0.19127(10) 0.5813(2)
C16J C 0.41344(15) 0.22891(12) 0.5817(3)
H7J H 0.4117 0.2419 0.6352
Cu1J Cu 0.33538(3) -0.032208(15) -0.23322(4)
Cu1N Cu 0.467792(15) 0.16462(3) 0.26678(4)
Cu1E Cu 0.467792(15) 0.16462(3) 0.73322(4)
Cu2D Cu 0.208027(18) 0.208027(18) 0.73329(4)
Mn1J Mn 0.326138(15) 0.116880(15) 0.74607(4)
Mn1J_2 Mn 0.326138(15) 0.116880(15) -0.25393(4)
N1J N 0.31029(9) 0.00807(8) -0.1638(2)
N2J N 0.22811(8) 0.16666(8) 0.66303(19)
N2O N 0.16666(8) 0.22811(8) 0.33697(19)
N3J N 0.42212(8) 0.17229(10) 0.6634(2)
N3M N 0.32771(10) -0.07788(8) 0.1634(2)
N3F N 0.32771(10) -0.07788(8) -0.1634(2)
O1J O 0.34254(10) 0.06814(8) -0.32894(19)
O1J_2 O 0.34254(10) 0.06814(8) 0.67106(19)
O2J O 0.30650(7) 0.07150(6) -0.17042(17)
O2J_2 O 0.30650(7) 0.07150(6) 0.82958(17)
O3J O 0.34875(12) 0.00781(9) -0.3166(2)
O4J O 0.29689(8) 0.15833(7) 0.82541(19)
O5J O 0.27835(7) 0.12761(7) 0.66768(17)
O6J O 0.24911(9) 0.19580(9) 0.81663(18)
O6O O 0.19580(9) 0.24911(9) 0.18337(18)
O7J O 0.37718(7) 0.11742(10) 0.8216(2)
O8J O 0.36152(7) 0.15247(8) 0.66671(19)
O9J O 0.43497(8) 0.13661(12) 0.8146(2)
O9M O 0.36339(12) -0.06503(8) 0.3146(2)
O9F O 0.36339(12) -0.06503(8) -0.3146(2)
Na1 Na 0.29973(14) 0.16348(13) 0.0000
Na2 Na 0.24174(17) 0.24174(17) 0.0714(4)
Na3 Na 0.4672(5) 0.1248(5) -0.0623(14)
O10 O 0.39573(11) -0.01814(10) 0.1591(4)
O11 O 0.25357(12) 0.25357(12) 0.3398(5)
O12 O 0.40367(12) 0.05368(12) 0.0943(3)
O13 O 0.2895(2) 0.0925(2) 0.5000
O14 O 0.3278(2) 0.1781(2) 0.5000
O15 O 0.4332(2) -0.1242(2) 0.0000
O16 O 0.22909(14) 0.09764(14) 0.1509(4)
O17 O 0.2943(4) 0.2439(4) 0.5000
Cu3? Cu 0.31597(16) -0.03522(9) 0.2314(2)
O18? O 0.28167(13) -0.05000(16) 0.3263(3)
O19? O 0.1671(2) 0.1671(2) 0.1722(7)
O20? O 0.3196(2) 0.10249(14) 0.0000
O21? O 0.2399(3) 0.1378(4) 0.0000
O22? O 0.3636(4) 0.1653(4) 0.0000
O23? O 0.1994(4) 0.1994(4) 0.0000
O24? O 0.2254(3) 0.2859(3) 0.0291(6)
O25? O 0.42129(17) -0.05176(18) 0.0000
O26? O 0.2799(4) 0.2799(4) 0.161(2)
O27? O 0.3003(4) 0.1093(5) 0.5000
O28? O 0.1192(5) 0.1192(5) 0.2405(13)
O29? O 0.1450(4) 0.1450(4) 0.0000
O30? O 0.4633(7) -0.1551(7) 0.0000
O31? O 0.2084(3) -0.0417(3) 0.2817(6)
O32? O 0.2929(4) -0.0203(4) 0.5000
O33? O 0.3184(13) -0.0188(13) 0.5000
O34? O 0.4751(2) 0.0613(2) -0.1757(6)
O35? O 0.4872(4) 0.0480(4) 0.2401(10)
O36? O 0.5000 0.0000 0.2500
O37? O 0.3732(3) 0.2122(3) -0.1430(7)
O38? O 0.2499(3) 0.0520(3) 0.3327(9)
O39? O 0.1471(4) -0.0523(4) 0.0000
O40? O 0.1744(4) -0.0809(4) 0.1628(8)
O41? O 0.2805(6) 0.0374(6) 0.5000
O42? O 0.5052(3) 0.1085(3) -0.0665(8)
O43? O 0.2277(4) 0.3245(4) 0.3234(10)
O44? O 0.2043(6) 0.3177(6) 0.4137(15)
O45? O 0.0912(5) 0.0912(5) 0.4000(17)
O46? O 0.0783(13) -0.0783(13) 0.0000
O47? O 0.4959(6) -0.0452(6) 0.0000
O48? O 0.1332(8) 0.0233(8) 0.0000
O49? O 0.2021(5) -0.1517(5) 0.1227(13)
O50? O 0.1633(5) 0.0643(5) 0.1423(13)
O51? O 0.3990(10) 0.1306(10) 0.0000
loop_
_geom_bond_atom_site_label_1
_geom_bond_atom_site_label_2
_geom_bond_site_symmetry_1
_geom_bond_site_symmetry_2
C1 C2 1_555 1_555
C2 N1 1_555 1_555
C3 C4 1_555 1_555
C4 H1 1_555 1_555
C5 C4 1_555 1_555
H2 C5 1_555 1_555
C6 C3 1_555 1_555
H3 C6 1_555 1_555
C7 C8 1_555 1_555
C8 N2 1_555 1_555
C9 C10 1_555 1_555
C10 H4 1_555 1_555
C11 C10 1_555 1_555
H5 C11 1_555 1_555
C12 C9 1_555 1_555
H6 C12 1_555 1_555
C13 C14 1_555 1_555
C14 N3 1_555 1_555
C15 C16 1_555 1_555
C16 H7 1_555 1_555
C17 C16 1_555 1_555
H8 C17 1_555 1_555
C18 C15 1_555 1_555
H9 C18 1_555 1_555
Cu1 N1 1_555 1_555
Cu2 N2 1_555 1_555
Mn1 O1 1_555 1_555
N1 C3 1_555 1_555
N2 C9 1_555 1_555
N3 C15 1_555 1_555
O1 C1 1_555 1_555
O2 C2 1_555 1_555
O3 C1 1_555 1_555
O4 C7 1_555 1_555
O5 C8 1_555 1_555
O6 C7 1_555 1_555
O7 C13 1_555 1_555
O8 C14 1_555 1_555
O9 C13 1_555 1_555
C1J C2J 1_555 1_555
C2J N1J 1_555 1_555
C3J C6 1_555 1_555
C4J C5 1_555 1_555
H1J C4J 1_555 1_555
C7J C8J 1_555 1_555
C8J N2J 1_555 1_555
C9J C12 1_555 1_555
C10J C11 1_555 1_555
H4J C10J 1_555 1_555
C13J C14J 1_555 1_555
C14J N3J 1_555 1_555
C15J C18 1_555 1_555
C16J C17 1_555 1_555
H7J C16J 1_555 1_555
Cu1J N1J 1_555 1_555
Cu1N N3 1_555 1_555
Cu1E N3J 1_555 1_555
Cu2D N2J 1_555 1_555
Mn1J O1J_2 1_555 1_555
Mn1J_2 O1J 1_555 1_555
N1J C3J 1_555 1_555
N2J C9J 1_555 1_555
N2O Cu2 1_555 1_555
N3J C15J 1_555 1_555
N3M Cu1 1_555 1_555
N3F Cu1J 1_555 1_555
O1J C1J 1_555 1_555
O2J C2J 1_555 1_555
O2J_2 Mn1J 1_555 1_555
O3J C1J 1_555 1_555
O4J C7J 1_555 1_555
O5J C8J 1_555 1_555
O6J C7J 1_555 1_555
O6O Cu2 1_555 1_555
O7J C13J 1_555 1_555
O8J C14J 1_555 1_555
O9J C13J 1_555 1_555
O9M Cu1 1_555 1_555
O9F Cu1J 1_555 1_555
Cu1 O3 1_555 1_555
Cu2 O6 1_555 1_555
Mn1 O2 1_555 1_555
Mn1 O4 1_555 1_555
Mn1 O5 1_555 1_555
Mn1 O7 1_555 1_555
Mn1 O8 1_555 1_555
O9 Cu1N 1_555 1_555
C3J C4J 1_555 1_555
C9J C10J 1_555 1_555
C15J C16J 1_555 1_555
Cu1J O3J 1_555 1_555
Cu1E O9J 1_555 1_555
Cu2D O6J 1_555 1_555
Mn1J O4J 1_555 1_555
Mn1J O5J 1_555 1_555
Mn1J O7J 1_555 1_555
Mn1J O8J 1_555 1_555
Mn1J_2 O2J 1_555 1_555

#END
