
#######################################################################
#
#                 Cambridge Crystallographic Data Centre
#                                CCDC 
#
#######################################################################
#
# If this CIF has been generated from an entry in the Cambridge 
# Structural Database, then it will include bibliographic, chemical, 
# crystal, experimental, refinement or atomic coordinate data resulting 
# from the CCDC's data processing and validation procedures.
#
#######################################################################

data_CUVWEW
_chemical_name_common            F-MOF-6
_chemical_formula_moiety         '(C75 H40 Co3 F18 N4 O12)n'
_chemical_name_systematic        
catena-((\m~4~-4,4'-(1,1,1,3,3,3-hexafluoropropane-2,2-diyl)dibenzoato-O,O,O,O',O'',O''')-bis(\m~4~-4,4'-(1,1,1,3,3,3-hexafluoropropane-2,2-diyl)dibenzoato-O,O',O'',O''')-bis(1,10-phenanthroline)-tri-cobalt(ii))
_symmetry_cell_setting           monoclinic
_symmetry_space_group_name_H-M   'C 2/c'
_symmetry_Int_Tables_number      15
_space_group_name_Hall           '-C 2yc'
loop_
_symmetry_equiv_pos_site_id
_symmetry_equiv_pos_as_xyz
1 x,y,z
2 -x,y,1/2-z
3 1/2+x,1/2+y,z
4 1/2-x,1/2+y,1/2-z
5 -x,-y,-z
6 x,-y,1/2+z
7 1/2-x,1/2-y,-z
8 1/2+x,1/2-y,1/2+z
_cell_length_a                   36.616(6)
_cell_length_b                   13.551(2)
_cell_length_c                   26.373(4)
_cell_angle_alpha                90
_cell_angle_beta                 127.804(2)
_cell_angle_gamma                90
_cell_volume                     10339.3
_exptl_crystal_colour            colorless
_exptl_crystal_description       prism
_cell_formula_units_Z            4
loop_
_atom_site_label
_atom_site_type_symbol
_atom_site_fract_x
_atom_site_fract_y
_atom_site_fract_z
_atom_site_U_iso_or_equiv
_atom_site_thermal_displace_type
C1 C 0.95629(15) 0.3429(3) 0.7096(2) 0.0122 Uiso
C2 C 0.95460(16) 0.2593(4) 0.7383(2) 0.0179 Uani
H1 H 0.9788 0.2472 0.7824 0.0220 Uiso
C3 C 0.91840(15) 0.1928(4) 0.7042(2) 0.0153 Uani
H2 H 0.9182 0.1350 0.7244 0.0180 Uiso
C4 C 0.88219(15) 0.2113(3) 0.6399(2) 0.0145 Uiso
C5 C 0.88231(15) 0.2985(3) 0.6121(2) 0.0125 Uani
H3 H 0.8567 0.3140 0.5693 0.0150 Uiso
C6 C 0.91909(15) 0.3624(3) 0.6460(2) 0.0163 Uani
H4 H 0.9191 0.4204 0.6259 0.0200 Uiso
C7 C 1.0000 0.4092(5) 0.7500 0.0181 Uani
C8 C 0.84499(16) 0.1355(4) 0.6012(2) 0.0171 Uiso
C9 C 0.68706(17) 0.0680(4) 0.3262(2) 0.0255 Uani
C10 C 0.64776(16) 0.1203(4) 0.2820(2) 0.0257 Uani
H5 H 0.6392 0.1739 0.2960 0.0310 Uiso
C11 C 0.62051(17) 0.0971(4) 0.2181(2) 0.0301 Uani
H6 H 0.5926 0.1324 0.1887 0.0360 Uiso
C12 C 0.63324(17) 0.0231(4) 0.1959(2) 0.0273 Uani
C13 C 0.67326(19) -0.0307(5) 0.2404(3) 0.0358 Uani
H7 H 0.6824 -0.0826 0.2260 0.0430 Uiso
C14 C 0.69937(19) -0.0091(4) 0.3041(3) 0.0358 Uani
H8 H 0.7263 -0.0470 0.3339 0.0420 Uiso
C15 C 0.71682(17) 0.0908(4) 0.3982(2) 0.0204 Uani
C16 C 0.60340(18) -0.0113(5) 0.1248(2) 0.0340 Uani
C17 C 0.5757(2) -0.1019(5) 0.1182(3) 0.0402 Uiso
C18 C 0.56923(19) 0.0698(6) 0.0781(3) 0.0417 Uani
C19 C 0.63475(17) -0.0332(5) 0.1050(2) 0.0293 Uani
C20 C 0.63081(18) -0.1179(5) 0.0726(3) 0.0336 Uani
H9 H 0.6084 -0.1664 0.0618 0.0400 Uiso
C21 C 0.66822(19) 0.0382(4) 0.1201(3) 0.0297 Uiso
H10 H 0.6716 0.0962 0.1428 0.0360 Uiso
C22 C 0.72266(15) -0.0792(4) 0.0506(2) 0.0183 Uani
C23 C 0.69182(16) -0.0614(4) 0.0698(2) 0.0217 Uani
C24 C 0.65976(17) -0.1317(4) 0.0559(2) 0.0256 Uiso
H11 H 0.6574 -0.1906 0.0345 0.0310 Uiso
C25 C 0.69604(17) 0.0239(4) 0.1020(2) 0.0271 Uani
H12 H 0.7181 0.0725 0.1116 0.0320 Uiso
C26 C 1.00634(17) 0.4758(4) 0.7083(2) 0.0219 Uani
C27 C 0.8438(3) 0.0296(8) 0.4741(4) 0.0975 Uani
H13 H 0.8330 0.0958 0.4649 0.1170 Uiso
C28 C 0.8307(2) -0.1883(5) 0.5415(4) 0.0600 Uani
C29 C 0.8447(3) -0.2902(7) 0.5558(5) 0.0801 Uani
C30 C 0.8275(3) -0.3426(7) 0.5811(5) 0.0882 Uani
H14 H 0.8349 -0.4108 0.5900 0.1050 Uiso
C31 C 0.8009(3) -0.3022(6) 0.5938(4) 0.0818 Uani
H15 H 0.7907 -0.3399 0.6134 0.0980 Uiso
C32 C 0.7878(2) -0.2015(5) 0.5776(3) 0.0538 Uani
H16 H 0.7679 -0.1730 0.5852 0.0650 Uiso
C33 C 0.8458(3) -0.1283(6) 0.5144(4) 0.0678 Uani
C34 C 0.8754(4) -0.1668(10) 0.5003(6) 0.1170 Uani
C35 C 0.8863(6) -0.1042(15) 0.4711(8) 0.1670 Uani
H17 H 0.9040 -0.1292 0.4586 0.2010 Uiso
C36 C 0.8729(5) -0.0050(13) 0.4584(7) 0.1523 Uani
H18 H 0.8827 0.0377 0.4402 0.1830 Uiso
C37 C 0.8873(4) -0.2682(10) 0.5148(7) 0.1325 Uani
H19 H 0.9059 -0.2967 0.5047 0.1580 Uiso
C38 C 0.8734(3) -0.3278(9) 0.5428(6) 0.1143 Uani
H20 H 0.8835 -0.3944 0.5531 0.1370 Uiso
Co1 Co 0.74800(9) 0.25828(17) 0.49806(12) 0.0049 Uiso
Co2 Co 0.78827(2) 0.00402(5) 0.52892(3) 0.0220 Uani
F1 F 0.97479(10) 0.5487(2) 0.67829(15) 0.0309 Uani
F2 F 1.04795(9) 0.5193(2) 0.74381(14) 0.0299 Uani
F3 F 1.00314(9) 0.4227(2) 0.66284(13) 0.0256 Uani
F4 F 0.60298(12) -0.1794(3) 0.15003(16) 0.0481 Uani
F5 F 0.54371(11) -0.1309(3) 0.05742(15) 0.0540 Uani
F6 F 0.55310(12) -0.0851(3) 0.14260(17) 0.0579 Uani
F7 F 0.53381(10) 0.0825(3) 0.08048(15) 0.0507 Uani
F8 F 0.58963(11) 0.1574(3) 0.09011(15) 0.0460 Uani
F9 F 0.55024(11) 0.0465(3) 0.01690(14) 0.0516 Uani
N1 N 0.8320(2) -0.0314(5) 0.5018(3) 0.0579 Uani
N2 N 0.80264(16) -0.1466(4) 0.5522(2) 0.0420 Uani
O1 O 0.71688(11) 0.1782(3) 0.41299(14) 0.0202 Uani
O2 O 0.80955(10) 0.1563(2) 0.54440(14) 0.0142 Uani
O3 O 0.85013(11) 0.0516(3) 0.62355(16) 0.0251 Uani
O4 O 0.7183(3) -0.1530(6) 0.0223(4) 0.0109 Uiso
O5 O 0.74752(12) -0.0082(3) 0.05745(17) 0.0266 Uani
O6 O 0.73754(14) 0.0184(3) 0.43423(17) 0.0356 Uani
C1A C 1.04371(15) 0.3429(3) 0.7904(2) 0.0122 Uiso
C2A C 1.04540(16) 0.2593(4) 0.7617(2) 0.0179 Uani
H1A H 1.0212 0.2472 0.7176 0.0220 Uiso
C3A C 1.08160(15) 0.1928(4) 0.7958(2) 0.0153 Uani
H2A H 1.0818 0.1350 0.7756 0.0180 Uiso
C4A C 1.11781(15) 0.2113(3) 0.8601(2) 0.0145 Uiso
C5A C 1.11769(15) 0.2985(3) 0.8879(2) 0.0125 Uani
H3A H 1.1433 0.3140 0.9307 0.0150 Uiso
C6A C 1.08091(15) 0.3624(3) 0.8540(2) 0.0163 Uani
H4A H 1.0809 0.4204 0.8741 0.0200 Uiso
C8A C 1.15501(16) 0.1355(4) 0.8988(2) 0.0171 Uiso
C9F C 0.81294(17) 0.4320(4) 0.6738(2) 0.0255 Uani
C10F C 0.85224(16) 0.3797(4) 0.7180(2) 0.0257 Uani
H5F H 0.8608 0.3261 0.7040 0.0310 Uiso
C11F C 0.87949(17) 0.4029(4) 0.7819(2) 0.0301 Uani
H6F H 0.9074 0.3676 0.8113 0.0360 Uiso
C12F C 0.86676(17) 0.4769(4) 0.8041(2) 0.0273 Uani
C13F C 0.82674(19) 0.5307(5) 0.7596(3) 0.0358 Uani
H7F H 0.8176 0.5826 0.7740 0.0430 Uiso
C14F C 0.80063(19) 0.5091(4) 0.6959(3) 0.0358 Uani
H8F H 0.7737 0.5470 0.6661 0.0420 Uiso
C15F C 0.78318(17) 0.4092(4) 0.6018(2) 0.0204 Uani
C16F C 0.89660(18) 0.5113(5) 0.8752(2) 0.0340 Uani
C17F C 0.9243(2) 0.6019(5) 0.8818(3) 0.0402 Uiso
C18F C 0.93077(19) 0.4302(6) 0.9219(3) 0.0417 Uani
C19F C 0.86525(17) 0.5332(5) 0.8950(2) 0.0293 Uani
C20F C 0.86919(18) 0.6179(5) 0.9274(3) 0.0336 Uani
H9F H 0.8916 0.6664 0.9382 0.0400 Uiso
C21F C 0.83178(19) 0.4618(4) 0.8799(3) 0.0297 Uiso
H10F H 0.8284 0.4038 0.8572 0.0360 Uiso
C22F C 0.77734(15) 0.5792(4) 0.9494(2) 0.0183 Uani
C23F C 0.80818(16) 0.5614(4) 0.9302(2) 0.0217 Uani
C24F C 0.84024(17) 0.6317(4) 0.9441(2) 0.0256 Uiso
H11F H 0.8426 0.6906 0.9655 0.0310 Uiso
C25F C 0.80396(17) 0.4761(4) 0.8980(2) 0.0271 Uani
H12F H 0.7819 0.4275 0.8884 0.0320 Uiso
C26A C 0.99366(17) 0.4758(4) 0.7917(2) 0.0219 Uani
C27A C 1.1562(3) 0.0296(8) 1.0259(4) 0.0975 Uani
H13A H 1.1670 0.0958 1.0351 0.1170 Uiso
C28A C 1.1693(2) -0.1883(5) 0.9585(4) 0.0600 Uani
C29A C 1.1553(3) -0.2902(7) 0.9442(5) 0.0801 Uani
C30A C 1.1725(3) -0.3426(7) 0.9189(5) 0.0882 Uani
H14A H 1.1651 -0.4108 0.9100 0.1050 Uiso
C31A C 1.1991(3) -0.3022(6) 0.9062(4) 0.0818 Uani
H15A H 1.2093 -0.3399 0.8866 0.0980 Uiso
C32A C 1.2122(2) -0.2015(5) 0.9224(3) 0.0538 Uani
H16A H 1.2321 -0.1730 0.9148 0.0650 Uiso
C33A C 1.1542(3) -0.1283(6) 0.9856(4) 0.0678 Uani
C34A C 1.1246(4) -0.1668(10) 0.9997(6) 0.1170 Uani
C35A C 1.1137(6) -0.1042(15) 1.0289(8) 0.1670 Uani
H17A H 1.0960 -0.1292 1.0414 0.2010 Uiso
C36A C 1.1271(5) -0.0050(13) 1.0416(7) 0.1523 Uani
H18A H 1.1173 0.0377 1.0598 0.1830 Uiso
C37A C 1.1127(4) -0.2682(10) 0.9852(7) 0.1325 Uani
H19A H 1.0941 -0.2967 0.9953 0.1580 Uiso
C38A C 1.1266(3) -0.3278(9) 0.9572(6) 0.1143 Uani
H20A H 1.1165 -0.3944 0.9469 0.1370 Uiso
Co1F Co 0.75200(9) 0.24172(17) 0.50194(12) 0.0049 Uiso
Co1C Co 0.75200(9) -0.24172(17) 0.00194(12) 0.0049 Uiso
Co1E Co 0.74800(9) -0.25828(17) -0.00194(12) 0.0049 Uiso
Co1A Co 1.25200(9) 0.25828(17) 1.00194(12) 0.0049 Uiso
Co1G Co 1.24800(9) 0.24172(17) 0.99806(12) 0.0049 Uiso
Co1E_2 Co 0.74800(9) 0.74172(17) 0.99806(12) 0.0049 Uiso
Co1C_2 Co 0.75200(9) 0.75828(17) 1.00194(12) 0.0049 Uiso
Co2A Co 1.21173(2) 0.00402(5) 0.97108(3) 0.0220 Uani
Co2E Co 0.78827(2) -0.00402(5) 0.02892(3) 0.0220 Uani
Co2C Co 0.71173(2) 0.50402(5) 0.97108(3) 0.0220 Uani
Co2F Co 0.71173(2) 0.49598(5) 0.47108(3) 0.0220 Uani
F1A F 1.02521(10) 0.5487(2) 0.82171(15) 0.0309 Uani
F2A F 0.95205(9) 0.5193(2) 0.75619(14) 0.0299 Uani
F3A F 0.99686(9) 0.4227(2) 0.83716(13) 0.0256 Uani
F4F F 0.89702(12) 0.6794(3) 0.84997(16) 0.0481 Uani
F5F F 0.95629(11) 0.6309(3) 0.94258(15) 0.0540 Uani
F6F F 0.94690(12) 0.5851(3) 0.85740(17) 0.0579 Uani
F7F F 0.96619(10) 0.4175(3) 0.91952(15) 0.0507 Uani
F8F F 0.91037(11) 0.3426(3) 0.90989(15) 0.0460 Uani
F9F F 0.94976(11) 0.4535(3) 0.98310(14) 0.0516 Uani
N1A N 1.1680(2) -0.0314(5) 0.9982(3) 0.0579 Uani
N2A N 1.19736(16) -0.1466(4) 0.9478(2) 0.0420 Uani
O1F O 0.78312(11) 0.3218(3) 0.58701(14) 0.0202 Uani
O2A O 1.19045(10) 0.1563(2) 0.95560(14) 0.0142 Uani
O2F O 0.69045(10) 0.3437(2) 0.45560(14) 0.0142 Uani
O3A O 1.14987(11) 0.0516(3) 0.87645(16) 0.0251 Uani
O4F O 0.7817(3) 0.6530(6) 0.9777(4) 0.0109 Uiso
O4C O 0.7817(3) 0.3470(6) 0.4777(4) 0.0109 Uiso
O4E O 0.7183(3) 0.1530(6) 0.5223(4) 0.0109 Uiso
O5F O 0.75248(12) 0.5082(3) 0.94255(17) 0.0266 Uani
O5E O 0.74752(12) 0.0082(3) 0.55745(17) 0.0266 Uani
O5D O 1.25248(12) 0.0082(3) 0.94255(17) 0.0266 Uani
O6F O 0.76246(14) 0.4816(3) 0.56577(17) 0.0356 Uani
O6A O 1.26246(14) 0.0184(3) 1.06577(17) 0.0356 Uani
O7? O 0.7222(3) -0.1703(6) 0.0343(4) 0.0109 Uiso
loop_
_atom_site_aniso_label
_atom_site_aniso_U_11
_atom_site_aniso_U_22
_atom_site_aniso_U_33
_atom_site_aniso_U_23
_atom_site_aniso_U_13
_atom_site_aniso_U_12
C2 0.015 0.027 0.02 0 0.015 -0.001
C3 0.012 0.022 0.02 0.004 0.014 0.002
C5 0.008 0.019 0.017 0.0045 0.011 0.002
C6 0.018 0.016 0.027 0.009 0.02 0.004
C7 0.003 0.028 0.022 0 0.007 0
C9 0.02 0.041 0.023 -0.014 0.017 -0.009
C10 0.017 0.044 0.027 -0.011 0.019 0.002
C11 0.012 0.061 0.021 -0.015 0.012 0.004
C12 0.015 0.049 0.019 -0.013 0.011 0.002
C13 0.029 0.054 0.03 -0.022 0.021 0.005
C14 0.025 0.049 0.031 -0.008 0.016 0.011
C15 0.019 0.029 0.022 -0.012 0.017 -0.006
C16 0.022 0.063 0.022 -0.019 0.016 0
C18 0.015 0.087 0.021 -0.012 0.01 0.016
C19 0.015 0.057 0.019 -0.011 0.012 0.005
C20 0.022 0.057 0.031 -0.023 0.021 -0.01
C22 0.005 0.029 0.016 -0.008 0.004 -0.002
C23 0.011 0.036 0.012 -0.005 0.004 0.007
C25 0.019 0.037 0.027 -0.013 0.015 -0.003
C26 0.02 0.023 0.03 0.007 0.019 -0.001
C27 0.117 0.135 0.104 -0.051 0.1 -0.041
C28 0.027 0.034 0.08 -0.042 0.013 -0.02
C29 0.04 0.069 0.105 -0.038 0.031 -0.003
C30 0.048 0.048 0.119 -0.026 0.026 -0.004
C31 0.071 0.038 0.11 -0.003 0.042 -0.018
C32 0.04 0.027 0.066 0.006 0.018 -0.011
C33 0.056 0.06 0.085 -0.044 0.042 0.002
C34 0.1 0.13 0.168 -0.089 0.106 -0.017
C35 0.202 0.226 0.21 -0.094 0.196 -0.056
C36 0.161 0.212 0.188 -0.1 0.16 -0.083
C37 0.104 0.117 0.206 -0.102 0.11 -0.012
C38 0.066 0.083 0.171 -0.058 0.061 0
Co2 0.0197 0.0223 0.0258 -0.0052 0.0149 -0.0043
F1 0.023 0.0225 0.0454 0.0104 0.0201 0.0023
F2 0.016 0.0343 0.0416 0.0054 0.0188 -0.0064
F3 0.0187 0.0397 0.0291 0.0108 0.0201 0.0014
F4 0.053 0.066 0.047 -0.023 0.0417 -0.021
F5 0.0263 0.102 0.039 -0.044 0.0227 -0.02
F6 0.045 0.101 0.058 -0.042 0.047 -0.022
F7 0.0156 0.107 0.0276 -0.0195 0.0123 0.0145
F8 0.033 0.075 0.0293 -0.0059 0.0187 0.017
F9 0.0234 0.107 0.0168 -0.0173 0.0084 0.0113
N1 0.051 0.085 0.062 -0.039 0.047 -0.019
N2 0.022 0.028 0.049 -0.013 0.008 0.008
O1 0.0155 0.032 0.0148 -0.0114 0.0101 -0.0045
O2 0.0137 0.0197 0.0154 -0.0045 0.0121 -0.0036
O3 0.0185 0.022 0.0243 0.0006 0.0078 -0.0079
O5 0.024 0.033 0.032 -0.0072 0.0218 0.01
O6 0.047 0.025 0.022 -0.0042 0.0146 -0.0044
C2A 0.015 0.027 0.02 0 0.015 0.001
C3A 0.012 0.022 0.02 -0.004 0.014 -0.002
C5A 0.008 0.019 0.017 -0.0045 0.011 -0.002
C6A 0.018 0.016 0.027 -0.009 0.02 -0.004
C9F 0.02 0.041 0.023 -0.014 0.017 -0.009
C10F 0.017 0.044 0.027 -0.011 0.019 0.002
C11F 0.012 0.061 0.021 -0.015 0.012 0.004
C12F 0.015 0.049 0.019 -0.013 0.011 0.002
C13F 0.029 0.054 0.03 -0.022 0.021 0.005
C14F 0.025 0.049 0.031 -0.008 0.016 0.011
C15F 0.019 0.029 0.022 -0.012 0.017 -0.006
C16F 0.022 0.063 0.022 -0.019 0.016 0
C18F 0.015 0.087 0.021 -0.012 0.01 0.016
C19F 0.015 0.057 0.019 -0.011 0.012 0.005
C20F 0.022 0.057 0.031 -0.023 0.021 -0.01
C22F 0.005 0.029 0.016 -0.008 0.004 -0.002
C23F 0.011 0.036 0.012 -0.005 0.004 0.007
C25F 0.019 0.037 0.027 -0.013 0.015 -0.003
C26A 0.02 0.023 0.03 -0.007 0.019 0.001
C27A 0.117 0.135 0.104 0.051 0.1 0.041
C28A 0.027 0.034 0.08 0.042 0.013 0.02
C29A 0.04 0.069 0.105 0.038 0.031 0.003
C30A 0.048 0.048 0.119 0.026 0.026 0.004
C31A 0.071 0.038 0.11 0.003 0.042 0.018
C32A 0.04 0.027 0.066 -0.006 0.018 0.011
C33A 0.056 0.06 0.085 0.044 0.042 -0.002
C34A 0.1 0.13 0.168 0.089 0.106 0.017
C35A 0.202 0.226 0.21 0.094 0.196 0.056
C36A 0.161 0.212 0.188 0.1 0.16 0.083
C37A 0.104 0.117 0.206 0.102 0.11 0.012
C38A 0.066 0.083 0.171 0.058 0.061 0
Co2A 0.0197 0.0223 0.0258 0.0052 0.0149 0.0043
Co2E 0.0197 0.0223 0.0258 0.0052 0.0149 0.0043
Co2C 0.0197 0.0223 0.0258 0.0052 0.0149 0.0043
Co2F 0.0197 0.0223 0.0258 -0.0052 0.0149 -0.0043
F1A 0.023 0.0225 0.0454 -0.0104 0.0201 -0.0023
F2A 0.016 0.0343 0.0416 -0.0054 0.0188 0.0064
F3A 0.0187 0.0397 0.0291 -0.0108 0.0201 -0.0014
F4F 0.053 0.066 0.047 -0.023 0.0417 -0.021
F5F 0.0263 0.102 0.039 -0.044 0.0227 -0.02
F6F 0.045 0.101 0.058 -0.042 0.047 -0.022
F7F 0.0156 0.107 0.0276 -0.0195 0.0123 0.0145
F8F 0.033 0.075 0.0293 -0.0059 0.0187 0.017
F9F 0.0234 0.107 0.0168 -0.0173 0.0084 0.0113
N1A 0.051 0.085 0.062 0.039 0.047 0.019
N2A 0.022 0.028 0.049 0.013 0.008 -0.008
O1F 0.0155 0.032 0.0148 -0.0114 0.0101 -0.0045
O2A 0.0137 0.0197 0.0154 0.0045 0.0121 0.0036
O2F 0.0137 0.0197 0.0154 -0.0045 0.0121 -0.0036
O3A 0.0185 0.022 0.0243 -0.0006 0.0078 0.0079
O5F 0.024 0.033 0.032 -0.0072 0.0218 0.01
O5E 0.024 0.033 0.032 0.0072 0.0218 -0.01
O5D 0.024 0.033 0.032 -0.0072 0.0218 0.01
O6F 0.047 0.025 0.022 -0.0042 0.0146 -0.0044
O6A 0.047 0.025 0.022 0.0042 0.0146 0.0044
loop_
_geom_bond_atom_site_label_1
_geom_bond_atom_site_label_2
_geom_bond_site_symmetry_1
_geom_bond_site_symmetry_2
C1 C2 1_555 1_555
C2 H1 1_555 1_555
C3 C2 1_555 1_555
H2 C3 1_555 1_555
C4 C3 1_555 1_555
C5 C4 1_555 1_555
H3 C5 1_555 1_555
C6 C1 1_555 1_555
H4 C6 1_555 1_555
C7 C1 1_555 1_555
C8 C4 1_555 1_555
C9 C10 1_555 1_555
C10 H5 1_555 1_555
C11 C10 1_555 1_555
H6 C11 1_555 1_555
C12 C11 1_555 1_555
C13 C12 1_555 1_555
H7 C13 1_555 1_555
C14 C9 1_555 1_555
H8 C14 1_555 1_555
C15 C9 1_555 1_555
C16 C12 1_555 1_555
C17 C16 1_555 1_555
C18 C16 1_555 1_555
C19 C16 1_555 1_555
C20 C19 1_555 1_555
H9 C20 1_555 1_555
C21 C19 1_555 1_555
H10 C21 1_555 1_555
C22 C23 1_555 1_555
C23 C24 1_555 1_555
C24 C20 1_555 1_555
H11 C24 1_555 1_555
C25 C21 1_555 1_555
H12 C25 1_555 1_555
C26 C7 1_555 1_555
C27 H13 1_555 1_555
C28 C29 1_555 1_555
C29 C30 1_555 1_555
C30 H14 1_555 1_555
C31 C30 1_555 1_555
H15 C31 1_555 1_555
C32 C31 1_555 1_555
H16 C32 1_555 1_555
C33 C28 1_555 1_555
C34 C33 1_555 1_555
C35 C34 1_555 1_555
H17 C35 1_555 1_555
C36 C27 1_555 1_555
H18 C36 1_555 1_555
C37 C34 1_555 1_555
H19 C37 1_555 1_555
C38 C29 1_555 1_555
H20 C38 1_555 1_555
Co1 O1 1_555 1_555
Co2 N1 1_555 1_555
F1 C26 1_555 1_555
F2 C26 1_555 1_555
F3 C26 1_555 1_555
F4 C17 1_555 1_555
F5 C17 1_555 1_555
F6 C17 1_555 1_555
F7 C18 1_555 1_555
F8 C18 1_555 1_555
F9 C18 1_555 1_555
N1 C27 1_555 1_555
N2 C28 1_555 1_555
O1 C15 1_555 1_555
O2 C8 1_555 1_555
O3 C8 1_555 1_555
O4 C22 1_555 1_555
O5 C22 1_555 1_555
O6 C15 1_555 1_555
C1A C7 1_555 1_555
C2A C1A 1_555 1_555
H1A C2A 1_555 1_555
C3A C2A 1_555 1_555
H2A C3A 1_555 1_555
C4A C3A 1_555 1_555
C5A C4A 1_555 1_555
H3A C5A 1_555 1_555
C6A C1A 1_555 1_555
H4A C6A 1_555 1_555
C8A C4A 1_555 1_555
C9F C10F 1_555 1_555
C10F H5F 1_555 1_555
C11F C10F 1_555 1_555
H6F C11F 1_555 1_555
C12F C11F 1_555 1_555
C13F C12F 1_555 1_555
H7F C13F 1_555 1_555
C14F C9F 1_555 1_555
H8F C14F 1_555 1_555
C15F C9F 1_555 1_555
C16F C12F 1_555 1_555
C17F C16F 1_555 1_555
C18F C16F 1_555 1_555
C19F C16F 1_555 1_555
C20F C19F 1_555 1_555
H9F C20F 1_555 1_555
C21F C19F 1_555 1_555
H10F C21F 1_555 1_555
C22F C23F 1_555 1_555
C23F C24F 1_555 1_555
C24F C20F 1_555 1_555
H11F C24F 1_555 1_555
C25F C21F 1_555 1_555
H12F C25F 1_555 1_555
C26A C7 1_555 1_555
C27A H13A 1_555 1_555
C28A C29A 1_555 1_555
C29A C30A 1_555 1_555
C30A H14A 1_555 1_555
C31A C30A 1_555 1_555
H15A C31A 1_555 1_555
C32A C31A 1_555 1_555
H16A C32A 1_555 1_555
C33A C28A 1_555 1_555
C34A C33A 1_555 1_555
C35A C34A 1_555 1_555
H17A C35A 1_555 1_555
C36A C27A 1_555 1_555
H18A C36A 1_555 1_555
C37A C34A 1_555 1_555
H19A C37A 1_555 1_555
C38A C29A 1_555 1_555
H20A C38A 1_555 1_555
Co1F Co1 1_555 1_555
Co1C O4 1_555 1_555
Co1E O4 1_555 1_555
Co1A Co1G 1_555 1_555
Co1G O2A 1_555 1_555
Co1E_2 Co1C_2 1_555 1_555
Co1C_2 O4F 1_555 1_555
Co2A N1A 1_555 1_555
Co2E O5 1_555 1_555
Co2C O5F 1_555 1_555
Co2F O2F 1_555 1_555
F1A C26A 1_555 1_555
F2A C26A 1_555 1_555
F3A C26A 1_555 1_555
F4F C17F 1_555 1_555
F5F C17F 1_555 1_555
F6F C17F 1_555 1_555
F7F C18F 1_555 1_555
F8F C18F 1_555 1_555
F9F C18F 1_555 1_555
N1A C27A 1_555 1_555
N2A C28A 1_555 1_555
O1F Co1 1_555 1_555
O2A C8A 1_555 1_555
O2F Co1 1_555 1_555
O3A C8A 1_555 1_555
O4F C22F 1_555 1_555
O4C Co1 1_555 1_555
O4E Co1 1_555 1_555
O5F C22F 1_555 1_555
O5E Co2 1_555 1_555
O5D Co2A 1_555 1_555
O6F C15F 1_555 1_555
O6A Co2A 1_555 1_555
C5 C6 1_555 1_555
C13 C14 1_555 1_555
C23 C25 1_555 1_555
C32 N2 1_555 1_555
C33 N1 1_555 1_555
C35 C36 1_555 1_555
C37 C38 1_555 1_555
Co1 O2 1_555 1_555
Co2 N2 1_555 1_555
Co2 O2 1_555 1_555
Co2 O3 1_555 1_555
Co2 O6 1_555 1_555
O1 Co1F 1_555 1_555
O2 Co1F 1_555 1_555
C5A C6A 1_555 1_555
C13F C14F 1_555 1_555
C15F O1F 1_555 1_555
C23F C25F 1_555 1_555
C32A N2A 1_555 1_555
C33A N1A 1_555 1_555
C35A C36A 1_555 1_555
C37A C38A 1_555 1_555
Co1F O1F 1_555 1_555
Co1F O2F 1_555 1_555
Co1F O4C 1_555 1_555
Co1F O4E 1_555 1_555
Co1C Co1E 1_555 1_555
Co1A O2A 1_555 1_555
Co1E_2 O4F 1_555 1_555
Co2A N2A 1_555 1_555
Co2A O2A 1_555 1_555
Co2A O3A 1_555 1_555
Co2F O6F 1_555 1_555

#END
