
#######################################################################
#
#                 Cambridge Crystallographic Data Centre
#                                CCDC 
#
#######################################################################
#
# If this CIF has been generated from an entry in the Cambridge 
# Structural Database, then it will include bibliographic, chemical, 
# crystal, experimental, refinement or atomic coordinate data resulting 
# from the CCDC's data processing and validation procedures.
#
#######################################################################

data_CUVXAT
_chemical_name_common            F-MOF-10
_chemical_formula_moiety         '(C75 H40 F18 Mn3 N4 O12)n'
_chemical_name_systematic        
"catena-((\m~4~-4,4'-(1,1,1,3,3,3-hexafluoropropane-2,2-diyl)dibenzoato-O,O,O,O',O'',O''')-bis(\m~4~-4,4'-(1,1,1,3,3,3-hexafluoropropane-2,2-diyl)dibenzoato-O,O',O'',O''')-bis(1,10-phenanthroline)-tri-manganese(ii) unknown solvate)"
_symmetry_cell_setting           monoclinic
_symmetry_space_group_name_H-M   'C 2/c'
_symmetry_Int_Tables_number      15
_space_group_name_Hall           '-C 2yc'
loop_
_symmetry_equiv_pos_site_id
_symmetry_equiv_pos_as_xyz
1 x,y,z
2 -x,y,1/2-z
3 1/2+x,1/2+y,z
4 1/2-x,1/2+y,1/2-z
5 -x,-y,-z
6 x,-y,1/2+z
7 1/2-x,1/2-y,-z
8 1/2+x,1/2-y,1/2+z
_cell_length_a                   37.09(2)
_cell_length_b                   13.643(7)
_cell_length_c                   29.671(12)
_cell_angle_alpha                90
_cell_angle_beta                 135.04(2)
_cell_angle_gamma                90
_cell_volume                     10609.1
_exptl_crystal_colour            colorless
_exptl_crystal_description       prism
_cell_formula_units_Z            4
loop_
_atom_site_label
_atom_site_type_symbol
_atom_site_fract_x
_atom_site_fract_y
_atom_site_fract_z
Mn1 Mn 0.5000 0.5000 0.5000
Mn2 Mn 0.51039(2) 0.24831(4) 0.47359(3)
F1 F 0.20467(12) 0.4173(3) 0.35026(17)
F2 F 0.23657(13) 0.3714(3) 0.44095(16)
F3 F 0.16219(12) 0.3251(3) 0.35657(18)
F4 F 0.20390(12) 0.1609(3) 0.41858(14)
F5 F 0.28277(11) 0.1952(4) 0.48245(12)
F6 F 0.25000(12) 0.0857(3) 0.41115(15)
F7 F 0.44712(14) 0.7557(2) 0.24516(17)
F8 F 0.41010(11) 0.6618(2) 0.16507(14)
F9 F 0.45285(13) 0.7850(2) 0.17981(15)
O1 O 0.44148(12) 0.4030(2) 0.47134(15)
O2 O 0.44310(13) 0.2470(2) 0.45147(17)
O3 O 0.51712(10) 0.40527(19) 0.45555(12)
O4 O 0.47521(14) 0.3017(2) 0.37683(14)
O5 O 0.05568(11) 0.0707(2) 0.09018(12)
O6 O 0.06322(12) 0.2240(2) 0.07074(13)
N1 N 0.49411(19) 0.0908(3) 0.4426(2)
N2 N 0.57745(19) 0.1898(4) 0.4922(2)
C1 C 0.42377(15) 0.3195(3) 0.45427(18)
C2 C 0.37431(15) 0.3024(3) 0.43518(18)
C3 C 0.34674(18) 0.2166(4) 0.4052(2)
H1 H 0.3592 0.1674 0.3975
C4 C 0.30106(18) 0.2041(4) 0.3867(2)
H2 H 0.2828 0.1464 0.3661
C5 C 0.28171(16) 0.2736(4) 0.39774(19)
C6 C 0.30947(18) 0.3584(4) 0.4291(2)
H3 H 0.2979 0.4057 0.4390
C7 C 0.35484(18) 0.3727(4) 0.4459(2)
H4 H 0.3724 0.4315 0.4648
C8 C 0.4528(3) 0.0414(5) 0.4188(3)
H5 H 0.4284 0.0725 0.4149
C9 C 0.4772(5) -0.1008(6) 0.4024(5)
H6 H 0.4703 -0.1648 0.3874
C10 C 0.5636(7) -0.0961(7) 0.4364(7)
H7 H 0.5620 -0.1620 0.4273
C11 C 0.5288(3) 0.0437(4) 0.4474(3)
C12 C 0.5727(3) 0.0935(5) 0.4737(3)
C13 C 0.11739(16) 0.1269(3) 0.21917(19)
H8 H 0.0939 0.0775 0.2045
C14 C 0.15376(17) 0.1502(4) 0.2825(2)
H9 H 0.1538 0.1181 0.3102
C15 C 0.19014(15) 0.2199(4) 0.30622(19)
C16 C 0.18854(17) 0.2683(4) 0.2641(2)
H10 H 0.2130 0.3158 0.2793
C17 C 0.15144(16) 0.2477(3) 0.1999(2)
H11 H 0.1507 0.2819 0.1721
C18 C 0.11535(15) 0.1766(3) 0.17667(17)
C19 C 0.07480(15) 0.1546(3) 0.10702(18)
C20 C 0.23050(18) 0.2518(4) 0.3767(2)
C21 C 0.24179(19) 0.1743(5) 0.4222(2)
C22 C 0.2088(2) 0.3397(5) 0.3821(3)
C23 C 0.49443(16) 0.3828(3) 0.39950(19)
C24 C 0.49314(14) 0.4566(3) 0.36043(16)
C25 C 0.46544(16) 0.4363(3) 0.29749(18)
H12 H 0.4454 0.3801 0.2783
C26 C 0.46745(16) 0.4994(3) 0.26312(19)
H13 H 0.4479 0.4861 0.2204
C27 C 0.49796(16) 0.5821(3) 0.29096(18)
C28 C 0.52421(16) 0.6035(3) 0.35342(18)
H14 H 0.5436 0.6604 0.3725
C29 C 0.52166(15) 0.5408(3) 0.38748(17)
H15 H 0.5395 0.5558 0.4295
C30 C 0.5000 0.6485(4) 0.2500
C31 C 0.4531(2) 0.7127(3) 0.2102(2)
C32 C 0.4455(4) -0.0547(5) 0.4000(4)
H16 H 0.4167 -0.0876 0.3850
C33 C 0.5219(5) -0.0548(5) 0.4274(4)
C34 C 0.6192(3) 0.2416(8) 0.5184(5)
H17 H 0.6224 0.3062 0.5309
C35 C 0.6536(5) 0.1072(12) 0.5069(7)
H18 H 0.6781 0.0812 0.5092
C36 C 0.6595(4) 0.1966(11) 0.5273(6)
H19 H 0.6892 0.2312 0.5474
C37 C 0.5999(5) -0.0477(9) 0.4554(7)
H20 H 0.6218 -0.0743 0.4533
C38 C 0.6095(4) 0.0471(7) 0.4804(4)
Mn1C Mn 0.0000 0.0000 0.0000
Mn1A Mn 0.5000 0.5000 0.0000
Mn1C_2 Mn 1.0000 1.0000 1.0000
Mn2D Mn 0.48961(2) 0.75169(4) 0.52641(3)
Mn2G Mn 0.01039(2) 0.25169(4) -0.02641(3)
Mn2A Mn 0.48961(2) 0.24831(4) 0.02641(3)
Mn2C Mn 0.98961(2) 0.74831(4) 1.02641(3)
F1D F 0.79533(12) 0.5827(3) 0.64974(17)
F2D F 0.76343(13) 0.6286(3) 0.55905(16)
F3D F 0.83781(12) 0.6749(3) 0.64343(18)
F4D F 0.79610(12) 0.8391(3) 0.58142(14)
F5D F 0.71723(11) 0.8048(4) 0.51755(12)
F6D F 0.75000(12) 0.9143(3) 0.58885(15)
F7A F 0.55288(14) 0.7557(2) 0.25484(17)
F8A F 0.58990(11) 0.6618(2) 0.33493(14)
F9A F 0.54715(13) 0.7850(2) 0.32019(15)
O1D O 0.55852(12) 0.5970(2) 0.52866(15)
O2D O 0.55690(13) 0.7530(2) 0.54853(17)
O3A O 0.48288(10) 0.40527(19) 0.04445(12)
O3D O 0.48288(10) 0.59473(19) 0.54445(12)
O4A O 0.52479(14) 0.3017(2) 0.12317(14)
O4D O 0.52479(14) 0.6983(2) 0.62317(14)
O5D O 0.94432(11) 0.9293(2) 0.90982(12)
O5C O 0.44432(11) 0.5707(2) 0.40982(12)
O5G O 0.55568(11) 0.4293(2) 0.59018(12)
O6D O 0.93678(12) 0.7760(2) 0.92926(13)
O6G O 0.56322(12) 0.2760(2) 0.57074(13)
O6C O 0.43678(12) 0.7240(2) 0.42926(13)
N1D N 0.50589(19) 0.9092(3) 0.5574(2)
N2D N 0.42255(19) 0.8102(4) 0.5078(2)
C1D C 0.57623(15) 0.6805(3) 0.54573(18)
C2D C 0.62569(15) 0.6976(3) 0.56482(18)
C3D C 0.65326(18) 0.7834(4) 0.5948(2)
H1D H 0.6408 0.8326 0.6025
C4D C 0.69894(18) 0.7959(4) 0.6133(2)
H2D H 0.7172 0.8536 0.6339
C5D C 0.71829(16) 0.7264(4) 0.60226(19)
C6D C 0.69053(18) 0.6416(4) 0.5709(2)
H3D H 0.7021 0.5943 0.5610
C7D C 0.64516(18) 0.6273(4) 0.5541(2)
H4D H 0.6276 0.5685 0.5352
C8D C 0.5472(3) 0.9586(5) 0.5812(3)
H5D H 0.5716 0.9275 0.5851
C9D C 0.5228(5) 1.1008(6) 0.5976(5)
H6D H 0.5297 1.1648 0.6126
C10D C 0.4364(7) 1.0961(7) 0.5636(7)
H7D H 0.4380 1.1620 0.5727
C11D C 0.4712(3) 0.9563(4) 0.5526(3)
C12D C 0.4273(3) 0.9065(5) 0.5263(3)
C13D C 0.88261(16) 0.8731(3) 0.78083(19)
H8D H 0.9061 0.9225 0.7955
C14D C 0.84624(17) 0.8498(4) 0.7175(2)
H9D H 0.8462 0.8819 0.6898
C15D C 0.80986(15) 0.7801(4) 0.69378(19)
C16D C 0.81146(17) 0.7317(4) 0.7359(2)
H10D H 0.7870 0.6842 0.7207
C17D C 0.84856(16) 0.7523(3) 0.8001(2)
H11D H 0.8493 0.7181 0.8279
C18D C 0.88465(15) 0.8234(3) 0.82333(17)
C19D C 0.92520(15) 0.8454(3) 0.89298(18)
C20D C 0.76950(18) 0.7482(4) 0.6233(2)
C21D C 0.75821(19) 0.8257(5) 0.5778(2)
C22D C 0.7912(2) 0.6603(5) 0.6179(3)
C23A C 0.50557(16) 0.3828(3) 0.10050(19)
C24A C 0.50686(14) 0.4566(3) 0.13957(16)
C25A C 0.53456(16) 0.4363(3) 0.20251(18)
H12A H 0.5546 0.3801 0.2217
C26A C 0.53255(16) 0.4994(3) 0.23688(19)
H13A H 0.5521 0.4861 0.2796
C27A C 0.50204(16) 0.5821(3) 0.20904(18)
C28A C 0.47579(16) 0.6035(3) 0.14658(18)
H14A H 0.4564 0.6604 0.1275
C29A C 0.47834(15) 0.5408(3) 0.11252(17)
H15A H 0.4605 0.5558 0.0705
C31A C 0.5469(2) 0.7127(3) 0.2898(2)
C32D C 0.5545(4) 1.0547(5) 0.6000(4)
H16D H 0.5833 1.0876 0.6150
C33D C 0.4781(5) 1.0548(5) 0.5726(4)
C34D C 0.3808(3) 0.7584(8) 0.4816(5)
H17D H 0.3776 0.6938 0.4691
C35D C 0.3464(5) 0.8928(12) 0.4931(7)
H18D H 0.3219 0.9188 0.4908
C36D C 0.3405(4) 0.8034(11) 0.4727(6)
H19D H 0.3108 0.7688 0.4526
C37D C 0.4001(5) 1.0477(9) 0.5446(7)
H20D H 0.3782 1.0743 0.5467
C38D C 0.3905(4) 0.9529(7) 0.5196(4)
C39? C 0.1742(11) 0.8954(19) 0.4374(14)
C40? C 0.1463(16) 0.883(3) 0.213(2)
C41? C 0.1762(12) 0.479(2) 0.1589(14)
loop_
_geom_bond_atom_site_label_1
_geom_bond_atom_site_label_2
_geom_bond_site_symmetry_1
_geom_bond_site_symmetry_2
Mn1 O1 1_555 1_555
Mn2 O2 1_555 1_555
F1 C22 1_555 1_555
F2 C22 1_555 1_555
F3 C22 1_555 1_555
F4 C21 1_555 1_555
F5 C21 1_555 1_555
F6 C21 1_555 1_555
F7 C31 1_555 1_555
F8 C31 1_555 1_555
F9 C31 1_555 1_555
O1 C1 1_555 1_555
O2 C1 1_555 1_555
O3 Mn1 1_555 1_555
O4 Mn2 1_555 1_555
O5 C19 1_555 1_555
O6 C19 1_555 1_555
N1 Mn2 1_555 1_555
N2 Mn2 1_555 1_555
C1 C2 1_555 1_555
C2 C3 1_555 1_555
C3 H1 1_555 1_555
C4 C3 1_555 1_555
H2 C4 1_555 1_555
C5 C4 1_555 1_555
C6 C5 1_555 1_555
H3 C6 1_555 1_555
C7 C2 1_555 1_555
H4 C7 1_555 1_555
C8 N1 1_555 1_555
H5 C8 1_555 1_555
C9 H6 1_555 1_555
C10 H7 1_555 1_555
C11 N1 1_555 1_555
C12 N2 1_555 1_555
C13 H8 1_555 1_555
C14 C13 1_555 1_555
H9 C14 1_555 1_555
C15 C14 1_555 1_555
C16 C15 1_555 1_555
H10 C16 1_555 1_555
C17 C16 1_555 1_555
H11 C17 1_555 1_555
C18 C13 1_555 1_555
C19 C18 1_555 1_555
C20 C5 1_555 1_555
C21 C20 1_555 1_555
C22 C20 1_555 1_555
C23 O3 1_555 1_555
C24 C23 1_555 1_555
C25 C24 1_555 1_555
H12 C25 1_555 1_555
C26 C25 1_555 1_555
H13 C26 1_555 1_555
C27 C26 1_555 1_555
C28 C27 1_555 1_555
H14 C28 1_555 1_555
C29 C24 1_555 1_555
H15 C29 1_555 1_555
C30 C27 1_555 1_555
C31 C30 1_555 1_555
C32 C8 1_555 1_555
H16 C32 1_555 1_555
C33 C9 1_555 1_555
C34 N2 1_555 1_555
H17 C34 1_555 1_555
C35 H18 1_555 1_555
C36 C34 1_555 1_555
H19 C36 1_555 1_555
C37 C10 1_555 1_555
H20 C37 1_555 1_555
C38 C12 1_555 1_555
Mn1C O5 1_555 1_555
Mn1A O3A 1_555 1_555
Mn1C_2 O5D 1_555 1_555
Mn2D O2D 1_555 1_555
Mn2G O6 1_555 1_555
Mn2A O3A 1_555 1_555
Mn2C O6D 1_555 1_555
F1D C22D 1_555 1_555
F2D C22D 1_555 1_555
F3D C22D 1_555 1_555
F4D C21D 1_555 1_555
F5D C21D 1_555 1_555
F6D C21D 1_555 1_555
F7A C31A 1_555 1_555
F8A C31A 1_555 1_555
F9A C31A 1_555 1_555
O1D Mn1 1_555 1_555
O2D C1D 1_555 1_555
O3A C23A 1_555 1_555
O3D Mn1 1_555 1_555
O4A Mn2A 1_555 1_555
O4D Mn2D 1_555 1_555
O5D C19D 1_555 1_555
O5C Mn1 1_555 1_555
O5G Mn1 1_555 1_555
O6D C19D 1_555 1_555
O6G Mn2 1_555 1_555
O6C Mn2D 1_555 1_555
N1D Mn2D 1_555 1_555
N2D Mn2D 1_555 1_555
C1D O1D 1_555 1_555
C2D C1D 1_555 1_555
C3D C2D 1_555 1_555
H1D C3D 1_555 1_555
C4D C3D 1_555 1_555
H2D C4D 1_555 1_555
C5D C4D 1_555 1_555
C6D C5D 1_555 1_555
H3D C6D 1_555 1_555
C7D C2D 1_555 1_555
H4D C7D 1_555 1_555
C8D N1D 1_555 1_555
H5D C8D 1_555 1_555
C9D H6D 1_555 1_555
C10D H7D 1_555 1_555
C11D N1D 1_555 1_555
C12D N2D 1_555 1_555
C13D H8D 1_555 1_555
C14D C13D 1_555 1_555
H9D C14D 1_555 1_555
C15D C14D 1_555 1_555
C16D C15D 1_555 1_555
H10D C16D 1_555 1_555
C17D C16D 1_555 1_555
H11D C17D 1_555 1_555
C18D C13D 1_555 1_555
C19D C18D 1_555 1_555
C20D C5D 1_555 1_555
C21D C20D 1_555 1_555
C22D C20D 1_555 1_555
C23A O4A 1_555 1_555
C24A C23A 1_555 1_555
C25A C24A 1_555 1_555
H12A C25A 1_555 1_555
C26A C25A 1_555 1_555
H13A C26A 1_555 1_555
C27A C30 1_555 1_555
C28A C27A 1_555 1_555
H14A C28A 1_555 1_555
C29A C24A 1_555 1_555
H15A C29A 1_555 1_555
C31A C30 1_555 1_555
C32D C8D 1_555 1_555
H16D C32D 1_555 1_555
C33D C9D 1_555 1_555
C34D N2D 1_555 1_555
H17D C34D 1_555 1_555
C35D H18D 1_555 1_555
C36D C34D 1_555 1_555
H19D C36D 1_555 1_555
C37D C10D 1_555 1_555
H20D C37D 1_555 1_555
C38D C12D 1_555 1_555
Mn2 O3 1_555 1_555
O4 C23 1_555 1_555
C6 C7 1_555 1_555
C9 C32 1_555 1_555
C10 C33 1_555 1_555
C11 C12 1_555 1_555
C11 C33 1_555 1_555
C15 C20 1_555 1_555
C17 C18 1_555 1_555
C28 C29 1_555 1_555
C35 C36 1_555 1_555
C35 C38 1_555 1_555
C37 C38 1_555 1_555
Mn2D O3D 1_555 1_555
C6D C7D 1_555 1_555
C9D C32D 1_555 1_555
C10D C33D 1_555 1_555
C11D C12D 1_555 1_555
C11D C33D 1_555 1_555
C15D C20D 1_555 1_555
C17D C18D 1_555 1_555
C26A C27A 1_555 1_555
C28A C29A 1_555 1_555
C35D C36D 1_555 1_555
C35D C38D 1_555 1_555
C37D C38D 1_555 1_555

#END
