
#######################################################################
#
#                 Cambridge Crystallographic Data Centre
#                                CCDC 
#
#######################################################################
#
# If this CIF has been generated from an entry in the Cambridge 
# Structural Database, then it will include bibliographic, chemical, 
# crystal, experimental, refinement or atomic coordinate data resulting 
# from the CCDC's data processing and validation procedures.
#
#######################################################################

data_CUVXIB
_chemical_name_common            F-MOF-11A
_chemical_formula_moiety         '(C31 H20 F6 Mn1 N2 O4)n,0.5n(H2 O1)'
_chemical_name_systematic        
"catena-((\m~3~-4,4'-(1,1,1,3,3,3-hexafluoropropane-2,2-diyl)dibenzoato)-(2,9-dimethyl-1,10-phenanthroline)-manganese hemihydrate)"
_symmetry_cell_setting           monoclinic
_symmetry_space_group_name_H-M   'P 2/n'
_symmetry_Int_Tables_number      13
_space_group_name_Hall           '-P 2yac'
loop_
_symmetry_equiv_pos_site_id
_symmetry_equiv_pos_as_xyz
1 x,y,z
2 1/2-x,y,1/2-z
3 -x,-y,-z
4 1/2+x,-y,1/2+z
_cell_length_a                   14.6614(19)
_cell_length_b                   9.5836(13)
_cell_length_c                   21.999(3)
_cell_angle_alpha                90
_cell_angle_beta                 107.042(2)
_cell_angle_gamma                90
_cell_volume                     2955.33
_exptl_crystal_colour            colorless
_exptl_crystal_description       prism
_cell_formula_units_Z            4
loop_
_atom_site_label
_atom_site_type_symbol
_atom_site_fract_x
_atom_site_fract_y
_atom_site_fract_z
Mn1 Mn 0.62074(3) 0.22861(4) 0.66685(2)
O1 O 0.73830(14) 0.1140(2) 0.65115(10)
F1 F 1.04098(14) -0.1358(2) 0.49217(9)
N1 N 0.61816(16) 0.3472(2) 0.57733(11)
N2 N 0.62437(17) 0.4637(3) 0.69328(12)
O2 O 1.52132(15) 0.0550(2) 0.63532(11)
C1 C 1.0237(2) -0.1355(3) 0.61924(14)
F2 F 1.00222(15) -0.3440(2) 0.50960(11)
C2 C 1.4473(2) 0.1202(4) 0.63735(14)
C3 C 0.62517(19) 0.4887(3) 0.58381(14)
F3 F 1.15663(15) -0.3364(2) 0.69741(12)
O3 O 0.85172(15) 0.1452(2) 0.74220(10)
F4 F 1.14509(14) -0.2994(2) 0.50934(11)
F5 F 1.16909(15) -0.4474(2) 0.61552(12)
O4 O 1.44709(17) 0.2481(2) 0.64608(12)
C4 C 0.62703(19) 0.5501(3) 0.64416(14)
C5 C 1.3580(2) 0.0348(3) 0.62970(13)
C6 C 0.6203(2) 0.5220(3) 0.74795(15)
C7 C 1.2680(2) 0.0921(3) 0.60490(15)
H1 H 1.2618 0.1862 0.5941
C8 C 0.89050(19) 0.0137(3) 0.66308(13)
C9 C 1.2842(2) -0.1860(3) 0.63910(14)
H2 H 1.2907 -0.2792 0.6515
C10 C 1.1943(2) -0.1303(3) 0.61300(14)
C11 C 0.9278(2) -0.1336(3) 0.58474(15)
H3 H 0.9070 -0.1832 0.5468
C12 C 1.1016(2) -0.2166(3) 0.59911(15)
C13 C 0.8627(2) -0.0582(3) 0.60642(14)
H4 H 0.7990 -0.0561 0.5822
C14 C 1.3645(2) -0.1041(3) 0.64689(14)
H5 H 1.4245 -0.1437 0.6642
C15 C 0.8212(2) 0.0970(3) 0.68760(14)
C16 C 0.6125(2) 0.2907(3) 0.52107(14)
F6 F 1.03206(15) -0.4187(2) 0.62981(13)
C17 C 0.6218(2) 0.5142(3) 0.47412(15)
H6 H 0.6228 0.5688 0.4394
C18 C 0.6301(2) 0.6963(3) 0.64990(15)
C19 C 0.9857(2) 0.0102(3) 0.69790(14)
H7 H 1.0059 0.0578 0.7364
C20 C 1.1870(2) 0.0106(3) 0.59595(16)
H8 H 1.1271 0.0501 0.5784
C21 C 0.6052(2) 0.1356(3) 0.51294(15)
H9 H 0.6679 0.0969 0.5199
H10 H 0.5667 0.1137 0.4706
H11 H 0.5765 0.0966 0.5431
C22 C 0.6338(2) 0.7251(3) 0.54174(17)
H12 H 0.6370 0.7826 0.5084
C23 C 0.6141(2) 0.3738(3) 0.46849(15)
H13 H 0.6098 0.3317 0.4297
C24 C 0.6284(2) 0.5772(3) 0.53331(15)
C25 C 0.6207(2) 0.6681(4) 0.75542(16)
H14 H 0.6170 0.7060 0.7935
C26 C 1.0512(2) -0.0629(3) 0.67632(15)
H15 H 1.1150 -0.0635 0.7005
C27 C 1.0717(2) -0.2493(4) 0.52716(19)
C28 C 1.1152(2) -0.3565(4) 0.6357(2)
C29 C 0.6344(2) 0.7813(3) 0.59796(17)
H16 H 0.6377 0.8777 0.6029
C30 C 0.6154(3) 0.4310(4) 0.80188(17)
H17 H 0.5596 0.3731 0.7887
H18 H 0.6121 0.4881 0.8370
H19 H 0.6713 0.3733 0.8146
C31 C 0.6263(2) 0.7537(3) 0.70782(16)
H20 H 0.6276 0.8500 0.7134
Mn1_2 Mn 1.62074(3) 0.22861(4) 0.66685(2)
Mn1A Mn 0.87926(3) 0.22861(4) 0.83315(2)
O2_2 O 0.52132(15) 0.0550(2) 0.63532(11)
O3A O 0.64828(15) 0.1452(2) 0.75780(10)
O4_2 O 0.44709(17) 0.2481(2) 0.64608(12)
O5 O 0.3845(8) 0.4915(11) 0.6883(5)
loop_
_geom_bond_atom_site_label_1
_geom_bond_atom_site_label_2
_geom_bond_site_symmetry_1
_geom_bond_site_symmetry_2
Mn1 O1 1_555 1_555
O1 C15 1_555 1_555
F1 C27 1_555 1_555
N1 Mn1 1_555 1_555
N2 Mn1 1_555 1_555
O2 C2 1_555 1_555
C1 C11 1_555 1_555
F2 C27 1_555 1_555
C2 O4 1_555 1_555
C3 N1 1_555 1_555
F3 C28 1_555 1_555
O3 C15 1_555 1_555
F4 C27 1_555 1_555
F5 C28 1_555 1_555
O4 Mn1_2 1_555 1_555
C4 N2 1_555 1_555
C5 C2 1_555 1_555
C6 N2 1_555 1_555
C7 C5 1_555 1_555
H1 C7 1_555 1_555
C8 C13 1_555 1_555
C9 H2 1_555 1_555
C10 C9 1_555 1_555
C11 H3 1_555 1_555
C12 C1 1_555 1_555
C13 C11 1_555 1_555
H4 C13 1_555 1_555
C14 C5 1_555 1_555
H5 C14 1_555 1_555
C15 C8 1_555 1_555
C16 N1 1_555 1_555
F6 C28 1_555 1_555
C17 H6 1_555 1_555
C18 C4 1_555 1_555
C19 C8 1_555 1_555
H7 C19 1_555 1_555
C20 C7 1_555 1_555
H8 C20 1_555 1_555
C21 C16 1_555 1_555
H9 C21 1_555 1_555
H10 C21 1_555 1_555
H11 C21 1_555 1_555
C22 H12 1_555 1_555
C23 C16 1_555 1_555
H13 C23 1_555 1_555
C24 C3 1_555 1_555
C25 C6 1_555 1_555
H14 C25 1_555 1_555
C26 C1 1_555 1_555
H15 C26 1_555 1_555
C27 C12 1_555 1_555
C28 C12 1_555 1_555
C29 C18 1_555 1_555
H16 C29 1_555 1_555
C30 C6 1_555 1_555
H17 C30 1_555 1_555
H18 C30 1_555 1_555
H19 C30 1_555 1_555
C31 C18 1_555 1_555
H20 C31 1_555 1_555
Mn1_2 O2 1_555 1_555
Mn1A O3 1_555 1_555
O2_2 Mn1 1_555 1_555
O3A Mn1 1_555 1_555
O4_2 Mn1 1_555 1_555
C3 C4 1_555 1_555
C9 C14 1_555 1_555
C10 C12 1_555 1_555
C10 C20 1_555 1_555
C17 C23 1_555 1_555
C17 C24 1_555 1_555
C19 C26 1_555 1_555
C22 C24 1_555 1_555
C22 C29 1_555 1_555
C25 C31 1_555 1_555

#END
