
#######################################################################
#
#                 Cambridge Crystallographic Data Centre
#                                CCDC 
#
#######################################################################
#
# If this CIF has been generated from an entry in the Cambridge 
# Structural Database, then it will include bibliographic, chemical, 
# crystal, experimental, refinement or atomic coordinate data resulting 
# from the CCDC's data processing and validation procedures.
#
#######################################################################

data_UGODEB
_chemical_formula_moiety         
'(C102 H66 N12 Ni9 O42 S6 6-)n,6n(H3 O1 1+),6n(C2 H6 O1),19.5n(H2 O1)'
_chemical_name_systematic        
"catena-[hexakis(oxonium) tris(\m-dimethyl sulfoxide)-tris(\m-oxo)-tris(\m-sulfato)-tetrakis(\m-4,4',4''-(1,3,5-triazine-2,4,6-triyl)tribenzoato)-nona-nickel ethanol solvate hydrate]"
_symmetry_cell_setting           cubic
_symmetry_space_group_name_H-M   'I m -3'
_symmetry_Int_Tables_number      204
_space_group_name_Hall           '-I 2 2 3'
loop_
_symmetry_equiv_pos_site_id
_symmetry_equiv_pos_as_xyz
1 x,y,z
2 -x,-y,z
3 -x,y,-z
4 x,-y,-z
5 z,x,y
6 z,-x,-y
7 -z,-x,y
8 -z,x,-y
9 y,z,x
10 -y,z,-x
11 y,-z,-x
12 -y,-z,x
13 1/2+x,1/2+y,1/2+z
14 1/2-x,1/2-y,1/2+z
15 1/2-x,1/2+y,1/2-z
16 1/2+x,1/2-y,1/2-z
17 1/2+z,1/2+x,1/2+y
18 1/2+z,1/2-x,1/2-y
19 1/2-z,1/2-x,1/2+y
20 1/2-z,1/2+x,1/2-y
21 1/2+y,1/2+z,1/2+x
22 1/2-y,1/2+z,1/2-x
23 1/2+y,1/2-z,1/2-x
24 1/2-y,1/2-z,1/2+x
25 -x,-y,-z
26 x,y,-z
27 x,-y,z
28 -x,y,z
29 -z,-x,-y
30 -z,x,y
31 z,x,-y
32 z,-x,y
33 -y,-z,-x
34 y,-z,x
35 -y,z,x
36 y,z,-x
37 1/2-x,1/2-y,1/2-z
38 1/2+x,1/2+y,1/2-z
39 1/2+x,1/2-y,1/2+z
40 1/2-x,1/2+y,1/2+z
41 1/2-z,1/2-x,1/2-y
42 1/2-z,1/2+x,1/2+y
43 1/2+z,1/2+x,1/2-y
44 1/2+z,1/2-x,1/2+y
45 1/2-y,1/2-z,1/2-x
46 1/2+y,1/2-z,1/2+x
47 1/2-y,1/2+z,1/2+x
48 1/2+y,1/2+z,1/2-x
_cell_length_a                   26.7674(5)
_cell_length_b                   26.7674(5)
_cell_length_c                   26.7674(5)
_cell_angle_alpha                90
_cell_angle_beta                 90
_cell_angle_gamma                90
_cell_volume                     19178.7
_exptl_crystal_description       block
_cell_formula_units_Z            4
loop_
_atom_site_label
_atom_site_type_symbol
_atom_site_fract_x
_atom_site_fract_y
_atom_site_fract_z
Ni1 Ni 0.0000 0.5000 0.15889(6)
Ni2 Ni 0.06659(5) 0.5000 0.05458(4)
S1 S 0.0000 0.41511(11) 0.0000
O1 O 0.05253(16) 0.44587(15) 0.16749(14)
O2 O 0.0447(2) 0.4479(2) 0.0000
O3 O 0.09691(16) 0.44640(16) 0.09493(15)
O4 O 0.1275(3) 0.5000 0.0000
C1 C 0.1124(2) 0.3840(2) 0.1554(2)
C2 C 0.0846(2) 0.4293(2) 0.1385(2)
O5 O 0.0000 0.3850(3) 0.0453(3)
N1 N 0.1728(2) 0.2295(3) 0.2402(2)
O6 O 0.0000 0.5000 0.0858(3)
C3 C 0.1896(3) 0.2540(3) 0.1998(3)
C4 C 0.1616(3) 0.2985(3) 0.1840(3)
C5 C 0.1767(3) 0.3238(3) 0.1406(3)
H1 H 0.2036 0.3123 0.1219
C6 C 0.1231(3) 0.3172(3) 0.2134(3)
H2 H 0.1144 0.3015 0.2431
C7 C 0.0979(3) 0.3596(3) 0.1976(3)
H3 H 0.0710 0.3715 0.2161
C8 C 0.1513(3) 0.3658(3) 0.1264(3)
H4 H 0.1602 0.3822 0.0971
S2 S 0.17029(16) 0.46812(16) 0.0000
C9 C 0.2080(5) 0.5000 0.0511(6)
H5 H 0.1891 0.5000 0.0816
O2B O -0.0447(2) 0.4479(2) 0.0000
O5B O 0.0000 0.3850(3) -0.0453(3)
O1D O 0.16749(14) 0.05253(16) 0.44587(15)
O3D O 0.09493(15) 0.09691(16) 0.44640(16)
C1D C 0.1554(2) 0.1124(2) 0.3840(2)
C2D C 0.1385(2) 0.0846(2) 0.4293(2)
N1D N 0.2402(2) 0.1728(2) 0.2295(3)
C3D C 0.1998(3) 0.1896(3) 0.2540(3)
C4D C 0.1840(3) 0.1616(3) 0.2985(3)
C5D C 0.1406(3) 0.1767(3) 0.3238(3)
H1D H 0.1219 0.2036 0.3123
C6D C 0.2134(3) 0.1231(3) 0.3172(3)
H2D H 0.2431 0.1144 0.3015
C7D C 0.1976(3) 0.0979(3) 0.3596(3)
H3D H 0.2161 0.0710 0.3715
C8D C 0.1264(3) 0.1513(3) 0.3658(3)
H4D H 0.0971 0.1602 0.3822
O1H O 0.44587(15) 0.16749(14) 0.05253(16)
O3H O 0.44640(16) 0.09493(15) 0.09691(16)
C1H C 0.3840(2) 0.1554(2) 0.1124(2)
C2H C 0.4293(2) 0.1385(2) 0.0846(2)
N1H N 0.2295(3) 0.2402(2) 0.1728(2)
C3H C 0.2540(3) 0.1998(3) 0.1896(3)
C4H C 0.2985(3) 0.1840(3) 0.1616(3)
C5H C 0.3238(3) 0.1406(3) 0.1767(3)
H1H H 0.3123 0.1219 0.2036
C6H C 0.3172(3) 0.2134(3) 0.1231(3)
H2H H 0.3015 0.2431 0.1144
C7H C 0.3596(3) 0.1976(3) 0.0979(3)
H3H H 0.3715 0.2161 0.0710
C8H C 0.3658(3) 0.1264(3) 0.1513(3)
H4H H 0.3822 0.0971 0.1602
S2C S 0.17029(16) 0.53188(16) 0.0000
C9C C 0.2080(5) 0.5000 -0.0511(6)
H5C H 0.1891 0.5000 -0.0816
Ni2A Ni -0.06659(5) 0.5000 0.05458(4)
S1A S 0.0000 0.58489(11) 0.0000
O2A O -0.0447(2) 0.5521(2) 0.0000
O4A O -0.1275(3) 0.5000 0.0000
O5A O 0.0000 0.6150(3) 0.0453(3)
S2A S -0.17029(16) 0.53188(16) 0.0000
C9A C -0.2080(5) 0.5000 0.0511(6)
H5A H -0.1891 0.5000 0.0816
O2C O 0.0447(2) 0.5521(2) 0.0000
O5C O 0.0000 0.6150(3) -0.0453(3)
S2B S -0.17029(16) 0.46812(16) 0.0000
C9B C -0.2080(5) 0.5000 -0.0511(6)
H5B H -0.1891 0.5000 -0.0816
Ni1B Ni 0.0000 0.5000 -0.15889(6)
Ni2B Ni -0.06659(5) 0.5000 -0.05458(4)
O1B O -0.05253(16) 0.44587(15) -0.16749(14)
O3B O -0.09691(16) 0.44640(16) -0.09493(15)
C1B C -0.1124(2) 0.3840(2) -0.1554(2)
C2B C -0.0846(2) 0.4293(2) -0.1385(2)
N1B N -0.1728(2) 0.2295(3) -0.2402(2)
O6B O 0.0000 0.5000 -0.0858(3)
C3B C -0.1896(3) 0.2540(3) -0.1998(3)
C4B C -0.1616(3) 0.2985(3) -0.1840(3)
C5B C -0.1767(3) 0.3238(3) -0.1406(3)
H1B H -0.2036 0.3123 -0.1219
C6B C -0.1231(3) 0.3172(3) -0.2134(3)
H2B H -0.1144 0.3015 -0.2431
C7B C -0.0979(3) 0.3596(3) -0.1976(3)
H3B H -0.0710 0.3715 -0.2161
C8B C -0.1513(3) 0.3658(3) -0.1264(3)
H4B H -0.1602 0.3822 -0.0971
O1G O -0.16749(14) 0.05253(16) -0.44587(15)
O3G O -0.09493(15) 0.09691(16) -0.44640(16)
C1G C -0.1554(2) 0.1124(2) -0.3840(2)
C2G C -0.1385(2) 0.0846(2) -0.4293(2)
N1G N -0.2402(2) 0.1728(2) -0.2295(3)
C3G C -0.1998(3) 0.1896(3) -0.2540(3)
C4G C -0.1840(3) 0.1616(3) -0.2985(3)
C5G C -0.1406(3) 0.1767(3) -0.3238(3)
H1G H -0.1219 0.2036 -0.3123
C6G C -0.2134(3) 0.1231(3) -0.3172(3)
H2G H -0.2431 0.1144 -0.3015
C7G C -0.1976(3) 0.0979(3) -0.3596(3)
H3G H -0.2161 0.0710 -0.3715
C8G C -0.1264(3) 0.1513(3) -0.3658(3)
H4G H -0.0971 0.1602 -0.3822
O1I O -0.44587(15) 0.16749(14) -0.05253(16)
O3I O -0.44640(16) 0.09493(15) -0.09691(16)
C1I C -0.3840(2) 0.1554(2) -0.1124(2)
C2I C -0.4293(2) 0.1385(2) -0.0846(2)
N1I N -0.2295(3) 0.2402(2) -0.1728(2)
C3I C -0.2540(3) 0.1998(3) -0.1896(3)
C4I C -0.2985(3) 0.1840(3) -0.1616(3)
C5I C -0.3238(3) 0.1406(3) -0.1767(3)
H1I H -0.3123 0.1219 -0.2036
C6I C -0.3172(3) 0.2134(3) -0.1231(3)
H2I H -0.3015 0.2431 -0.1144
C7I C -0.3596(3) 0.1976(3) -0.0979(3)
H3I H -0.3715 0.2161 -0.0710
C8I C -0.3658(3) 0.1264(3) -0.1513(3)
H4I H -0.3822 0.0971 -0.1602
Ni2C Ni 0.06659(5) 0.5000 -0.05458(4)
Ni2D Ni 0.05458(4) 0.06659(5) 0.5000
S1D S 0.0000 0.0000 0.41511(11)
O2D O 0.0000 0.0447(2) 0.4479(2)
O5D O 0.0453(3) 0.0000 0.3850(3)
O2F O 0.0000 -0.0447(2) 0.4479(2)
O5F O -0.0453(3) 0.0000 0.3850(3)
Ni2F Ni -0.05458(4) -0.06659(5) 0.5000
O1F O -0.16749(14) -0.05253(16) 0.44587(15)
O3F O -0.09493(15) -0.09691(16) 0.44640(16)
C1F C -0.1554(2) -0.1124(2) 0.3840(2)
C2F C -0.1385(2) -0.0846(2) 0.4293(2)
N1F N -0.2402(2) -0.1728(2) 0.2295(3)
C3F C -0.1998(3) -0.1896(3) 0.2540(3)
C4F C -0.1840(3) -0.1616(3) 0.2985(3)
C5F C -0.1406(3) -0.1767(3) 0.3238(3)
H1F H -0.1219 -0.2036 0.3123
C6F C -0.2134(3) -0.1231(3) 0.3172(3)
H2F H -0.2431 -0.1144 0.3015
C7F C -0.1976(3) -0.0979(3) 0.3596(3)
H3F H -0.2161 -0.0710 0.3715
C8F C -0.1264(3) -0.1513(3) 0.3658(3)
H4F H -0.0971 -0.1602 0.3822
O1K O -0.44587(15) -0.16749(14) 0.05253(16)
O3K O -0.44640(16) -0.09493(15) 0.09691(16)
C1K C -0.3840(2) -0.1554(2) 0.1124(2)
C2K C -0.4293(2) -0.1385(2) 0.0846(2)
N1K N -0.2295(3) -0.2402(2) 0.1728(2)
C3K C -0.2540(3) -0.1998(3) 0.1896(3)
C4K C -0.2985(3) -0.1840(3) 0.1616(3)
C5K C -0.3238(3) -0.1406(3) 0.1767(3)
H1K H -0.3123 -0.1219 0.2036
C6K C -0.3172(3) -0.2134(3) 0.1231(3)
H2K H -0.3015 -0.2431 0.1144
C7K C -0.3596(3) -0.1976(3) 0.0979(3)
H3K H -0.3715 -0.2161 0.0710
C8K C -0.3658(3) -0.1264(3) 0.1513(3)
H4K H -0.3822 -0.0971 0.1602
O1A O -0.05253(16) -0.44587(15) 0.16749(14)
O3A O -0.09691(16) -0.44640(16) 0.09493(15)
C1A C -0.1124(2) -0.3840(2) 0.1554(2)
C2A C -0.0846(2) -0.4293(2) 0.1385(2)
N1A N -0.1728(2) -0.2295(3) 0.2402(2)
C3A C -0.1896(3) -0.2540(3) 0.1998(3)
C4A C -0.1616(3) -0.2985(3) 0.1840(3)
C5A C -0.1767(3) -0.3238(3) 0.1406(3)
H1A H -0.2036 -0.3123 0.1219
C6A C -0.1231(3) -0.3172(3) 0.2134(3)
H2A H -0.1144 -0.3015 0.2431
C7A C -0.0979(3) -0.3596(3) 0.1976(3)
H3A H -0.0710 -0.3715 0.2161
C8A C -0.1513(3) -0.3658(3) 0.1264(3)
H4A H -0.1602 -0.3822 0.0971
O1A_2 O -0.05253(16) 0.55413(15) 0.16749(14)
O3A_2 O -0.09691(16) 0.55360(16) 0.09493(15)
C1A_2 C -0.1124(2) 0.6160(2) 0.1554(2)
C2A_2 C -0.0846(2) 0.5707(2) 0.1385(2)
N1A_2 N -0.1728(2) 0.7705(3) 0.2402(2)
C3A_2 C -0.1896(3) 0.7460(3) 0.1998(3)
C4A_2 C -0.1616(3) 0.7015(3) 0.1840(3)
C5A_2 C -0.1767(3) 0.6762(3) 0.1406(3)
H1A_2 H -0.2036 0.6877 0.1219
C6A_2 C -0.1231(3) 0.6828(3) 0.2134(3)
H2A_2 H -0.1144 0.6985 0.2431
C7A_2 C -0.0979(3) 0.6404(3) 0.1976(3)
H3A_2 H -0.0710 0.6285 0.2161
C8A_2 C -0.1513(3) 0.6342(3) 0.1264(3)
H4A_2 H -0.1602 0.6178 0.0971
O1F_2 O -0.16749(14) 0.94747(16) 0.44587(15)
O3F_2 O -0.09493(15) 0.90309(16) 0.44640(16)
C1F_2 C -0.1554(2) 0.8876(2) 0.3840(2)
C2F_2 C -0.1385(2) 0.9154(2) 0.4293(2)
N1F_2 N -0.2402(2) 0.8272(2) 0.2295(3)
C3F_2 C -0.1998(3) 0.8104(3) 0.2540(3)
C4F_2 C -0.1840(3) 0.8384(3) 0.2985(3)
C5F_2 C -0.1406(3) 0.8233(3) 0.3238(3)
H1F_2 H -0.1219 0.7964 0.3123
C6F_2 C -0.2134(3) 0.8769(3) 0.3172(3)
H2F_2 H -0.2431 0.8856 0.3015
C7F_2 C -0.1976(3) 0.9021(3) 0.3596(3)
H3F_2 H -0.2161 0.9290 0.3715
C8F_2 C -0.1264(3) 0.8487(3) 0.3658(3)
H4F_2 H -0.0971 0.8398 0.3822
O1K_2 O -0.44587(15) 0.83251(14) 0.05253(16)
O3K_2 O -0.44640(16) 0.90507(15) 0.09691(16)
C1K_2 C -0.3840(2) 0.8446(2) 0.1124(2)
C2K_2 C -0.4293(2) 0.8615(2) 0.0846(2)
N1K_2 N -0.2295(3) 0.7598(2) 0.1728(2)
C3K_2 C -0.2540(3) 0.8002(3) 0.1896(3)
C4K_2 C -0.2985(3) 0.8160(3) 0.1616(3)
C5K_2 C -0.3238(3) 0.8594(3) 0.1767(3)
H1K_2 H -0.3123 0.8781 0.2036
C6K_2 C -0.3172(3) 0.7866(3) 0.1231(3)
H2K_2 H -0.3015 0.7569 0.1144
C7K_2 C -0.3596(3) 0.8024(3) 0.0979(3)
H3K_2 H -0.3715 0.7839 0.0710
C8K_2 C -0.3658(3) 0.8736(3) 0.1513(3)
H4K_2 H -0.3822 0.9029 0.1602
O4D O 0.0000 0.1275(3) 0.5000
S2G S 0.0000 0.17029(16) 0.53188(16)
C9D C 0.0511(6) 0.2080(5) 0.5000
H5D H 0.0816 0.1891 0.5000
S2D S 0.0000 0.17029(16) 0.46812(16)
C9G C -0.0511(6) 0.2080(5) 0.5000
H5G H -0.0816 0.1891 0.5000
Ni1D Ni 0.15889(6) 0.0000 0.5000
O6D O 0.0858(3) 0.0000 0.5000
Ni1_2 Ni 0.0000 -0.5000 0.15889(6)
Ni1F Ni -0.15889(6) 0.0000 -0.5000
Ni1F_2 Ni -0.15889(6) 0.0000 0.5000
Ni1F_3 Ni -0.15889(6) 1.0000 0.5000
Ni1H Ni -0.5000 0.15889(6) 0.0000
Ni1H_2 Ni 0.5000 0.15889(6) 0.0000
Ni1J Ni -0.5000 -0.15889(6) 0.0000
Ni1J_2 Ni -0.5000 0.84111(6) 0.0000
Ni2A_2 Ni -0.06659(5) -0.5000 0.05458(4)
Ni2E Ni 0.05458(4) -0.06659(5) 0.5000
Ni2F_2 Ni -0.05458(4) 0.93341(5) 0.5000
Ni2G Ni -0.05458(4) 0.06659(5) -0.5000
Ni2G_2 Ni -0.05458(4) 0.06659(5) 0.5000
Ni2H Ni 0.5000 0.05458(4) 0.06659(5)
Ni2I Ni -0.5000 0.05458(4) -0.06659(5)
Ni2K Ni -0.5000 -0.05458(4) 0.06659(5)
Ni2K_2 Ni -0.5000 0.94542(4) 0.06659(5)
O1C O 0.05253(16) 0.55413(15) -0.16749(14)
O1E O 0.16749(14) -0.05253(16) 0.55413(15)
O1X O -0.05253(16) 0.55413(15) -0.16749(14)
O1Y O 0.05253(16) 0.44587(15) -0.16749(14)
O1Z O 0.05253(16) 0.55413(15) 0.16749(14)
O1AA O -0.05253(16) 0.44587(15) 0.16749(14)
O1DA O 0.16749(14) 0.05253(16) 0.55413(15)
O1EA O 0.16749(14) -0.05253(16) 0.44587(15)
O2E O 0.0000 -0.0447(2) 0.5521(2)
O2G O 0.0000 0.0447(2) 0.5521(2)
O3C O 0.09691(16) 0.55360(16) -0.09493(15)
O3X O -0.09691(16) 0.55360(16) -0.09493(15)
O3Y O 0.09691(16) 0.44640(16) -0.09493(15)
O3Z O 0.09691(16) 0.55360(16) 0.09493(15)
O3AA O -0.09691(16) 0.44640(16) 0.09493(15)
O3BA O -0.09493(15) -0.09691(16) 0.55360(16)
O3DA O 0.09493(15) 0.09691(16) 0.55360(16)
O4E O 0.0000 -0.1275(3) 0.5000
O6F O -0.0858(3) 0.0000 0.5000
H6? H 0.2389 0.4824 0.0559
H7? H 0.2150 0.5339 0.0417
loop_
_geom_bond_atom_site_label_1
_geom_bond_atom_site_label_2
_geom_bond_site_symmetry_1
_geom_bond_site_symmetry_2
Ni1 O1 1_555 1_555
Ni2 O2 1_555 1_555
S1 O2 1_555 1_555
O1 C2 1_555 1_555
O2 Ni2C 1_555 1_555
O3 Ni2 1_555 1_555
O4 Ni2 1_555 1_555
C1 C2 1_555 1_555
C2 O3 1_555 1_555
O5 S1 1_555 1_555
N1 C3 1_555 1_555
O6 Ni1 1_555 1_555
C3 C4 1_555 1_555
C4 C5 1_555 1_555
C5 H1 1_555 1_555
C6 C4 1_555 1_555
H2 C6 1_555 1_555
C7 C1 1_555 1_555
H3 C7 1_555 1_555
C8 C1 1_555 1_555
H4 C8 1_555 1_555
S2 O4 1_555 1_555
C9 S2 1_555 1_555
H5 C9 1_555 1_555
O2B S1 1_555 1_555
O5B S1 1_555 1_555
O1D C2D 1_555 1_555
O3D C2D 1_555 1_555
C1D C2D 1_555 1_555
N1D C3D 1_555 1_555
C3D N1 1_555 1_555
C4D C3D 1_555 1_555
C5D C4D 1_555 1_555
H1D C5D 1_555 1_555
C6D C4D 1_555 1_555
H2D C6D 1_555 1_555
C7D C1D 1_555 1_555
H3D C7D 1_555 1_555
C8D C1D 1_555 1_555
H4D C8D 1_555 1_555
O1H C2H 1_555 1_555
O3H C2H 1_555 1_555
C1H C2H 1_555 1_555
N1H C3 1_555 1_555
C3H N1D 1_555 1_555
C4H C3H 1_555 1_555
C5H C4H 1_555 1_555
H1H C5H 1_555 1_555
C6H C4H 1_555 1_555
H2H C6H 1_555 1_555
C7H C1H 1_555 1_555
H3H C7H 1_555 1_555
C8H C1H 1_555 1_555
H4H C8H 1_555 1_555
S2C O4 1_555 1_555
C9C S2 1_555 1_555
H5C C9C 1_555 1_555
Ni2A O6 1_555 1_555
S1A O2A 1_555 1_555
O2A Ni2A 1_555 1_555
O4A Ni2A 1_555 1_555
O5A S1A 1_555 1_555
S2A O4A 1_555 1_555
C9A S2A 1_555 1_555
H5A C9A 1_555 1_555
O2C Ni2 1_555 1_555
O5C S1A 1_555 1_555
S2B O4A 1_555 1_555
C9B S2A 1_555 1_555
H5B C9B 1_555 1_555
Ni1B O1B 1_555 1_555
Ni2B O2B 1_555 1_555
O1B C2B 1_555 1_555
O3B Ni2B 1_555 1_555
C1B C2B 1_555 1_555
C2B O3B 1_555 1_555
N1B C3B 1_555 1_555
O6B Ni1B 1_555 1_555
C3B C4B 1_555 1_555
C4B C5B 1_555 1_555
C5B H1B 1_555 1_555
C6B C4B 1_555 1_555
H2B C6B 1_555 1_555
C7B C1B 1_555 1_555
H3B C7B 1_555 1_555
C8B C1B 1_555 1_555
H4B C8B 1_555 1_555
O1G C2G 1_555 1_555
O3G C2G 1_555 1_555
C1G C2G 1_555 1_555
N1G C3G 1_555 1_555
C3G N1B 1_555 1_555
C4G C3G 1_555 1_555
C5G C4G 1_555 1_555
H1G C5G 1_555 1_555
C6G C4G 1_555 1_555
H2G C6G 1_555 1_555
C7G C1G 1_555 1_555
H3G C7G 1_555 1_555
C8G C1G 1_555 1_555
H4G C8G 1_555 1_555
O1I C2I 1_555 1_555
O3I C2I 1_555 1_555
C1I C2I 1_555 1_555
N1I C3B 1_555 1_555
C3I N1G 1_555 1_555
C4I C3I 1_555 1_555
C5I C4I 1_555 1_555
H1I C5I 1_555 1_555
C6I C4I 1_555 1_555
H2I C6I 1_555 1_555
C7I C1I 1_555 1_555
H3I C7I 1_555 1_555
C8I C1I 1_555 1_555
H4I C8I 1_555 1_555
Ni2C O4 1_555 1_555
Ni2D O3D 1_555 1_555
S1D O2D 1_555 1_555
O2D Ni2D 1_555 1_555
O5D S1D 1_555 1_555
O2F S1D 1_555 1_555
O5F S1D 1_555 1_555
Ni2F O2F 1_555 1_555
O1F C2F 1_555 1_555
O3F Ni2F 1_555 1_555
C1F C2F 1_555 1_555
C2F O3F 1_555 1_555
N1F C3F 1_555 1_555
C3F C4F 1_555 1_555
C4F C5F 1_555 1_555
C5F H1F 1_555 1_555
C6F C4F 1_555 1_555
H2F C6F 1_555 1_555
C7F C1F 1_555 1_555
H3F C7F 1_555 1_555
C8F C1F 1_555 1_555
H4F C8F 1_555 1_555
O1K C2K 1_555 1_555
O3K C2K 1_555 1_555
C1K C2K 1_555 1_555
N1K C3K 1_555 1_555
C3K N1F 1_555 1_555
C4K C3K 1_555 1_555
C5K C4K 1_555 1_555
H1K C5K 1_555 1_555
C6K C4K 1_555 1_555
H2K C6K 1_555 1_555
C7K C1K 1_555 1_555
H3K C7K 1_555 1_555
C8K C1K 1_555 1_555
H4K C8K 1_555 1_555
O1A C2A 1_555 1_555
O3A C2A 1_555 1_555
C1A C2A 1_555 1_555
N1A C3F 1_555 1_555
C3A N1K 1_555 1_555
C4A C3A 1_555 1_555
C5A C4A 1_555 1_555
H1A C5A 1_555 1_555
C6A C4A 1_555 1_555
H2A C6A 1_555 1_555
C7A C1A 1_555 1_555
H3A C7A 1_555 1_555
C8A C1A 1_555 1_555
H4A C8A 1_555 1_555
O1A_2 Ni1 1_555 1_555
O3A_2 Ni2A 1_555 1_555
C1A_2 C2A_2 1_555 1_555
C2A_2 O1A_2 1_555 1_555
N1A_2 C3A_2 1_555 1_555
C3A_2 C4A_2 1_555 1_555
C4A_2 C5A_2 1_555 1_555
C5A_2 H1A_2 1_555 1_555
C6A_2 C4A_2 1_555 1_555
H2A_2 C6A_2 1_555 1_555
C7A_2 C1A_2 1_555 1_555
H3A_2 C7A_2 1_555 1_555
C8A_2 C1A_2 1_555 1_555
H4A_2 C8A_2 1_555 1_555
O1F_2 C2F_2 1_555 1_555
O3F_2 C2F_2 1_555 1_555
C1F_2 C2F_2 1_555 1_555
N1F_2 C3F_2 1_555 1_555
C3F_2 N1A_2 1_555 1_555
C4F_2 C3F_2 1_555 1_555
C5F_2 C4F_2 1_555 1_555
H1F_2 C5F_2 1_555 1_555
C6F_2 C4F_2 1_555 1_555
H2F_2 C6F_2 1_555 1_555
C7F_2 C1F_2 1_555 1_555
H3F_2 C7F_2 1_555 1_555
C8F_2 C1F_2 1_555 1_555
H4F_2 C8F_2 1_555 1_555
O1K_2 C2K_2 1_555 1_555
O3K_2 C2K_2 1_555 1_555
C1K_2 C2K_2 1_555 1_555
N1K_2 C3A_2 1_555 1_555
C3K_2 N1F_2 1_555 1_555
C4K_2 C3K_2 1_555 1_555
C5K_2 C4K_2 1_555 1_555
H1K_2 C5K_2 1_555 1_555
C6K_2 C4K_2 1_555 1_555
H2K_2 C6K_2 1_555 1_555
C7K_2 C1K_2 1_555 1_555
H3K_2 C7K_2 1_555 1_555
C8K_2 C1K_2 1_555 1_555
H4K_2 C8K_2 1_555 1_555
O4D Ni2D 1_555 1_555
S2G O4D 1_555 1_555
C9D S2G 1_555 1_555
H5D C9D 1_555 1_555
S2D O4D 1_555 1_555
C9G S2G 1_555 1_555
H5G C9G 1_555 1_555
Ni1D O1D 1_555 1_555
O6D Ni2D 1_555 1_555
Ni1_2 O1A 1_555 1_555
Ni1F O1G 1_555 1_555
Ni1F_2 O1F 1_555 1_555
Ni1F_3 O1F_2 1_555 1_555
Ni1H O1I 1_555 1_555
Ni1H_2 O1H 1_555 1_555
Ni1J O1K 1_555 1_555
Ni1J_2 O1K_2 1_555 1_555
Ni2A_2 O3A 1_555 1_555
Ni2E O2F 1_555 1_555
Ni2F_2 O3F_2 1_555 1_555
Ni2G O3G 1_555 1_555
Ni2G_2 O2D 1_555 1_555
Ni2H O3H 1_555 1_555
Ni2I O3I 1_555 1_555
Ni2K O3K 1_555 1_555
Ni2K_2 O3K_2 1_555 1_555
O1C Ni1B 1_555 1_555
O1E Ni1D 1_555 1_555
O1X Ni1B 1_555 1_555
O1Y Ni1B 1_555 1_555
O1Z Ni1 1_555 1_555
O1AA Ni1 1_555 1_555
O1DA Ni1D 1_555 1_555
O1EA Ni1D 1_555 1_555
O2E Ni2F 1_555 1_555
O2G Ni2D 1_555 1_555
O3C Ni2C 1_555 1_555
O3X Ni2B 1_555 1_555
O3Y Ni2C 1_555 1_555
O3Z Ni2 1_555 1_555
O3AA Ni2A 1_555 1_555
O3BA Ni2F 1_555 1_555
O3DA Ni2D 1_555 1_555
O4E Ni2F 1_555 1_555
O6F Ni2F 1_555 1_555
Ni2 O6 1_555 1_555
C5 C8 1_555 1_555
C6 C7 1_555 1_555
C9 S2C 1_555 1_555
O2B Ni2A 1_555 1_555
C5D C8D 1_555 1_555
C6D C7D 1_555 1_555
N1H C3H 1_555 1_555
C5H C8H 1_555 1_555
C6H C7H 1_555 1_555
S2C C9C 1_555 1_555
S1A O2C 1_555 1_555
O2A Ni2B 1_555 1_555
O4A Ni2B 1_555 1_555
C9A S2B 1_555 1_555
O2C Ni2C 1_555 1_555
S2B C9B 1_555 1_555
Ni2B O6B 1_555 1_555
O6B Ni2C 1_555 1_555
C5B C8B 1_555 1_555
C6B C7B 1_555 1_555
C5G C8G 1_555 1_555
C6G C7G 1_555 1_555
N1I C3I 1_555 1_555
C5I C8I 1_555 1_555
C6I C7I 1_555 1_555
C5F C8F 1_555 1_555
C6F C7F 1_555 1_555
C5K C8K 1_555 1_555
C6K C7K 1_555 1_555
N1A C3A 1_555 1_555
C5A C8A 1_555 1_555
C6A C7A 1_555 1_555
O3A_2 C2A_2 1_555 1_555
C5A_2 C8A_2 1_555 1_555
C6A_2 C7A_2 1_555 1_555
C5F_2 C8F_2 1_555 1_555
C6F_2 C7F_2 1_555 1_555
N1K_2 C3K_2 1_555 1_555
C5K_2 C8K_2 1_555 1_555
C6K_2 C7K_2 1_555 1_555
O4D Ni2G_2 1_555 1_555
C9D S2D 1_555 1_555
S2D C9G 1_555 1_555
Ni1D O6D 1_555 1_555
O6D Ni2E 1_555 1_555
Ni1F_2 O6F 1_555 1_555
Ni2E O2E 1_555 1_555
Ni2E O4E 1_555 1_555
Ni2G_2 O2G 1_555 1_555
Ni2G_2 O6F 1_555 1_555

#END
