
#######################################################################
#
#                 Cambridge Crystallographic Data Centre
#                                CCDC 
#
#######################################################################
#
# If this CIF has been generated from an entry in the Cambridge 
# Structural Database, then it will include bibliographic, chemical, 
# crystal, experimental, refinement or atomic coordinate data resulting 
# from the CCDC's data processing and validation procedures.
#
#######################################################################

data_DIDBAV
_chemical_formula_moiety         '(C24 H16 Co1 N2 O4)n,2.5n(C2 H6 O1)'
_chemical_name_systematic        
'catena-(bis(\m~2~-4-(4-Pyridyl)benzoato)-cobalt ethanol solvate)'
_symmetry_cell_setting           tetragonal
_symmetry_space_group_name_H-M   'P 4 21 2'
_symmetry_Int_Tables_number      90
_space_group_name_Hall           'P 4ab 2ab'
loop_
_symmetry_equiv_pos_site_id
_symmetry_equiv_pos_as_xyz
1 x,y,z
2 -x,-y,z
3 1/2-y,1/2+x,z
4 1/2+y,1/2-x,z
5 1/2-x,1/2+y,-z
6 1/2+x,1/2-y,-z
7 y,x,-z
8 -y,-x,-z
_cell_length_a                   22.6904(17)
_cell_length_b                   22.6904(17)
_cell_length_c                   12.695(2)
_cell_angle_alpha                90
_cell_angle_beta                 90
_cell_angle_gamma                90
_cell_volume                     6536.07
_cell_formula_units_Z            8
loop_
_atom_site_label
_atom_site_type_symbol
_atom_site_fract_x
_atom_site_fract_y
_atom_site_fract_z
Co1 Co 0.23208(3) 0.24086(3) 0.25335(6)
C1 C -0.1835(3) 0.2671(2) 0.5668(5)
H1 H -0.2136 0.2916 0.5387
C2 C -0.1325(3) 0.2579(3) 0.5050(5)
H2 H -0.1275 0.2775 0.4394
C3 C -0.0902(3) 0.2195(3) 0.5430(5)
C4 C -0.0988(3) 0.1926(3) 0.6385(5)
H3 H -0.0706 0.1655 0.6656
C5 C -0.1497(3) 0.2059(3) 0.6949(5)
H4 H -0.1554 0.1873 0.7613
C6 C -0.0339(3) 0.2126(3) 0.4838(5)
C7 C -0.0315(3) 0.2193(4) 0.3750(5)
H5 H -0.0670 0.2246 0.3364
C8 C 0.0212(2) 0.2184(4) 0.3227(6)
H6 H 0.0220 0.2247 0.2488
C9 C 0.0728(3) 0.2084(3) 0.3761(5)
C10 C 0.0721(3) 0.1992(3) 0.4816(5)
H7 H 0.1079 0.1924 0.5183
C11 C 0.0183(3) 0.1997(3) 0.5370(5)
H8 H 0.0175 0.1912 0.6103
C12 C 0.1327(3) 0.2145(3) 0.3198(5)
C13 C 0.2460(3) 0.6100(2) -0.2330(5)
H9 H 0.2506 0.6104 -0.3073
C14 C 0.2399(3) 0.5567(2) -0.1831(6)
H10 H 0.2405 0.5213 -0.2230
C15 C 0.2330(3) 0.5543(2) -0.0752(5)
C16 C 0.2303(3) 0.6069(3) -0.0228(5)
H11 H 0.2241 0.6075 0.0512
C17 C 0.2368(3) 0.6602(3) -0.0782(5)
H12 H 0.2347 0.6964 -0.0407
C18 C 0.2276(3) 0.4983(3) -0.0156(5)
C19 C 0.2585(4) 0.4480(2) -0.0499(6)
H13 H 0.2811 0.4502 -0.1127
C20 C 0.2566(3) 0.3956(3) 0.0054(6)
H14 H 0.2772 0.3620 -0.0200
C21 C 0.2247(3) 0.3924(2) 0.0981(5)
C22 C 0.1935(3) 0.4416(3) 0.1330(6)
H15 H 0.1706 0.4393 0.1955
C23 C 0.1958(3) 0.4946(3) 0.0755(5)
H16 H 0.1750 0.5282 0.1004
C24 C 0.2253(3) 0.3372(2) 0.1622(5)
N1 N -0.1920(2) 0.2441(2) 0.6601(4)
N2 N 0.2457(2) 0.6613(2) -0.1813(4)
O1 O 0.17862(16) 0.21404(18) 0.3749(3)
O2 O 0.13335(19) 0.2212(2) 0.2227(4)
O3 O 0.20619(19) 0.33654(16) 0.2532(4)
O4 O 0.25058(19) 0.29206(16) 0.1230(3)
Co1D Co 0.26792(3) 0.74086(3) -0.25335(6)
Co1E Co -0.26792(3) 0.25914(3) 0.74665(6)
N1E N 0.3080(2) 0.2559(2) 0.3399(4)
N2D N 0.2543(2) 0.1613(2) 0.1813(4)
O5 O 0.1278(8) 0.4609(8) -0.3229(15)
C25 C 0.1334(13) 0.4108(10) -0.263(2)
C26 C 0.1075(14) 0.4286(12) -0.164(2)
O6 O 0.1246(10) 0.5670(9) 0.3353(14)
C27 C 0.1212(14) 0.5898(12) 0.437(2)
C28 C 0.1414(12) 0.5300(13) 0.452(2)
O7 O -0.0038(8) 0.1108(8) 0.7898(13)
C29 C -0.0337(10) 0.0795(11) 0.8693(19)
C30 C -0.0985(11) 0.0699(12) 0.864(2)
loop_
_geom_bond_atom_site_label_1
_geom_bond_atom_site_label_2
_geom_bond_site_symmetry_1
_geom_bond_site_symmetry_2
Co1 O1 1_555 1_555
C1 H1 1_555 1_555
C2 C1 1_555 1_555
H2 C2 1_555 1_555
C3 C2 1_555 1_555
C4 C3 1_555 1_555
H3 C4 1_555 1_555
C5 C4 1_555 1_555
H4 C5 1_555 1_555
C6 C3 1_555 1_555
C7 C6 1_555 1_555
H5 C7 1_555 1_555
C8 C7 1_555 1_555
H6 C8 1_555 1_555
C9 C8 1_555 1_555
C10 C9 1_555 1_555
H7 C10 1_555 1_555
C11 C6 1_555 1_555
H8 C11 1_555 1_555
C12 C9 1_555 1_555
C13 H9 1_555 1_555
C14 C13 1_555 1_555
H10 C14 1_555 1_555
C15 C14 1_555 1_555
C16 C15 1_555 1_555
H11 C16 1_555 1_555
C17 C16 1_555 1_555
H12 C17 1_555 1_555
C18 C15 1_555 1_555
C19 C18 1_555 1_555
H13 C19 1_555 1_555
C20 C19 1_555 1_555
H14 C20 1_555 1_555
C21 C20 1_555 1_555
C22 C21 1_555 1_555
H15 C22 1_555 1_555
C23 C18 1_555 1_555
H16 C23 1_555 1_555
C24 C21 1_555 1_555
N1 C1 1_555 1_555
N2 C13 1_555 1_555
O1 C12 1_555 1_555
O2 Co1 1_555 1_555
O3 Co1 1_555 1_555
O4 Co1 1_555 1_555
O5 C25 1_555 1_555
C25 C26 1_555 1_555
O6 C27 1_555 1_555
C27 C28 1_555 1_555
O7 C29 1_555 1_555
C29 C30 1_555 1_555
Co1D N2 1_555 1_555
Co1E N1 1_555 1_555
N1E Co1 1_555 1_555
N2D Co1 1_555 1_555
C5 N1 1_555 1_555
C10 C11 1_555 1_555
C12 O2 1_555 1_555
C17 N2 1_555 1_555
C22 C23 1_555 1_555
C24 O3 1_555 1_555
C24 O4 1_555 1_555

#END
