
#######################################################################
#
#                 Cambridge Crystallographic Data Centre
#                                CCDC 
#
#######################################################################
#
# If this CIF has been generated from an entry in the Cambridge 
# Structural Database, then it will include bibliographic, chemical, 
# crystal, experimental, refinement or atomic coordinate data resulting 
# from the CCDC's data processing and validation procedures.
#
#######################################################################

data_NUVXUZ
_chemical_name_common            MOF-325
_chemical_formula_moiety         
'(C24 H12 Cu9 N12 O14 2+)n,2n(N1 O3 1-),18n(C5 H11 N1 O1),3n(C5 H9 N1 O1),8n(H2 O1)'
_chemical_name_systematic        
'catena-(hexakis(\m~4~-4-Carboxylatopyrazolato)-bis(\m~3~-oxo)-nona-copper dinitrate diethylformamide N-methylpyrrolidin-2-one octahydrate)'
_symmetry_cell_setting           cubic
_symmetry_space_group_name_H-M   'F m -3 m'
_symmetry_Int_Tables_number      225
_space_group_name_Hall           '-F 4 2 3'
loop_
_symmetry_equiv_pos_site_id
_symmetry_equiv_pos_as_xyz
1 x,y,z
2 -x,-y,z
3 -x,y,-z
4 x,-y,-z
5 z,x,y
6 z,-x,-y
7 -z,-x,y
8 -z,x,-y
9 y,z,x
10 -y,z,-x
11 y,-z,-x
12 -y,-z,x
13 y,x,-z
14 -y,-x,-z
15 y,-x,z
16 -y,x,z
17 x,z,-y
18 -x,z,y
19 -x,-z,-y
20 x,-z,y
21 z,y,-x
22 z,-y,x
23 -z,y,x
24 -z,-y,-x
25 x,1/2+y,1/2+z
26 -x,1/2-y,1/2+z
27 -x,1/2+y,1/2-z
28 x,1/2-y,1/2-z
29 z,1/2+x,1/2+y
30 z,1/2-x,1/2-y
31 -z,1/2-x,1/2+y
32 -z,1/2+x,1/2-y
33 y,1/2+z,1/2+x
34 -y,1/2+z,1/2-x
35 y,1/2-z,1/2-x
36 -y,1/2-z,1/2+x
37 y,1/2+x,1/2-z
38 -y,1/2-x,1/2-z
39 y,1/2-x,1/2+z
40 -y,1/2+x,1/2+z
41 x,1/2+z,1/2-y
42 -x,1/2+z,1/2+y
43 -x,1/2-z,1/2-y
44 x,1/2-z,1/2+y
45 z,1/2+y,1/2-x
46 z,1/2-y,1/2+x
47 -z,1/2+y,1/2+x
48 -z,1/2-y,1/2-x
49 1/2+x,y,1/2+z
50 1/2-x,-y,1/2+z
51 1/2-x,y,1/2-z
52 1/2+x,-y,1/2-z
53 1/2+z,x,1/2+y
54 1/2+z,-x,1/2-y
55 1/2-z,-x,1/2+y
56 1/2-z,x,1/2-y
57 1/2+y,z,1/2+x
58 1/2-y,z,1/2-x
59 1/2+y,-z,1/2-x
60 1/2-y,-z,1/2+x
61 1/2+y,x,1/2-z
62 1/2-y,-x,1/2-z
63 1/2+y,-x,1/2+z
64 1/2-y,x,1/2+z
65 1/2+x,z,1/2-y
66 1/2-x,z,1/2+y
67 1/2-x,-z,1/2-y
68 1/2+x,-z,1/2+y
69 1/2+z,y,1/2-x
70 1/2+z,-y,1/2+x
71 1/2-z,y,1/2+x
72 1/2-z,-y,1/2-x
73 1/2+x,1/2+y,z
74 1/2-x,1/2-y,z
75 1/2-x,1/2+y,-z
76 1/2+x,1/2-y,-z
77 1/2+z,1/2+x,y
78 1/2+z,1/2-x,-y
79 1/2-z,1/2-x,y
80 1/2-z,1/2+x,-y
81 1/2+y,1/2+z,x
82 1/2-y,1/2+z,-x
83 1/2+y,1/2-z,-x
84 1/2-y,1/2-z,x
85 1/2+y,1/2+x,-z
86 1/2-y,1/2-x,-z
87 1/2+y,1/2-x,z
88 1/2-y,1/2+x,z
89 1/2+x,1/2+z,-y
90 1/2-x,1/2+z,y
91 1/2-x,1/2-z,-y
92 1/2+x,1/2-z,y
93 1/2+z,1/2+y,-x
94 1/2+z,1/2-y,x
95 1/2-z,1/2+y,x
96 1/2-z,1/2-y,-x
97 -x,-y,-z
98 x,y,-z
99 x,-y,z
100 -x,y,z
101 -z,-x,-y
102 -z,x,y
103 z,x,-y
104 z,-x,y
105 -y,-z,-x
106 y,-z,x
107 -y,z,x
108 y,z,-x
109 -y,-x,z
110 y,x,z
111 -y,x,-z
112 y,-x,-z
113 -x,-z,y
114 x,-z,-y
115 x,z,y
116 -x,z,-y
117 -z,-y,x
118 -z,y,-x
119 z,-y,-x
120 z,y,x
121 -x,1/2-y,1/2-z
122 x,1/2+y,1/2-z
123 x,1/2-y,1/2+z
124 -x,1/2+y,1/2+z
125 -z,1/2-x,1/2-y
126 -z,1/2+x,1/2+y
127 z,1/2+x,1/2-y
128 z,1/2-x,1/2+y
129 -y,1/2-z,1/2-x
130 y,1/2-z,1/2+x
131 -y,1/2+z,1/2+x
132 y,1/2+z,1/2-x
133 -y,1/2-x,1/2+z
134 y,1/2+x,1/2+z
135 -y,1/2+x,1/2-z
136 y,1/2-x,1/2-z
137 -x,1/2-z,1/2+y
138 x,1/2-z,1/2-y
139 x,1/2+z,1/2+y
140 -x,1/2+z,1/2-y
141 -z,1/2-y,1/2+x
142 -z,1/2+y,1/2-x
143 z,1/2-y,1/2-x
144 z,1/2+y,1/2+x
145 1/2-x,-y,1/2-z
146 1/2+x,y,1/2-z
147 1/2+x,-y,1/2+z
148 1/2-x,y,1/2+z
149 1/2-z,-x,1/2-y
150 1/2-z,x,1/2+y
151 1/2+z,x,1/2-y
152 1/2+z,-x,1/2+y
153 1/2-y,-z,1/2-x
154 1/2+y,-z,1/2+x
155 1/2-y,z,1/2+x
156 1/2+y,z,1/2-x
157 1/2-y,-x,1/2+z
158 1/2+y,x,1/2+z
159 1/2-y,x,1/2-z
160 1/2+y,-x,1/2-z
161 1/2-x,-z,1/2+y
162 1/2+x,-z,1/2-y
163 1/2+x,z,1/2+y
164 1/2-x,z,1/2-y
165 1/2-z,-y,1/2+x
166 1/2-z,y,1/2-x
167 1/2+z,-y,1/2-x
168 1/2+z,y,1/2+x
169 1/2-x,1/2-y,-z
170 1/2+x,1/2+y,-z
171 1/2+x,1/2-y,z
172 1/2-x,1/2+y,z
173 1/2-z,1/2-x,-y
174 1/2-z,1/2+x,y
175 1/2+z,1/2+x,-y
176 1/2+z,1/2-x,y
177 1/2-y,1/2-z,-x
178 1/2+y,1/2-z,x
179 1/2-y,1/2+z,x
180 1/2+y,1/2+z,-x
181 1/2-y,1/2-x,z
182 1/2+y,1/2+x,z
183 1/2-y,1/2+x,-z
184 1/2+y,1/2-x,-z
185 1/2-x,1/2-z,y
186 1/2+x,1/2-z,-y
187 1/2+x,1/2+z,y
188 1/2-x,1/2+z,-y
189 1/2-z,1/2-y,x
190 1/2-z,1/2+y,-x
191 1/2+z,1/2-y,-x
192 1/2+z,1/2+y,x
_cell_length_a                   42.606(3)
_cell_length_b                   42.606(3)
_cell_length_c                   42.606(3)
_cell_angle_alpha                90
_cell_angle_beta                 90
_cell_angle_gamma                90
_cell_volume                     77341.4
_exptl_crystal_colour            blue
_exptl_crystal_description       parallelepiped
_cell_formula_units_Z            16
loop_
_atom_site_label
_atom_site_type_symbol
_atom_site_fract_x
_atom_site_fract_y
_atom_site_fract_z
O3 O 0.2850(18) 0.1053(8) 0.1053(8)
O4 O 0.19235(15) 0.19235(15) 0.0000
Cu1 Cu 0.30697(4) 0.13784(3) 0.13784(3)
O1 O 0.3378(2) 0.1622(2) 0.1622(2)
N1 N 0.30716(14) 0.17067(14) 0.10606(14)
C1 C 0.28695(19) 0.17787(19) 0.08351(17)
H1 H 0.2693 0.1660 0.0786
C2 C 0.29529(17) 0.20471(17) 0.0684(2)
C3 C 0.27944(18) 0.22056(18) 0.0430(3)
O2 O 0.25449(11) 0.20877(11) 0.03293(11)
Cu2 Cu 0.22831(3) 0.22831(3) 0.0000
N1JD N 0.30716(14) 0.10606(14) 0.17067(14)
Cu1EB Cu 0.36216(3) 0.13784(3) 0.19303(4)
Cu1ZB Cu 0.36216(3) 0.19303(4) 0.13784(3)
N1XF N 0.32933(14) 0.19284(14) 0.10606(14)
C1JD C 0.28695(19) 0.08351(17) 0.17787(19)
N1EB N 0.32933(14) 0.10606(14) 0.19284(14)
C1XF C 0.32213(19) 0.21305(19) 0.08351(17)
H1JD H 0.2693 0.0786 0.1660
C2EB C 0.29529(17) 0.0684(2) 0.20471(17)
C1EB C 0.32213(19) 0.08351(17) 0.21305(19)
H1XF H 0.3340 0.2307 0.0786
C3EB C 0.27944(18) 0.0430(3) 0.22056(18)
H1EB H 0.3340 0.0786 0.2307
O2XF O 0.29123(11) 0.24551(11) 0.03293(11)
O2JD O 0.25449(11) 0.03293(11) 0.20877(11)
O2EB O 0.29123(11) 0.03293(11) 0.24551(11)
Cu2UB Cu 0.27169(3) 0.27169(3) 0.0000
Cu2H Cu 0.22831(3) 0.0000 0.22831(3)
Cu2EB Cu 0.27169(3) 0.0000 0.27169(3)
O2L O 0.20877(11) 0.25449(11) -0.03293(11)
O2ED O 0.20877(11) 0.25449(11) 0.03293(11)
O2SC O 0.25449(11) 0.20877(11) -0.03293(11)
O2LF O 0.24551(11) 0.29123(11) -0.03293(11)
O2UB O 0.24551(11) 0.29123(11) 0.03293(11)
O2GC O 0.29123(11) 0.24551(11) -0.03293(11)
O2H O 0.20877(11) 0.03293(11) 0.25449(11)
O2S O 0.25449(11) -0.03293(11) 0.20877(11)
O2AD O 0.20877(11) -0.03293(11) 0.25449(11)
C3L C 0.22056(18) 0.27944(18) -0.0430(3)
C3UB C 0.22056(18) 0.27944(18) 0.0430(3)
C3GC C 0.27944(18) 0.22056(18) -0.0430(3)
C2L C 0.20471(17) 0.29529(17) -0.0684(2)
C2UB C 0.20471(17) 0.29529(17) 0.0684(2)
C2GC C 0.29529(17) 0.20471(17) -0.0684(2)
C1L C 0.17787(19) 0.28695(19) -0.08351(17)
C1LF C 0.21305(19) 0.32213(19) -0.08351(17)
C1UB C 0.21305(19) 0.32213(19) 0.08351(17)
C1ED C 0.17787(19) 0.28695(19) 0.08351(17)
C1GC C 0.32213(19) 0.21305(19) -0.08351(17)
C1SC C 0.28695(19) 0.17787(19) -0.08351(17)
N1L N 0.17067(14) 0.30716(14) -0.10606(14)
H1L H 0.1660 0.2693 -0.0786
N1LF N 0.19284(14) 0.32933(14) -0.10606(14)
H1LF H 0.2307 0.3340 -0.0786
N1UB N 0.19284(14) 0.32933(14) 0.10606(14)
H1UB H 0.2307 0.3340 0.0786
N1ED N 0.17067(14) 0.30716(14) 0.10606(14)
H1ED H 0.1660 0.2693 0.0786
N1GC N 0.32933(14) 0.19284(14) -0.10606(14)
H1GC H 0.3340 0.2307 -0.0786
N1SC N 0.30716(14) 0.17067(14) -0.10606(14)
H1SC H 0.2693 0.1660 -0.0786
Cu1L Cu 0.13784(3) 0.30697(4) -0.13784(3)
Cu1LC Cu 0.19303(4) 0.36216(3) -0.13784(3)
Cu1UB Cu 0.19303(4) 0.36216(3) 0.13784(3)
Cu1D Cu 0.13784(3) 0.30697(4) 0.13784(3)
Cu1GC Cu 0.36216(3) 0.19303(4) -0.13784(3)
Cu1P Cu 0.30697(4) 0.13784(3) -0.13784(3)
N1XC N 0.10606(14) 0.30716(14) -0.17067(14)
O1L O 0.1622(2) 0.3378(2) -0.1622(2)
O1D O 0.1622(2) 0.3378(2) 0.1622(2)
N1BG N 0.19284(14) 0.39394(14) 0.17067(14)
N1D N 0.10606(14) 0.30716(14) 0.17067(14)
O1P O 0.3378(2) 0.1622(2) -0.1622(2)
N1PF N 0.39394(14) 0.19284(14) -0.17067(14)
N1P N 0.30716(14) 0.10606(14) -0.17067(14)
C1XC C 0.08351(17) 0.28695(19) -0.17787(19)
N1SA N 0.10606(14) 0.32933(14) -0.19284(14)
Cu1SA Cu 0.13784(3) 0.36216(3) -0.19303(4)
Cu1HA Cu 0.13784(3) 0.36216(3) 0.19303(4)
H1XC H 0.0786 0.2693 -0.1660
C2SA C 0.0684(2) 0.29529(17) -0.20471(17)
C1SA C 0.08351(17) 0.32213(19) -0.21305(19)
C3SA C 0.0430(3) 0.27944(18) -0.22056(18)
H1SA H 0.0786 0.3340 -0.2307
O2XC O 0.03293(11) 0.25449(11) -0.20877(11)
O2SA O 0.03293(11) 0.29123(11) -0.24551(11)
Cu2G Cu 0.0000 0.22831(3) -0.22831(3)
Cu2DA Cu 0.0000 0.27169(3) -0.27169(3)
O5? O 0.2671(14) 0.1197(8) 0.1197(8)
loop_
_geom_bond_atom_site_label_1
_geom_bond_atom_site_label_2
_geom_bond_site_symmetry_1
_geom_bond_site_symmetry_2
Cu1 O1 1_555 1_555
O1 Cu1EB 1_555 1_555
N1 Cu1 1_555 1_555
C1 N1 1_555 1_555
H1 C1 1_555 1_555
C2 C1 1_555 1_555
C3 C2 1_555 1_555
O2 C3 1_555 1_555
Cu2 O2 1_555 1_555
N1JD Cu1 1_555 1_555
Cu1EB N1EB 1_555 1_555
Cu1ZB O1 1_555 1_555
N1XF N1 1_555 1_555
C1JD N1JD 1_555 1_555
N1EB N1JD 1_555 1_555
C1XF C2 1_555 1_555
H1JD C1JD 1_555 1_555
C2EB C1JD 1_555 1_555
C1EB N1EB 1_555 1_555
H1XF C1XF 1_555 1_555
C3EB C2EB 1_555 1_555
H1EB C1EB 1_555 1_555
O2XF C3 1_555 1_555
O2JD C3EB 1_555 1_555
O2EB C3EB 1_555 1_555
Cu2UB O2XF 1_555 1_555
Cu2H O2JD 1_555 1_555
Cu2EB O2EB 1_555 1_555
O2L Cu2 1_555 1_555
O2ED Cu2 1_555 1_555
O2SC Cu2 1_555 1_555
O2LF Cu2UB 1_555 1_555
O2UB Cu2UB 1_555 1_555
O2GC Cu2UB 1_555 1_555
O2H Cu2H 1_555 1_555
O2S Cu2H 1_555 1_555
O2AD Cu2H 1_555 1_555
C3L O2L 1_555 1_555
C3UB O2ED 1_555 1_555
C3GC O2SC 1_555 1_555
C2L C3L 1_555 1_555
C2UB C3UB 1_555 1_555
C2GC C3GC 1_555 1_555
C1L C2L 1_555 1_555
C1LF C2L 1_555 1_555
C1UB C2UB 1_555 1_555
C1ED C2UB 1_555 1_555
C1GC C2GC 1_555 1_555
C1SC C2GC 1_555 1_555
N1L C1L 1_555 1_555
H1L C1L 1_555 1_555
N1LF C1LF 1_555 1_555
H1LF C1LF 1_555 1_555
N1UB C1UB 1_555 1_555
H1UB C1UB 1_555 1_555
N1ED C1ED 1_555 1_555
H1ED C1ED 1_555 1_555
N1GC C1GC 1_555 1_555
H1GC C1GC 1_555 1_555
N1SC C1SC 1_555 1_555
H1SC C1SC 1_555 1_555
Cu1L N1L 1_555 1_555
Cu1LC N1LF 1_555 1_555
Cu1UB N1UB 1_555 1_555
Cu1D N1ED 1_555 1_555
Cu1GC N1GC 1_555 1_555
Cu1P N1SC 1_555 1_555
N1XC Cu1L 1_555 1_555
O1L Cu1L 1_555 1_555
O1D Cu1UB 1_555 1_555
N1BG Cu1UB 1_555 1_555
N1D Cu1D 1_555 1_555
O1P Cu1GC 1_555 1_555
N1PF Cu1GC 1_555 1_555
N1P Cu1P 1_555 1_555
C1XC N1XC 1_555 1_555
N1SA N1XC 1_555 1_555
Cu1SA O1L 1_555 1_555
Cu1HA O1D 1_555 1_555
H1XC C1XC 1_555 1_555
C2SA C1XC 1_555 1_555
C1SA N1SA 1_555 1_555
C3SA C2SA 1_555 1_555
H1SA C1SA 1_555 1_555
O2XC C3SA 1_555 1_555
O2SA C3SA 1_555 1_555
Cu2G O2XC 1_555 1_555
Cu2DA O2SA 1_555 1_555
Cu1ZB N1XF 1_555 1_555
N1XF C1XF 1_555 1_555
C2EB C1EB 1_555 1_555
O2LF C3L 1_555 1_555
O2UB C3UB 1_555 1_555
O2GC C3GC 1_555 1_555
N1L N1LF 1_555 1_555
N1UB N1ED 1_555 1_555
N1GC N1SC 1_555 1_555
Cu1LC O1L 1_555 1_555
Cu1D O1D 1_555 1_555
Cu1P O1P 1_555 1_555
N1SA Cu1SA 1_555 1_555
C2SA C1SA 1_555 1_555

#END
