
#######################################################################
#
#                 Cambridge Crystallographic Data Centre
#                                CCDC 
#
#######################################################################
#
# If this CIF has been generated from an entry in the Cambridge 
# Structural Database, then it will include bibliographic, chemical, 
# crystal, experimental, refinement or atomic coordinate data resulting 
# from the CCDC's data processing and validation procedures.
#
#######################################################################

data_NUVYIO
_chemical_name_common            IRMOF-62
_chemical_formula_moiety         
'(C54 H24 O13 Zn4)n,n(C54 H24 O13 Zn4),20n(C3 H7 N1 O1),6n(H2 O1)'
_chemical_name_systematic        
'catena-(tris(\m~4~-1,4-bis(4-Carboxylatophenyl)buta-1,3-diyne)-(\m~4~-oxo)-tetra-zinc dimethylformamide solvate hexahydrate)'
_symmetry_cell_setting           trigonal
_symmetry_space_group_name_H-M   'P 32 1 2'
_symmetry_Int_Tables_number      153
_space_group_name_Hall           'P 32 2 (0 0 2)'
loop_
_symmetry_equiv_pos_site_id
_symmetry_equiv_pos_as_xyz
1 x,y,z
2 -y,x-y,2/3+z
3 -x+y,-x,1/3+z
4 -y,-x,1/3-z
5 -x+y,y,2/3-z
6 x,x-y,-z
_cell_length_a                   31.114(2)
_cell_length_b                   31.114(2)
_cell_length_c                   39.280(3)
_cell_angle_alpha                90
_cell_angle_beta                 90
_cell_angle_gamma                120
_cell_volume                     32931.7
_exptl_crystal_colour            orange
_exptl_crystal_description       polyhedron
_cell_formula_units_Z            6
loop_
_atom_site_label
_atom_site_type_symbol
_atom_site_fract_x
_atom_site_fract_y
_atom_site_fract_z
Zn5 Zn 0.60056(2) 0.63475(2) 0.46373(2)
Zn6 Zn 0.70176(3) 0.63183(3) 0.46108(2)
Zn7 Zn 0.66761(2) 0.66209(2) 0.52879(2)
Zn8 Zn 0.70277(2) 0.73531(2) 0.46757(2)
O14 O 0.66885(11) 0.66754(11) 0.47980(10)
O15 O 0.5819(2) 0.58051(19) 0.43213(15)
O16 O 0.6565(4) 0.5949(3) 0.4240(2)
O17 O 0.3828(4) 0.1162(3) 0.1636(2)
O18 O 0.3703(2) 0.0692(2) 0.21650(15)
O19 O 0.55023(16) 0.60773(17) 0.50060(12)
O20 O 0.6006(2) 0.6340(2) 0.54656(14)
O21 O 0.09518(16) 0.41232(16) 0.77121(11)
O22 O 0.08908(18) 0.33895(19) 0.77037(12)
O23 O 0.7579(2) 0.6856(2) 0.43560(15)
O24 O 0.76652(19) 0.7588(2) 0.44499(15)
O25 O 1.27171(17) 0.97443(19) 0.21599(12)
O26 O 1.21876(18) 0.9374(2) 0.17392(14)
C55 C 0.6093(5) 0.5689(4) 0.4187(2)
C56 C 0.5886(4) 0.5237(4) 0.3952(3)
C57 C 0.5386(5) 0.4953(4) 0.3912(3)
H25 H 0.5174 0.5036 0.4024
C58 C 0.5199(4) 0.4543(4) 0.3705(3)
H26 H 0.4857 0.4333 0.3691
C59 C 0.5505(5) 0.4438(5) 0.3520(3)
C60 C 0.5998(5) 0.4743(5) 0.3562(3)
H27 H 0.6212 0.4687 0.3429
C61 C 0.6203(4) 0.5128(4) 0.3787(3)
H28 H 0.6543 0.5306 0.3827
C62 C 0.5323(5) 0.4061(5) 0.3321(3)
C63 C 0.5079(4) 0.3656(4) 0.3109(3)
C64 C 0.4953(4) 0.3270(4) 0.2947(3)
C65 C 0.4677(4) 0.2873(4) 0.2769(2)
C66 C 0.4399(4) 0.2419(4) 0.2562(2)
C67 C 0.4280(4) 0.2393(4) 0.2236(3)
H29 H 0.4360 0.2688 0.2125
C68 C 0.4043(4) 0.1956(4) 0.2047(3)
H30 H 0.3925 0.1949 0.1828
C69 C 0.3993(4) 0.1544(4) 0.2196(3)
C70 C 0.4120(4) 0.1541(4) 0.2540(3)
H31 H 0.4049 0.1245 0.2645
C71 C 0.4349(4) 0.1979(4) 0.2720(3)
H32 H 0.4468 0.1991 0.2938
C72 C 0.3813(4) 0.1097(4) 0.1957(3)
C73 C 0.5595(3) 0.6117(3) 0.5323(2)
C74 C 0.5145(3) 0.5835(3) 0.5557(2)
C75 C 0.4690(4) 0.5489(4) 0.5440(2)
H33 H 0.4652 0.5389 0.5214
C76 C 0.4293(3) 0.5289(3) 0.5651(2)
H34 H 0.3984 0.5060 0.5565
C77 C 0.4335(3) 0.5413(4) 0.5979(2)
C78 C 0.4799(4) 0.5784(4) 0.6103(2)
H35 H 0.4829 0.5895 0.6327
C79 C 0.5202(3) 0.5979(4) 0.5898(2)
H36 H 0.5513 0.6205 0.5984
C80 C 0.3921(4) 0.5172(4) 0.6182(2)
C81 C 0.3532(4) 0.4996(4) 0.6389(2)
C82 C 0.3151(3) 0.4826(4) 0.6602(3)
C83 C 0.2847(4) 0.4647(4) 0.6816(3)
C84 C 0.2390(4) 0.4386(4) 0.7000(2)
C85 C 0.2242(3) 0.4704(4) 0.7139(3)
H37 H 0.2418 0.5041 0.7088
C86 C 0.1829(3) 0.4519(4) 0.7355(2)
H38 H 0.1732 0.4734 0.7445
C87 C 0.1564(4) 0.4017(4) 0.7435(3)
C88 C 0.1730(4) 0.3710(4) 0.7290(2)
H39 H 0.1561 0.3371 0.7335
C89 C 0.2140(3) 0.3911(3) 0.7081(3)
H40 H 0.2246 0.3702 0.6994
C90 C 0.1074(3) 0.3815(4) 0.7636(2)
C91 C 0.7799(3) 0.7295(4) 0.4325(2)
C92 C 0.8305(4) 0.7547(4) 0.4153(2)
C93 C 0.8408(4) 0.7267(4) 0.3944(3)
H41 H 0.8182 0.6929 0.3925
C94 C 0.8835(4) 0.7467(4) 0.3760(3)
H42 H 0.8898 0.7258 0.3626
C95 C 0.9189(4) 0.7981(4) 0.3764(2)
C96 C 0.9054(4) 0.8244(4) 0.3966(3)
H43 H 0.9272 0.8584 0.3979
C97 C 0.8627(4) 0.8056(4) 0.4153(3)
H44 H 0.8554 0.8266 0.4277
C98 C 0.9604(4) 0.8188(4) 0.3583(3)
C99 C 0.9865(4) 0.8216(4) 0.3369(3)
C100 C 1.0351(4) 0.8508(4) 0.3166(3)
C101 C 1.0712(4) 0.8709(4) 0.2980(3)
C102 C 1.1106(4) 0.8888(4) 0.2747(3)
C103 C 1.1576(4) 0.9215(4) 0.2843(3)
H45 H 1.1636 0.9333 0.3066
C104 C 1.1966(3) 0.9378(3) 0.2619(2)
H46 H 1.2285 0.9610 0.2688
C105 C 1.1881(3) 0.9195(3) 0.2287(2)
C106 C 1.1428(4) 0.8871(4) 0.2192(3)
H47 H 1.1373 0.8764 0.1967
C107 C 1.1023(4) 0.8681(4) 0.2416(3)
H48 H 1.0711 0.8428 0.2350
C108 C 1.2292(3) 0.9482(3) 0.2030(2)
Zn5B Zn 0.03419(3) 0.39944(2) 0.79706(2)
Zn6A Zn 0.36817(3) 0.06993(4) 0.12775(2)
Zn7A Zn 0.33791(2) 0.00552(3) 0.19546(2)
Zn7A_2 Zn 1.33791(2) 1.00552(3) 0.19546(2)
Zn8A Zn 1.26469(2) 0.96746(3) 0.13424(2)
Zn8B Zn 0.03254(3) 0.29723(2) 0.80090(2)
O17B O 0.7334(5) 0.6172(4) 0.4969(2)
O18B O 0.6989(3) 0.6297(2) 0.54983(15)
O21A O 0.58768(16) 0.68286(23) 0.43788(11)
O22A O 0.66105(19) 0.75013(26) 0.43704(12)
O25B O 0.70272(25) 0.72829(17) 0.54932(12)
O26B O 0.71864(27) 0.78124(18) 0.50725(14)
Zn1 Zn 0.32760(3) 0.32781(2) 0.45777(2)
O1 O 0.33127(11) 0.33239(10) 0.50668(9)
O2 O 0.2679(3) 0.2960(3) 0.4348(2)
O3 O 0.3678(2) 0.3001(2) 0.44286(13)
O4 O 0.3649(2) 0.39659(19) 0.43858(13)
Zn2 Zn 0.26227(2) 0.29772(3) 0.52533(2)
Zn3 Zn 0.36614(2) 0.29935(2) 0.52337(2)
Zn4 Zn 0.36460(2) 0.40031(2) 0.520074(18)
C1 C 0.2234(4) 0.2817(4) 0.4577(3)
C2 C 0.3862(3) 0.2778(3) 0.45497(19)
C3 C 0.3898(3) 0.4379(3) 0.4514(2)
O5 O 0.2152(4) 0.2730(4) 0.4902(3)
O6 O 0.2646(4) 0.2549(2) 0.56132(14)
O7 O 0.2653(3) 0.3536(2) 0.55330(16)
O8 O 0.38990(17) 0.27209(18) 0.48754(11)
O9 O 0.3321(4) 0.2517(2) 0.55675(17)
O10 O 0.42585(25) 0.34688(18) 0.54814(11)
O11 O 0.39663(19) 0.44693(18) 0.48151(13)
O12 O 0.42080(27) 0.41410(18) 0.55005(13)
O13 O 0.32408(28) 0.4229(2) 0.54183(14)
C4 C 0.1805(4) 0.2639(5) 0.4312(3)
C5 C 0.4011(4) 0.2491(4) 0.4325(2)
C6 C 0.4131(4) 0.4795(3) 0.4271(2)
C7 C 0.1406(5) 0.2594(6) 0.4497(3)
C8 C 0.1772(4) 0.2446(4) 0.3993(3)
C9 C 0.4149(4) 0.2663(4) 0.3989(2)
C10 C 0.4088(4) 0.2115(4) 0.4441(3)
C11 C 0.3972(4) 0.4722(3) 0.3932(2)
C12 C 0.4481(4) 0.5266(5) 0.4359(3)
H1 H 0.1432 0.2705 0.4720
C13 C 0.0962(4) 0.2365(4) 0.4314(3)
C14 C 0.1314(5) 0.2216(5) 0.3829(3)
H2 H 0.2051 0.2468 0.3889
H3 H 0.4084 0.2904 0.3905
C15 C 0.4379(4) 0.2482(4) 0.3783(3)
C16 C 0.4283(3) 0.1911(3) 0.4227(2)
H4 H 0.4008 0.2002 0.4664
H5 H 0.3745 0.4405 0.3855
C17 C 0.4152(4) 0.5124(4) 0.3709(2)
C18 C 0.4685(3) 0.5649(4) 0.4143(3)
H6 H 0.4585 0.5325 0.4584
H7 H 0.0685 0.2341 0.4422
C19 C 0.0893(4) 0.2176(5) 0.3996(3)
H8 H 0.1286 0.2089 0.3611
H9 H 0.4506 0.2621 0.3571
C20 C 0.4413(4) 0.2076(4) 0.3906(3)
H10 H 0.4327 0.1653 0.4305
H11 H 0.4021 0.5070 0.3490
C21 C 0.4513(4) 0.5594(4) 0.3796(3)
H12 H 0.4940 0.5955 0.4218
C22 C 0.0463(4) 0.1937(5) 0.3811(3)
C23 C 0.4611(4) 0.1828(4) 0.3694(2)
C24 C 0.4716(4) 0.5988(4) 0.3563(2)
C25 C 0.0087(4) 0.1697(4) 0.3593(3)
C26 C 0.4798(4) 0.1682(4) 0.3463(3)
C27 C 0.4874(4) 0.6322(4) 0.3376(3)
C28 C -0.0413(5) 0.1515(5) 0.3461(3)
C29 C 0.4975(4) 0.1445(4) 0.3292(3)
C30 C 0.5040(4) 0.6731(4) 0.3187(2)
C31 C -0.0798(4) 0.1287(5) 0.3351(3)
C32 C 0.5170(4) 0.1338(4) 0.3082(3)
C33 C 0.5186(4) 0.7066(4) 0.2964(2)
C34 C -0.1136(4) 0.1120(5) 0.3058(3)
C35 C 0.5373(4) 0.1065(4) 0.2845(3)
C36 C 0.5398(4) 0.7512(4) 0.2774(2)
C37 C -0.1418(4) 0.0642(4) 0.2995(3)
C38 C -0.1252(5) 0.1429(5) 0.2869(3)
C39 C 0.5858(4) 0.1417(3) 0.2709(2)
C40 C 0.5142(5) 0.0603(5) 0.2782(3)
C41 C 0.5883(4) 0.7849(4) 0.2797(2)
C42 C 0.5122(4) 0.7624(3) 0.2561(3)
H13 H -0.1349 0.0418 0.3104
C43 C -0.1817(4) 0.0463(4) 0.2771(3)
C44 C -0.1637(5) 0.1251(5) 0.2641(3)
H14 H -0.1059 0.1771 0.2898
H15 H 0.6016 0.1757 0.2750
C45 C 0.6059(4) 0.1198(3) 0.2514(2)
C46 C 0.5364(4) 0.0405(4) 0.2567(3)
H16 H 0.4830 0.0398 0.2876
H17 H 0.6085 0.7788 0.2940
C47 C 0.6084(4) 0.8277(4) 0.2617(3)
C48 C 0.5324(4) 0.8063(3) 0.2383(2)
H18 H 0.4786 0.7397 0.2536
H19 H -0.2016 0.0121 0.2749
C49 C -0.1927(4) 0.0748(4) 0.2590(3)
H20 H -0.1702 0.1470 0.2522
H21 H 0.6376 0.1401 0.2427
C50 C 0.5834(3) 0.0712(4) 0.2440(2)
H22 H 0.5195 0.0069 0.2512
H23 H 0.6420 0.8505 0.2639
C51 C 0.5805(4) 0.8377(4) 0.2407(2)
H24 H 0.5125 0.8136 0.2247
C52 C -0.2350(3) 0.0540(4) 0.2348(2)
C53 C 0.6091(4) 0.0497(3) 0.2252(2)
C54 C 0.6070(4) 0.8887(3) 0.2223(2)
O6A O -0.2549(2) 0.0097(4) 0.22799(14)
O9A O -0.2517(2) 0.0804(4) 0.22342(17)
O10A O 0.65312(18) 0.07897(31) 0.21481(11)
O12A O 0.58590(18) 0.00670(32) 0.21672(13)
O7A O 0.6464(2) 0.9117(4) 0.21997(16)
O13A O 0.5771(2) 0.90118(34) 0.20850(14)
Zn2A Zn -0.29772(3) -0.03545(4) 0.19200(2)
Zn3A Zn -0.29935(2) 0.06679(3) 0.19004(2)
Zn3A_2 Zn 0.70065(2) 0.06679(3) 0.19004(2)
Zn4A Zn 0.59969(2) -0.03571(3) 0.186741(18)
Zn2A_2 Zn 0.70228(3) 0.96455(4) 0.19200(2)
Zn4A_2 Zn 0.59969(2) 0.96429(3) 0.186741(18)
loop_
_geom_bond_atom_site_label_1
_geom_bond_atom_site_label_2
_geom_bond_site_symmetry_1
_geom_bond_site_symmetry_2
Zn1 O1 1_555 1_555
O1 Zn2 1_555 1_555
O2 Zn1 1_555 1_555
O3 Zn1 1_555 1_555
O4 Zn1 1_555 1_555
Zn2 O5 1_555 1_555
Zn3 O1 1_555 1_555
Zn4 O1 1_555 1_555
C1 O2 1_555 1_555
C2 O3 1_555 1_555
C3 O4 1_555 1_555
O5 C1 1_555 1_555
O6 Zn2 1_555 1_555
O7 Zn2 1_555 1_555
O8 Zn3 1_555 1_555
O9 Zn3 1_555 1_555
O10 Zn3 1_555 1_555
O11 Zn4 1_555 1_555
O12 Zn4 1_555 1_555
O13 Zn4 1_555 1_555
C4 C1 1_555 1_555
C5 C2 1_555 1_555
C6 C3 1_555 1_555
C7 C4 1_555 1_555
C8 C4 1_555 1_555
C9 C5 1_555 1_555
C10 C5 1_555 1_555
C11 C6 1_555 1_555
C12 C6 1_555 1_555
H1 C7 1_555 1_555
C13 C7 1_555 1_555
C14 C8 1_555 1_555
H2 C8 1_555 1_555
H3 C9 1_555 1_555
C15 C9 1_555 1_555
C16 C10 1_555 1_555
H4 C10 1_555 1_555
H5 C11 1_555 1_555
C17 C11 1_555 1_555
C18 C12 1_555 1_555
H6 C12 1_555 1_555
H7 C13 1_555 1_555
C19 C13 1_555 1_555
H8 C14 1_555 1_555
H9 C15 1_555 1_555
C20 C15 1_555 1_555
H10 C16 1_555 1_555
H11 C17 1_555 1_555
C21 C17 1_555 1_555
H12 C18 1_555 1_555
C22 C19 1_555 1_555
C23 C20 1_555 1_555
C24 C21 1_555 1_555
C25 C22 1_555 1_555
C26 C23 1_555 1_555
C27 C24 1_555 1_555
C28 C25 1_555 1_555
C29 C26 1_555 1_555
C30 C27 1_555 1_555
C31 C28 1_555 1_555
C32 C29 1_555 1_555
C33 C30 1_555 1_555
C34 C31 1_555 1_555
C35 C32 1_555 1_555
C36 C33 1_555 1_555
C37 C34 1_555 1_555
C38 C34 1_555 1_555
C39 C35 1_555 1_555
C40 C35 1_555 1_555
C41 C36 1_555 1_555
C42 C36 1_555 1_555
H13 C37 1_555 1_555
C43 C37 1_555 1_555
C44 C38 1_555 1_555
H14 C38 1_555 1_555
H15 C39 1_555 1_555
C45 C39 1_555 1_555
C46 C40 1_555 1_555
H16 C40 1_555 1_555
H17 C41 1_555 1_555
C47 C41 1_555 1_555
C48 C42 1_555 1_555
H18 C42 1_555 1_555
H19 C43 1_555 1_555
C49 C43 1_555 1_555
H20 C44 1_555 1_555
H21 C45 1_555 1_555
C50 C45 1_555 1_555
H22 C46 1_555 1_555
H23 C47 1_555 1_555
C51 C47 1_555 1_555
H24 C48 1_555 1_555
C52 C49 1_555 1_555
C53 C50 1_555 1_555
C54 C51 1_555 1_555
Zn5 O14 1_555 1_555
Zn6 O14 1_555 1_555
Zn7 O14 1_555 1_555
Zn8 O14 1_555 1_555
O15 Zn5 1_555 1_555
O16 Zn6 1_555 1_555
O17 C72 1_555 1_555
O18 C72 1_555 1_555
O19 Zn5 1_555 1_555
O20 Zn7 1_555 1_555
O21 C90 1_555 1_555
O22 C90 1_555 1_555
O23 Zn6 1_555 1_555
O24 Zn8 1_555 1_555
O25 C108 1_555 1_555
O26 C108 1_555 1_555
C55 O15 1_555 1_555
C56 C55 1_555 1_555
C57 C56 1_555 1_555
H25 C57 1_555 1_555
C58 C57 1_555 1_555
H26 C58 1_555 1_555
C59 C58 1_555 1_555
C60 C59 1_555 1_555
H27 C60 1_555 1_555
C61 C56 1_555 1_555
H28 C61 1_555 1_555
C62 C59 1_555 1_555
C63 C62 1_555 1_555
C64 C63 1_555 1_555
C65 C64 1_555 1_555
C66 C65 1_555 1_555
C67 C66 1_555 1_555
H29 C67 1_555 1_555
C68 C67 1_555 1_555
H30 C68 1_555 1_555
C69 C68 1_555 1_555
C70 C69 1_555 1_555
H31 C70 1_555 1_555
C71 C66 1_555 1_555
H32 C71 1_555 1_555
C72 C69 1_555 1_555
C73 O19 1_555 1_555
C74 C73 1_555 1_555
C75 C74 1_555 1_555
H33 C75 1_555 1_555
C76 C75 1_555 1_555
H34 C76 1_555 1_555
C77 C76 1_555 1_555
C78 C77 1_555 1_555
H35 C78 1_555 1_555
C79 C74 1_555 1_555
H36 C79 1_555 1_555
C80 C77 1_555 1_555
C81 C80 1_555 1_555
C82 C81 1_555 1_555
C83 C82 1_555 1_555
C84 C83 1_555 1_555
C85 C84 1_555 1_555
H37 C85 1_555 1_555
C86 C85 1_555 1_555
H38 C86 1_555 1_555
C87 C86 1_555 1_555
C88 C87 1_555 1_555
H39 C88 1_555 1_555
C89 C84 1_555 1_555
H40 C89 1_555 1_555
C90 C87 1_555 1_555
C91 O23 1_555 1_555
C92 C91 1_555 1_555
C93 C92 1_555 1_555
H41 C93 1_555 1_555
C94 C93 1_555 1_555
H42 C94 1_555 1_555
C95 C94 1_555 1_555
C96 C95 1_555 1_555
H43 C96 1_555 1_555
C97 C92 1_555 1_555
H44 C97 1_555 1_555
C98 C95 1_555 1_555
C99 C98 1_555 1_555
C100 C99 1_555 1_555
C101 C100 1_555 1_555
C102 C101 1_555 1_555
C103 C102 1_555 1_555
H45 C103 1_555 1_555
C104 C103 1_555 1_555
H46 C104 1_555 1_555
C105 C104 1_555 1_555
C106 C105 1_555 1_555
H47 C106 1_555 1_555
C107 C102 1_555 1_555
H48 C107 1_555 1_555
C108 C105 1_555 1_555
O6A C52 1_555 1_555
O9A C52 1_555 1_555
O10A C53 1_555 1_555
O12A C53 1_555 1_555
O7A C54 1_555 1_555
O13A C54 1_555 1_555
Zn2A O6A 1_555 1_555
Zn3A O9A 1_555 1_555
Zn3A_2 O10A 1_555 1_555
Zn4A O12A 1_555 1_555
Zn2A_2 O7A 1_555 1_555
Zn4A_2 O13A 1_555 1_555
Zn5B O21 1_555 1_555
Zn6A O17 1_555 1_555
Zn7A O18 1_555 1_555
Zn7A_2 O25 1_555 1_555
Zn8A O26 1_555 1_555
Zn8B O22 1_555 1_555
O17B Zn6 1_555 1_555
O18B Zn7 1_555 1_555
O21A Zn5 1_555 1_555
O22A Zn8 1_555 1_555
O25B Zn7 1_555 1_555
O26B Zn8 1_555 1_555
C2 O8 1_555 1_555
C3 O11 1_555 1_555
C14 C19 1_555 1_555
C16 C20 1_555 1_555
C18 C21 1_555 1_555
C44 C49 1_555 1_555
C46 C50 1_555 1_555
C48 C51 1_555 1_555
O16 C55 1_555 1_555
O20 C73 1_555 1_555
O24 C91 1_555 1_555
C60 C61 1_555 1_555
C70 C71 1_555 1_555
C78 C79 1_555 1_555
C88 C89 1_555 1_555
C96 C97 1_555 1_555
C106 C107 1_555 1_555

#END
