
#######################################################################
#
#                 Cambridge Crystallographic Data Centre
#                                CCDC 
#
#######################################################################
#
# If this CIF has been generated from an entry in the Cambridge 
# Structural Database, then it will include bibliographic, chemical, 
# crystal, experimental, refinement or atomic coordinate data resulting 
# from the CCDC's data processing and validation procedures.
#
#######################################################################

data_NUVYAG
_chemical_name_common            MOF-326
_chemical_formula_moiety         
'(C48 H72 B6 N12 O13 Zn4)n,16n(C3 H7 N1 O1),3n(H2 O1)'
_chemical_name_systematic        
'catena-(tris(\m~4~-4,4,8,8-Tetraethyl-2,8-pyrazaboledicarboxylato)-(\m~4~-oxo)-tetra-zinc dimethylformamide solvate trihydrate)'
_symmetry_cell_setting           cubic
_symmetry_space_group_name_H-M   'F m -3 m'
_symmetry_Int_Tables_number      225
_space_group_name_Hall           '-F 4 2 3'
loop_
_symmetry_equiv_pos_site_id
_symmetry_equiv_pos_as_xyz
1 x,y,z
2 -x,-y,z
3 -x,y,-z
4 x,-y,-z
5 z,x,y
6 z,-x,-y
7 -z,-x,y
8 -z,x,-y
9 y,z,x
10 -y,z,-x
11 y,-z,-x
12 -y,-z,x
13 y,x,-z
14 -y,-x,-z
15 y,-x,z
16 -y,x,z
17 x,z,-y
18 -x,z,y
19 -x,-z,-y
20 x,-z,y
21 z,y,-x
22 z,-y,x
23 -z,y,x
24 -z,-y,-x
25 x,1/2+y,1/2+z
26 -x,1/2-y,1/2+z
27 -x,1/2+y,1/2-z
28 x,1/2-y,1/2-z
29 z,1/2+x,1/2+y
30 z,1/2-x,1/2-y
31 -z,1/2-x,1/2+y
32 -z,1/2+x,1/2-y
33 y,1/2+z,1/2+x
34 -y,1/2+z,1/2-x
35 y,1/2-z,1/2-x
36 -y,1/2-z,1/2+x
37 y,1/2+x,1/2-z
38 -y,1/2-x,1/2-z
39 y,1/2-x,1/2+z
40 -y,1/2+x,1/2+z
41 x,1/2+z,1/2-y
42 -x,1/2+z,1/2+y
43 -x,1/2-z,1/2-y
44 x,1/2-z,1/2+y
45 z,1/2+y,1/2-x
46 z,1/2-y,1/2+x
47 -z,1/2+y,1/2+x
48 -z,1/2-y,1/2-x
49 1/2+x,y,1/2+z
50 1/2-x,-y,1/2+z
51 1/2-x,y,1/2-z
52 1/2+x,-y,1/2-z
53 1/2+z,x,1/2+y
54 1/2+z,-x,1/2-y
55 1/2-z,-x,1/2+y
56 1/2-z,x,1/2-y
57 1/2+y,z,1/2+x
58 1/2-y,z,1/2-x
59 1/2+y,-z,1/2-x
60 1/2-y,-z,1/2+x
61 1/2+y,x,1/2-z
62 1/2-y,-x,1/2-z
63 1/2+y,-x,1/2+z
64 1/2-y,x,1/2+z
65 1/2+x,z,1/2-y
66 1/2-x,z,1/2+y
67 1/2-x,-z,1/2-y
68 1/2+x,-z,1/2+y
69 1/2+z,y,1/2-x
70 1/2+z,-y,1/2+x
71 1/2-z,y,1/2+x
72 1/2-z,-y,1/2-x
73 1/2+x,1/2+y,z
74 1/2-x,1/2-y,z
75 1/2-x,1/2+y,-z
76 1/2+x,1/2-y,-z
77 1/2+z,1/2+x,y
78 1/2+z,1/2-x,-y
79 1/2-z,1/2-x,y
80 1/2-z,1/2+x,-y
81 1/2+y,1/2+z,x
82 1/2-y,1/2+z,-x
83 1/2+y,1/2-z,-x
84 1/2-y,1/2-z,x
85 1/2+y,1/2+x,-z
86 1/2-y,1/2-x,-z
87 1/2+y,1/2-x,z
88 1/2-y,1/2+x,z
89 1/2+x,1/2+z,-y
90 1/2-x,1/2+z,y
91 1/2-x,1/2-z,-y
92 1/2+x,1/2-z,y
93 1/2+z,1/2+y,-x
94 1/2+z,1/2-y,x
95 1/2-z,1/2+y,x
96 1/2-z,1/2-y,-x
97 -x,-y,-z
98 x,y,-z
99 x,-y,z
100 -x,y,z
101 -z,-x,-y
102 -z,x,y
103 z,x,-y
104 z,-x,y
105 -y,-z,-x
106 y,-z,x
107 -y,z,x
108 y,z,-x
109 -y,-x,z
110 y,x,z
111 -y,x,-z
112 y,-x,-z
113 -x,-z,y
114 x,-z,-y
115 x,z,y
116 -x,z,-y
117 -z,-y,x
118 -z,y,-x
119 z,-y,-x
120 z,y,x
121 -x,1/2-y,1/2-z
122 x,1/2+y,1/2-z
123 x,1/2-y,1/2+z
124 -x,1/2+y,1/2+z
125 -z,1/2-x,1/2-y
126 -z,1/2+x,1/2+y
127 z,1/2+x,1/2-y
128 z,1/2-x,1/2+y
129 -y,1/2-z,1/2-x
130 y,1/2-z,1/2+x
131 -y,1/2+z,1/2+x
132 y,1/2+z,1/2-x
133 -y,1/2-x,1/2+z
134 y,1/2+x,1/2+z
135 -y,1/2+x,1/2-z
136 y,1/2-x,1/2-z
137 -x,1/2-z,1/2+y
138 x,1/2-z,1/2-y
139 x,1/2+z,1/2+y
140 -x,1/2+z,1/2-y
141 -z,1/2-y,1/2+x
142 -z,1/2+y,1/2-x
143 z,1/2-y,1/2-x
144 z,1/2+y,1/2+x
145 1/2-x,-y,1/2-z
146 1/2+x,y,1/2-z
147 1/2+x,-y,1/2+z
148 1/2-x,y,1/2+z
149 1/2-z,-x,1/2-y
150 1/2-z,x,1/2+y
151 1/2+z,x,1/2-y
152 1/2+z,-x,1/2+y
153 1/2-y,-z,1/2-x
154 1/2+y,-z,1/2+x
155 1/2-y,z,1/2+x
156 1/2+y,z,1/2-x
157 1/2-y,-x,1/2+z
158 1/2+y,x,1/2+z
159 1/2-y,x,1/2-z
160 1/2+y,-x,1/2-z
161 1/2-x,-z,1/2+y
162 1/2+x,-z,1/2-y
163 1/2+x,z,1/2+y
164 1/2-x,z,1/2-y
165 1/2-z,-y,1/2+x
166 1/2-z,y,1/2-x
167 1/2+z,-y,1/2-x
168 1/2+z,y,1/2+x
169 1/2-x,1/2-y,-z
170 1/2+x,1/2+y,-z
171 1/2+x,1/2-y,z
172 1/2-x,1/2+y,z
173 1/2-z,1/2-x,-y
174 1/2-z,1/2+x,y
175 1/2+z,1/2+x,-y
176 1/2+z,1/2-x,y
177 1/2-y,1/2-z,-x
178 1/2+y,1/2-z,x
179 1/2-y,1/2+z,x
180 1/2+y,1/2+z,-x
181 1/2-y,1/2-x,z
182 1/2+y,1/2+x,z
183 1/2-y,1/2+x,-z
184 1/2+y,1/2-x,-z
185 1/2-x,1/2-z,y
186 1/2+x,1/2-z,-y
187 1/2+x,1/2+z,y
188 1/2-x,1/2+z,-y
189 1/2-z,1/2-y,x
190 1/2-z,1/2+y,-x
191 1/2+z,1/2-y,-x
192 1/2+z,1/2+y,x
_cell_length_a                   33.410(4)
_cell_length_b                   33.410(4)
_cell_length_c                   33.410(4)
_cell_angle_alpha                90
_cell_angle_beta                 90
_cell_angle_gamma                90
_cell_volume                     37293.2
_exptl_crystal_colour            colorless
_exptl_crystal_description       parallelepiped
_cell_formula_units_Z            8
loop_
_atom_site_label
_atom_site_type_symbol
_atom_site_fract_x
_atom_site_fract_y
_atom_site_fract_z
Zn1 Zn 0.28354(4) 0.28354(4) 0.21646(4)
O1 O 0.2500 0.2500 0.2500
O2 O 0.2738(2) 0.3400(3) 0.2262(2)
C1 C 0.2500 0.3560(9) 0.2500
C2 C 0.2500 0.3999(10) 0.2500
C3 C 0.2730(4) 0.4254(7) 0.2270(4)
H1 H 0.2918 0.4172 0.2082
N1 N 0.26458(17) 0.4631(5) 0.23542(17)
B1 B 0.2827(9) 0.5000 0.2173(9)
C4 C 0.3280(9) 0.5000 0.2204(6)
H2 H 0.3397 0.5237 0.2084
C5 C 0.3323(8) 0.5000 0.2679(6)
O2XA O 0.2262(2) 0.3400(3) 0.2738(2)
C3XA C 0.2270(4) 0.4254(7) 0.2730(4)
H1XA H 0.2082 0.4172 0.2918
N1XA N 0.23542(17) 0.4631(5) 0.26458(17)
B1U B 0.2173(9) 0.5000 0.2827(9)
C4XA C 0.1720(9) 0.5000 0.2796(6)
H2XA H 0.1603 0.5237 0.2916
C5XA C 0.1677(8) 0.5000 0.2321(6)
O2SB O 0.2738(2) 0.6600(3) 0.2262(2)
C1U C 0.2500 0.6440(9) 0.2500
C2U C 0.2500 0.6001(10) 0.2500
C3SB C 0.2730(4) 0.5746(7) 0.2270(4)
H1SB H 0.2918 0.5828 0.2082
N1SB N 0.26458(17) 0.5369(5) 0.23542(17)
C4SB C 0.2796(6) 0.5000 0.1720(9)
H2SB H 0.2916 0.4763 0.1603
C5SB C 0.2321(6) 0.5000 0.1677(8)
H2TC H 0.3397 0.4763 0.2084
C4U C 0.2204(6) 0.5000 0.3280(9)
H2OD H 0.2084 0.5237 0.3397
C5U C 0.2679(6) 0.5000 0.3323(8)
O2U O 0.2262(2) 0.6600(3) 0.2738(2)
C3U C 0.2270(4) 0.5746(7) 0.2730(4)
H1U H 0.2082 0.5828 0.2918
N1U N 0.23542(17) 0.5369(5) 0.26458(17)
H2NE H 0.1603 0.4763 0.2916
H2IF H 0.2916 0.5237 0.1603
H2U H 0.2084 0.4763 0.3397
Zn1D Zn 0.21646(4) 0.28354(4) 0.28354(4)
O2D O 0.2262(2) 0.2738(2) 0.3400(3)
C1D C 0.2500 0.2500 0.3560(9)
C2D C 0.2500 0.2500 0.3999(10)
C3D C 0.2270(4) 0.2730(4) 0.4254(7)
H1D H 0.2082 0.2918 0.4172
N1D N 0.23542(17) 0.26458(17) 0.4631(5)
B1D B 0.2173(9) 0.2827(9) 0.5000
C4D C 0.2204(6) 0.3280(9) 0.5000
H2D H 0.2084 0.3397 0.5237
C5D C 0.2679(6) 0.3323(8) 0.5000
O2ZB O 0.2738(2) 0.2262(2) 0.3400(3)
C3ZB C 0.2730(4) 0.2270(4) 0.4254(7)
H1ZB H 0.2918 0.2082 0.4172
N1ZB N 0.26458(17) 0.23542(17) 0.4631(5)
B1P B 0.2827(9) 0.2173(9) 0.5000
C4ZB C 0.2796(6) 0.1720(9) 0.5000
H2ZB H 0.2916 0.1603 0.5237
C5ZB C 0.2321(6) 0.1677(8) 0.5000
O2LC O 0.2262(2) 0.2738(2) 0.6600(3)
C1P C 0.2500 0.2500 0.6440(9)
C2P C 0.2500 0.2500 0.6001(10)
C3LC C 0.2270(4) 0.2730(4) 0.5746(7)
H1LC H 0.2082 0.2918 0.5828
N1LC N 0.23542(17) 0.26458(17) 0.5369(5)
C4LC C 0.1720(9) 0.2796(6) 0.5000
H2LC H 0.1603 0.2916 0.4763
C5LC C 0.1677(8) 0.2321(6) 0.5000
H2XC H 0.2084 0.3397 0.4763
C4P C 0.3280(9) 0.2204(6) 0.5000
H2JD H 0.3397 0.2084 0.5237
C5P C 0.3323(8) 0.2679(6) 0.5000
O2P O 0.2738(2) 0.2262(2) 0.6600(3)
C3P C 0.2730(4) 0.2270(4) 0.5746(7)
H1P H 0.2918 0.2082 0.5828
N1P N 0.26458(17) 0.23542(17) 0.5369(5)
H2PF H 0.2916 0.1603 0.4763
H2BG H 0.1603 0.2916 0.5237
H2P H 0.3397 0.2084 0.4763
Zn1H Zn 0.28354(4) 0.21646(4) 0.28354(4)
O2H O 0.3400(3) 0.2262(2) 0.2738(2)
C1H C 0.3560(9) 0.2500 0.2500
C2H C 0.3999(10) 0.2500 0.2500
C3H C 0.4254(7) 0.2270(4) 0.2730(4)
H1H H 0.4172 0.2082 0.2918
N1H N 0.4631(5) 0.23542(17) 0.26458(17)
B1H B 0.5000 0.2173(9) 0.2827(9)
C4H C 0.5000 0.2204(6) 0.3280(9)
H2H H 0.5237 0.2084 0.3397
C5H C 0.5000 0.2679(6) 0.3323(8)
O2HA O 0.3400(3) 0.2738(2) 0.2262(2)
C3HA C 0.4254(7) 0.2730(4) 0.2270(4)
H1HA H 0.4172 0.2918 0.2082
N1HA N 0.4631(5) 0.26458(17) 0.23542(17)
B1O B 0.5000 0.2827(9) 0.2173(9)
C4HA C 0.5000 0.2796(6) 0.1720(9)
H2HA H 0.5237 0.2916 0.1603
C5HA C 0.5000 0.2321(6) 0.1677(8)
O2KA O 0.6600(3) 0.2262(2) 0.2738(2)
C1O C 0.6440(9) 0.2500 0.2500
C2O C 0.6001(10) 0.2500 0.2500
C3KA C 0.5746(7) 0.2270(4) 0.2730(4)
H1KA H 0.5828 0.2082 0.2918
N1KA N 0.5369(5) 0.23542(17) 0.26458(17)
C4KA C 0.5000 0.1720(9) 0.2796(6)
H2KA H 0.4763 0.1603 0.2916
C5KA C 0.5000 0.1677(8) 0.2321(6)
H2BD H 0.4763 0.2084 0.3397
C4O C 0.5000 0.3280(9) 0.2204(6)
H2ED H 0.5237 0.3397 0.2084
C5O C 0.5000 0.3323(8) 0.2679(6)
O2O O 0.6600(3) 0.2738(2) 0.2262(2)
C3O C 0.5746(7) 0.2730(4) 0.2270(4)
H1O H 0.5828 0.2918 0.2082
N1O N 0.5369(5) 0.26458(17) 0.23542(17)
H2XD H 0.4763 0.2916 0.1603
H2EE H 0.5237 0.1603 0.2916
H2O H 0.4763 0.3397 0.2084
Zn1N Zn 0.28354(4) 0.71646(4) 0.21646(4)
Zn1O Zn 0.71646(4) 0.28354(4) 0.21646(4)
Zn1P Zn 0.28354(4) 0.21646(4) 0.71646(4)
Zn1Q Zn 0.71646(4) 0.21646(4) 0.28354(4)
Zn1T Zn 0.21646(4) 0.28354(4) 0.71646(4)
Zn1U Zn 0.21646(4) 0.71646(4) 0.28354(4)
Zn1CA Zn 0.21646(4) 0.21646(4) 0.21646(4)
O1N O 0.2500 0.7500 0.2500
O2N O 0.3400(3) 0.7262(2) 0.2262(2)
O2AA O 0.2738(2) 0.1600(3) 0.2738(2)
O2NA O 0.2738(2) 0.7262(2) 0.1600(3)
O2CB O 0.2738(2) 0.2738(2) 0.1600(3)
O2EC O 0.1600(3) 0.2738(2) 0.2738(2)
H3? H 0.3397 0.5237 0.2084
H4? H 0.3521 0.4807 0.2757
H5? H 0.3070 0.4931 0.2798
H6? H 0.3402 0.5261 0.2768
loop_
_geom_bond_atom_site_label_1
_geom_bond_atom_site_label_2
_geom_bond_site_symmetry_1
_geom_bond_site_symmetry_2
Zn1 O1 1_555 1_555
O1 Zn1D 1_555 1_555
O2 Zn1 1_555 1_555
C1 O2 1_555 1_555
C2 C1 1_555 1_555
C3 C2 1_555 1_555
H1 C3 1_555 1_555
N1 C3 1_555 1_555
B1 N1 1_555 1_555
C4 B1 1_555 1_555
H2 C4 1_555 1_555
C5 C4 1_555 1_555
O2XA C1 1_555 1_555
C3XA C2 1_555 1_555
H1XA C3XA 1_555 1_555
N1XA N1 1_555 1_555
B1U N1XA 1_555 1_555
C4XA B1U 1_555 1_555
H2XA C4XA 1_555 1_555
C5XA C4XA 1_555 1_555
O2SB C1U 1_555 1_555
C1U C2U 1_555 1_555
C2U C3SB 1_555 1_555
C3SB H1SB 1_555 1_555
N1SB B1 1_555 1_555
C4SB B1 1_555 1_555
H2SB C4SB 1_555 1_555
C5SB C4SB 1_555 1_555
H2TC C4 1_555 1_555
C4U B1U 1_555 1_555
H2OD C4U 1_555 1_555
C5U C4U 1_555 1_555
O2U C1U 1_555 1_555
C3U C2U 1_555 1_555
H1U C3U 1_555 1_555
N1U B1U 1_555 1_555
H2NE C4XA 1_555 1_555
H2IF C4SB 1_555 1_555
H2U C4U 1_555 1_555
Zn1D O2XA 1_555 1_555
O2D Zn1D 1_555 1_555
C1D O2D 1_555 1_555
C2D C1D 1_555 1_555
C3D C2D 1_555 1_555
H1D C3D 1_555 1_555
N1D C3D 1_555 1_555
B1D N1D 1_555 1_555
C4D B1D 1_555 1_555
H2D C4D 1_555 1_555
C5D C4D 1_555 1_555
O2ZB C1D 1_555 1_555
C3ZB C2D 1_555 1_555
H1ZB C3ZB 1_555 1_555
N1ZB N1D 1_555 1_555
B1P N1ZB 1_555 1_555
C4ZB B1P 1_555 1_555
H2ZB C4ZB 1_555 1_555
C5ZB C4ZB 1_555 1_555
O2LC C1P 1_555 1_555
C1P C2P 1_555 1_555
C2P C3LC 1_555 1_555
C3LC H1LC 1_555 1_555
N1LC B1D 1_555 1_555
C4LC B1D 1_555 1_555
H2LC C4LC 1_555 1_555
C5LC C4LC 1_555 1_555
H2XC C4D 1_555 1_555
C4P B1P 1_555 1_555
H2JD C4P 1_555 1_555
C5P C4P 1_555 1_555
O2P C1P 1_555 1_555
C3P C2P 1_555 1_555
H1P C3P 1_555 1_555
N1P B1P 1_555 1_555
H2PF C4ZB 1_555 1_555
H2BG C4LC 1_555 1_555
H2P C4P 1_555 1_555
Zn1H O1 1_555 1_555
O2H Zn1H 1_555 1_555
C1H O2H 1_555 1_555
C2H C1H 1_555 1_555
C3H C2H 1_555 1_555
H1H C3H 1_555 1_555
N1H C3H 1_555 1_555
B1H N1H 1_555 1_555
C4H B1H 1_555 1_555
H2H C4H 1_555 1_555
C5H C4H 1_555 1_555
O2HA Zn1 1_555 1_555
C3HA C2H 1_555 1_555
H1HA C3HA 1_555 1_555
N1HA N1H 1_555 1_555
B1O N1HA 1_555 1_555
C4HA B1O 1_555 1_555
H2HA C4HA 1_555 1_555
C5HA C4HA 1_555 1_555
O2KA C1O 1_555 1_555
C1O C2O 1_555 1_555
C2O C3KA 1_555 1_555
C3KA H1KA 1_555 1_555
N1KA B1H 1_555 1_555
C4KA B1H 1_555 1_555
H2KA C4KA 1_555 1_555
C5KA C4KA 1_555 1_555
H2BD C4H 1_555 1_555
C4O B1O 1_555 1_555
H2ED C4O 1_555 1_555
C5O C4O 1_555 1_555
O2O C1O 1_555 1_555
C3O C2O 1_555 1_555
H1O C3O 1_555 1_555
N1O B1O 1_555 1_555
H2XD C4HA 1_555 1_555
H2EE C4KA 1_555 1_555
H2O C4O 1_555 1_555
Zn1N O2SB 1_555 1_555
Zn1O O2O 1_555 1_555
Zn1P O2P 1_555 1_555
Zn1Q O2KA 1_555 1_555
Zn1T O2LC 1_555 1_555
Zn1U O2U 1_555 1_555
Zn1CA O1 1_555 1_555
O1N Zn1N 1_555 1_555
O2N Zn1N 1_555 1_555
O2AA Zn1H 1_555 1_555
O2NA Zn1N 1_555 1_555
O2CB Zn1 1_555 1_555
O2EC Zn1D 1_555 1_555
C3XA N1XA 1_555 1_555
C3SB N1SB 1_555 1_555
N1SB N1U 1_555 1_555
C3U N1U 1_555 1_555
O2ZB Zn1H 1_555 1_555
C3ZB N1ZB 1_555 1_555
C3LC N1LC 1_555 1_555
N1LC N1P 1_555 1_555
C3P N1P 1_555 1_555
C1H O2HA 1_555 1_555
C3HA N1HA 1_555 1_555
C3KA N1KA 1_555 1_555
N1KA N1O 1_555 1_555
C3O N1O 1_555 1_555
Zn1U O1N 1_555 1_555

#END
