
#######################################################################
#
#                 Cambridge Crystallographic Data Centre
#                                CCDC 
#
#######################################################################
#
# If this CIF has been generated from an entry in the Cambridge 
# Structural Database, then it will include bibliographic, chemical, 
# crystal, experimental, refinement or atomic coordinate data resulting 
# from the CCDC's data processing and validation procedures.
#
#######################################################################

data_TISGUY
_chemical_formula_moiety         '(C72 H64 N8 Ni4 O24)n,11n(H2 O1)'
_chemical_name_systematic        
"catena-(tetrakis(\m~2~-1,1'-Biphenyl-2,2'-dicarboxylato)-tetrakis(\m~2~-pyrazine)-octaaqua-tetra-nickel(ii) undecahydrate)"
_symmetry_cell_setting           monoclinic
_symmetry_space_group_name_H-M   'P 21/c'
_symmetry_Int_Tables_number      14
_space_group_name_Hall           '-P 2ybc'
loop_
_symmetry_equiv_pos_site_id
_symmetry_equiv_pos_as_xyz
1 x,y,z
2 -x,1/2+y,1/2-z
3 -x,-y,-z
4 x,1/2-y,1/2+z
_cell_length_a                   14.8904(12)
_cell_length_b                   28.226(2)
_cell_length_c                   9.9562(9)
_cell_angle_alpha                90
_cell_angle_beta                 106.306(2)
_cell_angle_gamma                90
_cell_volume                     4016.24
_exptl_crystal_colour            green
_exptl_crystal_description       polyhedral
_chemical_melting_point          'above 220 deg.C'
_cell_formula_units_Z            2
loop_
_atom_site_label
_atom_site_type_symbol
_atom_site_fract_x
_atom_site_fract_y
_atom_site_fract_z
Ni1 Ni 0.17087(4) 0.50960(2) 0.81783(7)
Ni2 Ni 0.51089(4) 0.66437(2) 1.23384(7)
O1 O 0.1655(2) 0.58254(11) 0.8152(4)
O2 O 0.2867(3) 0.60098(14) 0.7368(5)
O3 O 0.3666(2) 0.66377(11) 1.1753(4)
O4 O 0.3580(3) 0.59277(14) 1.0779(5)
O5 O 0.6571(2) 0.66728(12) 1.2921(4)
O6 O 0.6900(3) 0.61175(17) 1.4584(5)
O7 O 0.1737(2) 0.43725(11) 0.8310(4)
O8 O 0.3261(3) 0.42772(14) 0.8812(8)
O9 O 0.2662(3) 0.51013(13) 0.6981(4)
H1 H 0.308(3) 0.4914(17) 0.739(5)
H2 H 0.284(3) 0.5384(8) 0.700(5)
O10 O 0.2776(2) 0.51174(13) 0.9970(4)
H3 H 0.267(3) 0.4944(19) 1.059(3)
H4 H 0.286(4) 0.5402(8) 1.026(5)
O11 O 0.5196(3) 0.62270(13) 1.0677(4)
H5 H 0.473(2) 0.6041(13) 1.050(4)
H6 H 0.570(2) 0.6064(16) 1.095(4)
O12 O 0.5113(3) 0.60594(13) 1.3621(4)
H7 H 0.478(3) 0.5850(8) 1.3078(19)
H8 H 0.5706(17) 0.5954(11) 1.365(3)
N1 N 0.0687(3) 0.50614(13) 0.9307(4)
N2 N 0.0666(3) 0.50369(14) 0.6288(4)
N3 N 0.5088(3) 0.70984(14) 1.3980(4)
N4 N 0.5114(3) 0.72268(14) 1.1022(4)
C1 C 0.2241(4) 0.61132(18) 0.7928(6)
C2 C 0.2135(4) 0.66309(17) 0.8263(6)
C3 C 0.2455(4) 0.69678(19) 0.7459(6)
H9 H 0.2772 0.6865 0.6806
C4 C 0.2314(4) 0.7448(2) 0.7610(6)
H10 H 0.2562 0.7673 0.7104
C5 C 0.1808(4) 0.75948(19) 0.8502(6)
H11 H 0.1666 0.7921 0.8560
C6 C 0.1509(4) 0.72670(19) 0.9312(6)
H12 H 0.1161 0.7373 0.9923
C7 C 0.1702(3) 0.67854(17) 0.9256(5)
C8 C 0.1484(3) 0.64657(17) 1.0308(6)
C9 C 0.0577(4) 0.6407(2) 1.0423(6)
H13 H 0.0073 0.6576 0.9817
C10 C 0.0411(4) 0.6100(2) 1.1429(7)
H14 H -0.0210 0.6051 1.1481
C11 C 0.1137(5) 0.5870(2) 1.2332(7)
H15 H 0.1017 0.5665 1.3019
C12 C 0.2032(4) 0.5928(2) 1.2271(6)
H16 H 0.2529 0.5764 1.2909
C13 C 0.2216(3) 0.62276(16) 1.1278(5)
C14 C 0.3221(4) 0.62722(17) 1.1268(6)
C15 C 0.7135(4) 0.64231(19) 1.3837(6)
C16 C 0.8165(4) 0.65164(17) 1.4149(6)
C17 C 0.8674(4) 0.64845(19) 1.5560(6)
H17 H 0.8361 0.6385 1.6222
C18 C 0.9614(4) 0.6592(2) 1.6024(7)
H18 H 0.9944 0.6570 1.6989
C19 C 1.0062(4) 0.67336(19) 1.5060(7)
H19 H 1.0710 0.6808 1.5360
C20 C 0.9579(4) 0.67685(18) 1.3651(6)
H20 H 0.9902 0.6867 1.3002
C21 C 0.8624(4) 0.66615(16) 1.3171(6)
C22 C 0.8187(3) 0.67165(17) 1.1627(6)
C23 C 0.8343(4) 0.71386(18) 1.0982(7)
H21 H 0.8682 0.7387 1.1544
C24 C 0.8020(4) 0.7201(2) 0.9572(7)
H22 H 0.8145 0.7490 0.9166
C25 C 0.7513(4) 0.6849(2) 0.8724(7)
H23 H 0.7293 0.6893 0.7740
C26 C 0.7329(4) 0.64297(19) 0.9327(6)
H24 H 0.6968 0.6189 0.8754
C27 C 0.7672(3) 0.63586(17) 1.0770(6)
C28 C 0.2467(3) 0.41304(17) 0.8709(6)
C29 C 0.0826(3) 0.47897(16) 1.0437(5)
H25 H 0.1412 0.4634 1.0784
C30 C -0.0147(3) 0.52739(17) 0.8876(5)
H26 H -0.0277 0.5474 0.8077
C31 C 0.0304(3) 0.54174(16) 0.5547(5)
H27 H 0.0507 0.5722 0.5911
C32 C 0.0358(4) 0.46162(16) 0.5735(5)
H28 H 0.0598 0.4335 0.6233
C33 C 0.4426(3) 0.71114(18) 1.4654(6)
H29 H 0.3938 0.6883 1.4434
C34 C 0.4437(4) 0.75523(18) 1.0654(6)
H30 H 0.3950 0.7551 1.1098
C35 C 0.5786(4) 0.72490(19) 1.0376(6)
H31 H 0.6291 0.7030 1.0628
C36 C 0.5767(4) 0.74208(18) 1.4358(6)
H32 H 0.6252 0.7422 1.3909
Ni1B Ni 0.82913(4) 0.49040(2) 1.18217(7)
Ni1B_2 Ni -0.17087(4) 0.49040(2) 1.18217(7)
Ni1B_3 Ni -0.17087(4) 0.49040(2) 0.18217(7)
Ni2B Ni 0.48911(4) 0.33563(2) 0.76616(7)
Ni2C Ni 0.51089(4) 0.83563(2) 1.73384(7)
Ni2C_2 Ni 0.51089(4) 0.83563(2) 0.73384(7)
Ni2B_2 Ni -0.51089(4) 0.33563(2) 0.76616(7)
O1B O -0.1655(2) 0.41746(11) 1.1848(4)
O2B O -0.2867(3) 0.39902(14) 1.2632(5)
O3B O 0.6334(2) 0.33623(11) 0.8247(4)
O3B_2 O -0.3666(2) 0.33623(11) 0.8247(4)
O4B O -0.3580(3) 0.40723(14) 0.9221(5)
O5B O 0.3429(2) 0.33272(12) 0.7079(4)
O6B O 0.3100(3) 0.38825(17) 0.5416(5)
O7B O 0.8263(2) 0.56275(11) 1.1690(4)
O7B_2 O -0.1737(2) 0.56275(11) 1.1690(4)
O8B O 0.6739(3) 0.57228(14) 1.1188(8)
O9B O -0.2662(3) 0.48987(13) 1.3019(4)
H1B H -0.308(3) 0.5086(17) 1.261(5)
H2B H -0.284(3) 0.4616(8) 1.300(5)
O10B O -0.2776(2) 0.48826(13) 1.0030(4)
H3B H -0.267(3) 0.5056(19) 0.941(3)
H4B H -0.286(4) 0.4598(8) 0.974(5)
O11B O 0.4804(3) 0.37730(13) 0.9323(4)
H5B H 0.527(2) 0.3959(13) 0.950(4)
H6B H 0.430(2) 0.3936(16) 0.905(4)
O12B O 0.4887(3) 0.39406(13) 0.6379(4)
H7B H 0.522(3) 0.4150(8) 0.6922(19)
H8B H 0.4294(17) 0.4046(11) 0.635(3)
N1B N -0.0687(3) 0.49386(13) 1.0693(4)
N2B N -0.0666(3) 0.49631(14) 1.3712(4)
N2B_2 N -0.0666(3) 0.49631(14) 0.3712(4)
N3B N 0.4912(3) 0.29016(14) 0.6020(4)
N3C N 0.5088(3) 0.79016(14) 0.8980(4)
N4B N 0.4886(3) 0.27732(14) 0.8978(4)
N4C N 0.5114(3) 0.77732(14) 1.6022(4)
C1B C -0.2241(4) 0.38868(18) 1.2072(6)
C2B C -0.2135(4) 0.33691(17) 1.1737(6)
C3B C -0.2455(4) 0.30322(19) 1.2541(6)
H9B H -0.2772 0.3135 1.3194
C4B C -0.2314(4) 0.2552(2) 1.2390(6)
H10B H -0.2562 0.2327 1.2896
C5B C -0.1808(4) 0.24052(19) 1.1498(6)
H11B H -0.1666 0.2079 1.1440
C6B C -0.1509(4) 0.27330(19) 1.0688(6)
H12B H -0.1161 0.2627 1.0077
C7B C -0.1702(3) 0.32146(17) 1.0744(5)
C8B C -0.1484(3) 0.35343(17) 0.9692(6)
C9B C -0.0577(4) 0.3593(2) 0.9577(6)
H13B H -0.0073 0.3424 1.0183
C10B C -0.0411(4) 0.3900(2) 0.8571(7)
H14B H 0.0210 0.3949 0.8519
C11B C -0.1137(5) 0.4130(2) 0.7668(7)
H15B H -0.1017 0.4335 0.6981
C12B C -0.2032(4) 0.4072(2) 0.7729(6)
H16B H -0.2529 0.4236 0.7091
C13B C -0.2216(3) 0.37724(16) 0.8722(5)
C14B C -0.3221(4) 0.37278(17) 0.8732(6)
C15B C 0.2865(4) 0.35769(19) 0.6163(6)
C16B C 0.1835(4) 0.34836(17) 0.5851(6)
C17B C 0.1326(4) 0.35155(19) 0.4440(6)
H17B H 0.1639 0.3615 0.3778
C18B C 0.0386(4) 0.3408(2) 0.3976(7)
H18B H 0.0056 0.3430 0.3011
C19B C -0.0062(4) 0.32664(19) 0.4940(7)
H19B H -0.0710 0.3192 0.4640
C20B C 0.0421(4) 0.32315(18) 0.6349(6)
H20B H 0.0098 0.3133 0.6998
C21B C 0.1376(4) 0.33385(16) 0.6829(6)
C22B C 0.1813(3) 0.32835(17) 0.8373(6)
C23B C 0.1657(4) 0.28614(18) 0.9018(7)
H21B H 0.1318 0.2613 0.8456
C24B C 0.1980(4) 0.2799(2) 1.0428(7)
H22B H 0.1855 0.2510 1.0834
C25B C 0.2487(4) 0.3151(2) 1.1276(7)
H23B H 0.2707 0.3107 1.2260
C26B C 0.2671(4) 0.35703(19) 1.0673(6)
H24B H 0.3032 0.3811 1.1246
C27B C 0.2328(3) 0.36414(17) 0.9230(6)
C28B C 0.7533(3) 0.58696(17) 1.1291(6)
C29B C -0.0826(3) 0.52103(16) 0.9563(5)
H25B H -0.1412 0.5366 0.9216
C30B C 0.0147(3) 0.47261(17) 1.1124(5)
H26B H 0.0277 0.4526 1.1923
C31B C -0.0304(3) 0.45826(16) 0.4453(5)
H27B H -0.0507 0.4278 0.4089
C32B C -0.0358(4) 0.53838(16) 0.4265(5)
H28B H -0.0598 0.5665 0.3767
C33C C 0.4426(3) 0.78886(18) 0.9654(6)
H29C H 0.3938 0.8117 0.9434
C34C C 0.4437(4) 0.74477(18) 1.5654(6)
H30C H 0.3950 0.7449 1.6098
C35C C 0.5786(4) 0.77510(19) 1.5376(6)
H31C H 0.6291 0.7970 1.5628
C36C C 0.5767(4) 0.75792(18) 0.9358(6)
H32C H 0.6252 0.7578 0.8909
O13 O 0.5156(4) 0.5700(2) 0.6379(7)
H33 H 0.4978 0.5923 0.6818
H34 H 0.5144 0.5800 0.5569
O14 O 0.2047(4) 0.46896(18) 0.4308(5)
H35 H 0.2178 0.4884 0.4988
H36 H 0.2202 0.4417 0.4678
O15 O 0.4591(3) 0.64232(18) 0.7710(5)
H37 H 0.4843 0.6403 0.8587
H38 H 0.4005 0.6376 0.7514
O16 O 0.4689(7) 0.4845(3) 0.7365(8)
H39 H 0.5040 0.4791 0.8184
H40 H 0.4829 0.5108 0.7058
O17 O 0.6959(4) 0.5340(2) 0.7562(6)
H41 H 0.6418 0.5450 0.7161
H42 H 0.7281 0.5329 0.6980
O18? O 0.5271(9) 0.5034(6) 1.0213(18)
loop_
_geom_bond_atom_site_label_1
_geom_bond_atom_site_label_2
_geom_bond_site_symmetry_1
_geom_bond_site_symmetry_2
Ni1 O1 1_555 1_555
Ni2 O3 1_555 1_555
O1 C1 1_555 1_555
O2 C1 1_555 1_555
O3 C14 1_555 1_555
O4 C14 1_555 1_555
O5 Ni2 1_555 1_555
O6 C15 1_555 1_555
O7 Ni1 1_555 1_555
O8 C28 1_555 1_555
O9 Ni1 1_555 1_555
H1 O9 1_555 1_555
H2 O9 1_555 1_555
O10 Ni1 1_555 1_555
H3 O10 1_555 1_555
H4 O10 1_555 1_555
O11 Ni2 1_555 1_555
H5 O11 1_555 1_555
H6 O11 1_555 1_555
O12 Ni2 1_555 1_555
H7 O12 1_555 1_555
H8 O12 1_555 1_555
N1 Ni1 1_555 1_555
N2 Ni1 1_555 1_555
N3 Ni2 1_555 1_555
N4 Ni2 1_555 1_555
C1 C2 1_555 1_555
C2 C3 1_555 1_555
C3 H9 1_555 1_555
C4 C3 1_555 1_555
H10 C4 1_555 1_555
C5 C4 1_555 1_555
H11 C5 1_555 1_555
C6 C5 1_555 1_555
H12 C6 1_555 1_555
C7 C2 1_555 1_555
C8 C7 1_555 1_555
C9 C8 1_555 1_555
H13 C9 1_555 1_555
C10 C9 1_555 1_555
H14 C10 1_555 1_555
C11 C10 1_555 1_555
H15 C11 1_555 1_555
C12 C11 1_555 1_555
H16 C12 1_555 1_555
C13 C8 1_555 1_555
C14 C13 1_555 1_555
C15 O5 1_555 1_555
C16 C15 1_555 1_555
C17 C16 1_555 1_555
H17 C17 1_555 1_555
C18 C17 1_555 1_555
H18 C18 1_555 1_555
C19 C18 1_555 1_555
H19 C19 1_555 1_555
C20 C19 1_555 1_555
H20 C20 1_555 1_555
C21 C16 1_555 1_555
C22 C21 1_555 1_555
C23 C22 1_555 1_555
H21 C23 1_555 1_555
C24 C23 1_555 1_555
H22 C24 1_555 1_555
C25 C24 1_555 1_555
H23 C25 1_555 1_555
C26 C25 1_555 1_555
H24 C26 1_555 1_555
C27 C22 1_555 1_555
C28 O7 1_555 1_555
C29 N1 1_555 1_555
H25 C29 1_555 1_555
C30 N1 1_555 1_555
H26 C30 1_555 1_555
C31 N2 1_555 1_555
H27 C31 1_555 1_555
C32 N2 1_555 1_555
H28 C32 1_555 1_555
C33 N3 1_555 1_555
H29 C33 1_555 1_555
C34 N4 1_555 1_555
H30 C34 1_555 1_555
C35 N4 1_555 1_555
H31 C35 1_555 1_555
C36 N3 1_555 1_555
H32 C36 1_555 1_555
O13 H33 1_555 1_555
H34 O13 1_555 1_555
O14 H35 1_555 1_555
H36 O14 1_555 1_555
O15 H37 1_555 1_555
H38 O15 1_555 1_555
O16 H39 1_555 1_555
H40 O16 1_555 1_555
O17 H41 1_555 1_555
H42 O17 1_555 1_555
Ni1B O7B 1_555 1_555
Ni1B_2 O1B 1_555 1_555
Ni1B_3 N2B_2 1_555 1_555
Ni2B O3B 1_555 1_555
Ni2C N4C 1_555 1_555
Ni2C_2 N3C 1_555 1_555
Ni2B_2 O3B_2 1_555 1_555
O1B C1B 1_555 1_555
O2B C1B 1_555 1_555
O3B_2 C14B 1_555 1_555
O4B C14B 1_555 1_555
O5B Ni2B 1_555 1_555
O6B C15B 1_555 1_555
O7B C28B 1_555 1_555
O7B_2 Ni1B_2 1_555 1_555
O8B C28B 1_555 1_555
O9B Ni1B_2 1_555 1_555
H1B O9B 1_555 1_555
H2B O9B 1_555 1_555
O10B Ni1B_2 1_555 1_555
H3B O10B 1_555 1_555
H4B O10B 1_555 1_555
O11B Ni2B 1_555 1_555
H5B O11B 1_555 1_555
H6B O11B 1_555 1_555
O12B Ni2B 1_555 1_555
H7B O12B 1_555 1_555
H8B O12B 1_555 1_555
N1B Ni1B_2 1_555 1_555
N2B Ni1B_2 1_555 1_555
N2B_2 C31B 1_555 1_555
N3B Ni2B 1_555 1_555
N3C C33C 1_555 1_555
N4B Ni2B 1_555 1_555
N4C C34C 1_555 1_555
C1B C2B 1_555 1_555
C2B C3B 1_555 1_555
C3B H9B 1_555 1_555
C4B C3B 1_555 1_555
H10B C4B 1_555 1_555
C5B C4B 1_555 1_555
H11B C5B 1_555 1_555
C6B C5B 1_555 1_555
H12B C6B 1_555 1_555
C7B C2B 1_555 1_555
C8B C7B 1_555 1_555
C9B C8B 1_555 1_555
H13B C9B 1_555 1_555
C10B C9B 1_555 1_555
H14B C10B 1_555 1_555
C11B C10B 1_555 1_555
H15B C11B 1_555 1_555
C12B C11B 1_555 1_555
H16B C12B 1_555 1_555
C13B C8B 1_555 1_555
C14B C13B 1_555 1_555
C15B O5B 1_555 1_555
C16B C15B 1_555 1_555
C17B C16B 1_555 1_555
H17B C17B 1_555 1_555
C18B C17B 1_555 1_555
H18B C18B 1_555 1_555
C19B C18B 1_555 1_555
H19B C19B 1_555 1_555
C20B C19B 1_555 1_555
H20B C20B 1_555 1_555
C21B C16B 1_555 1_555
C22B C21B 1_555 1_555
C23B C22B 1_555 1_555
H21B C23B 1_555 1_555
C24B C23B 1_555 1_555
H22B C24B 1_555 1_555
C25B C24B 1_555 1_555
H23B C25B 1_555 1_555
C26B C25B 1_555 1_555
H24B C26B 1_555 1_555
C27B C28 1_555 1_555
C28B C27 1_555 1_555
C29B C30 1_555 1_555
H25B C29B 1_555 1_555
C30B C29 1_555 1_555
H26B C30B 1_555 1_555
C31B C32 1_555 1_555
H27B C31B 1_555 1_555
C32B C31 1_555 1_555
H28B C32B 1_555 1_555
C33C C34 1_555 1_555
H29C C33C 1_555 1_555
C34C C33 1_555 1_555
H30C C34C 1_555 1_555
C35C C36 1_555 1_555
H31C C35C 1_555 1_555
C36C C35 1_555 1_555
H32C C36C 1_555 1_555
C6 C7 1_555 1_555
C12 C13 1_555 1_555
C20 C21 1_555 1_555
C26 C27 1_555 1_555
N1B C29B 1_555 1_555
N1B C30B 1_555 1_555
N2B_2 C32B 1_555 1_555
N3C C36C 1_555 1_555
N4C C35C 1_555 1_555
C6B C7B 1_555 1_555
C12B C13B 1_555 1_555
C20B C21B 1_555 1_555
C22B C27B 1_555 1_555
C26B C27B 1_555 1_555

#END
