
#######################################################################
#
#                 Cambridge Crystallographic Data Centre
#                                CCDC 
#
#######################################################################
#
# If this CIF has been generated from an entry in the Cambridge 
# Structural Database, then it will include bibliographic, chemical, 
# crystal, experimental, refinement or atomic coordinate data resulting 
# from the CCDC's data processing and validation procedures.
#
#######################################################################

data_HAWYUB
_chemical_formula_moiety         '(C24 H14 Cd2 N2 O8)n'
_chemical_name_systematic        
'catena-((\m~4~-naphthalene-2,6-dicarboxylato)-bis(\m~3~-isonicotinato)-di-cadmium unknown solvate)'
_symmetry_cell_setting           monoclinic
_symmetry_space_group_name_H-M   'P 21/c'
_symmetry_Int_Tables_number      14
_space_group_name_Hall           '-P 2ybc'
loop_
_symmetry_equiv_pos_site_id
_symmetry_equiv_pos_as_xyz
1 x,y,z
2 -x,1/2+y,1/2-z
3 -x,-y,-z
4 x,1/2-y,1/2+z
_cell_length_a                   15.385(6)
_cell_length_b                   14.237(5)
_cell_length_c                   6.918(3)
_cell_angle_alpha                90
_cell_angle_beta                 96.622(8)
_cell_angle_gamma                90
_cell_volume                     1505.18
_exptl_crystal_colour            colorless
_exptl_crystal_description       block
_cell_formula_units_Z            2
loop_
_atom_site_label
_atom_site_type_symbol
_atom_site_fract_x
_atom_site_fract_y
_atom_site_fract_z
C1 C 0.4147(11) 0.8537(12) 0.165(3)
C2 C 0.4781(12) 0.9324(13) 0.215(3)
C3 C 0.5665(12) 0.9186(12) 0.221(3)
H1 H 0.5885 0.8604 0.1899
C4 C 0.6223(12) 0.9919(13) 0.274(3)
H2 H 0.6822 0.9822 0.2774
C5 C 0.5062(12) 1.0906(13) 0.311(3)
H3 H 0.4848 1.1496 0.3386
C6 C 0.4474(12) 1.0199(14) 0.262(3)
H4 H 0.3877 1.0306 0.2603
C7 C 0.8124(11) 1.1363(12) 0.238(3)
C8 C 0.8800(12) 1.0952(17) 0.125(3)
C9 C 0.9382(13) 1.0299(16) 0.214(3)
H5 H 0.9370 1.0131 0.3439
C10 C 1.0010(13) 0.9886(16) 0.099(3)
C11 C 1.0639(16) 0.923(2) 0.184(3)
H6 H 1.0644 0.9061 0.3139
C12 C 0.8772(15) 1.1131(18) -0.076(3)
H7 H 0.8331 1.1514 -0.1357
N1 N 0.5928(11) 1.0790(11) 0.320(2)
O1 O 0.3389(11) 0.8496(14) 0.232(2)
O2 O 0.4354(9) 0.7897(9) 0.052(2)
O3 O 0.7632(8) 1.2005(9) 0.1668(19)
O4 O 0.8065(10) 1.1027(11) 0.4117(19)
Cd1 Cd 0.68605(8) 1.19590(8) 0.45475(18)
C1A C 0.5853(11) 1.3537(12) 0.335(3)
C2A C 0.5219(12) 1.4324(13) 0.285(3)
C3A C 0.4335(12) 1.4186(12) 0.279(3)
H1A H 0.4115 1.3604 0.3101
C4A C 0.3777(12) 1.4919(13) 0.226(3)
H2A H 0.3178 1.4822 0.2226
C5A C 0.4938(12) 1.5906(13) 0.189(3)
H3A H 0.5152 1.6496 0.1614
C6A C 0.5526(12) 1.5199(14) 0.238(3)
H4A H 0.6123 1.5306 0.2397
C7B C 1.1876(11) 0.8637(12) -0.238(3)
C8B C 1.1200(12) 0.9048(17) -0.125(3)
C9B C 1.0618(13) 0.9701(16) -0.214(3)
H5B H 1.0630 0.9869 -0.3439
C10B C 0.9990(13) 1.0114(16) -0.099(3)
C11B C 0.9361(16) 1.077(2) -0.184(3)
H6B H 0.9356 1.0939 -0.3139
C12B C 1.1228(15) 0.8869(18) 0.076(3)
H7B H 1.1669 0.8486 0.1357
N1A N 0.4072(11) 1.5790(11) 0.180(2)
O1A O 0.6611(11) 1.3496(14) 0.268(2)
O1B O 0.6611(11) 1.1504(14) 0.768(2)
O1_2 O 0.3389(11) 1.8496(14) 0.232(2)
O1C O 0.3389(11) 1.6504(14) -0.268(2)
O2A O 0.5646(9) 1.2897(9) 0.448(2)
O2_2 O 0.4354(9) 1.7897(9) 0.052(2)
O3B O 1.2368(8) 0.7995(9) -0.1668(19)
O3C O 0.7632(8) 1.2995(9) 0.6668(19)
O3A O 0.2368(8) 1.7005(9) 0.3332(19)
O3B_2 O 0.2368(8) 1.7995(9) -0.1668(19)
O4B O 1.1935(10) 0.8973(11) -0.4117(19)
O4A O 0.1935(10) 1.6027(11) 0.0883(19)
Cd1A Cd 0.31395(8) 1.69590(8) 0.04525(18)
Cd1A_2 Cd 0.31395(8) 0.69590(8) 0.04525(18)
Cd1B Cd 0.31395(8) 0.80410(8) 0.54525(18)
Cd1C Cd 0.68605(8) 1.30410(8) -0.04525(18)
Cd1B_2 Cd 1.31395(8) 0.80410(8) -0.45475(18)
Cd1A_3 Cd 1.31395(8) 0.69590(8) 0.04525(18)
loop_
_geom_bond_atom_site_label_1
_geom_bond_atom_site_label_2
_geom_bond_site_symmetry_1
_geom_bond_site_symmetry_2
C1 C2 1_555 1_555
C2 C3 1_555 1_555
C3 H1 1_555 1_555
C4 C3 1_555 1_555
H2 C4 1_555 1_555
C5 H3 1_555 1_555
C6 C2 1_555 1_555
H4 C6 1_555 1_555
C7 C8 1_555 1_555
C8 C9 1_555 1_555
C9 H5 1_555 1_555
C10 C9 1_555 1_555
C11 C10 1_555 1_555
H6 C11 1_555 1_555
C12 C8 1_555 1_555
H7 C12 1_555 1_555
N1 C4 1_555 1_555
O1 C1 1_555 1_555
O2 C1 1_555 1_555
O3 C7 1_555 1_555
O4 C7 1_555 1_555
Cd1 N1 1_555 1_555
C1A C2A 1_555 1_555
C2A C3A 1_555 1_555
C3A H1A 1_555 1_555
C4A C3A 1_555 1_555
H2A C4A 1_555 1_555
C5A H3A 1_555 1_555
C6A C2A 1_555 1_555
H4A C6A 1_555 1_555
C7B C8B 1_555 1_555
C8B C9B 1_555 1_555
C9B H5B 1_555 1_555
C10B C10 1_555 1_555
C11B C12 1_555 1_555
H6B C11B 1_555 1_555
C12B C11 1_555 1_555
H7B C12B 1_555 1_555
N1A C4A 1_555 1_555
O1A Cd1 1_555 1_555
O1B Cd1 1_555 1_555
O1_2 Cd1A 1_555 1_555
O1C Cd1A 1_555 1_555
O2A Cd1 1_555 1_555
O2_2 Cd1A 1_555 1_555
O3B C7B 1_555 1_555
O3C Cd1 1_555 1_555
O3A Cd1A 1_555 1_555
O3B_2 Cd1A 1_555 1_555
O4B C7B 1_555 1_555
O4A Cd1A 1_555 1_555
Cd1A N1A 1_555 1_555
Cd1A_2 O1 1_555 1_555
Cd1B O1 1_555 1_555
Cd1C O3 1_555 1_555
Cd1B_2 O3B 1_555 1_555
Cd1A_3 O3B 1_555 1_555
C5 C6 1_555 1_555
C5 N1 1_555 1_555
O2 Cd1A_2 1_555 1_555
O3 Cd1 1_555 1_555
O4 Cd1 1_555 1_555
C1A O1A 1_555 1_555
C1A O2A 1_555 1_555
C5A C6A 1_555 1_555
C5A N1A 1_555 1_555
C8B C12B 1_555 1_555
C9B C10B 1_555 1_555
C10B C11B 1_555 1_555
O1A Cd1C 1_555 1_555
O4B Cd1B_2 1_555 1_555

#END
