
#######################################################################
#
#                 Cambridge Crystallographic Data Centre
#                                CCDC 
#
#######################################################################
#
# If this CIF has been generated from an entry in the Cambridge 
# Structural Database, then it will include bibliographic, chemical, 
# crystal, experimental, refinement or atomic coordinate data resulting 
# from the CCDC's data processing and validation procedures.
#
#######################################################################

data_LUFNOQ
_chemical_formula_moiety         '(C17 H13 Mn1 N3 O4)n,n(C3 H3 N1)'
_chemical_name_systematic        
'catena-((\m~4~-5-((Pyridin-4-ylmethyl)amino)isophthalato)-(acrylonitrile)-manganese(ii) acrylonitrile solvate)'
_symmetry_cell_setting           monoclinic
_symmetry_space_group_name_H-M   'C 2/c'
_symmetry_Int_Tables_number      15
_space_group_name_Hall           '-C 2yc'
loop_
_symmetry_equiv_pos_site_id
_symmetry_equiv_pos_as_xyz
1 x,y,z
2 -x,y,1/2-z
3 1/2+x,1/2+y,z
4 1/2-x,1/2+y,1/2-z
5 -x,-y,-z
6 x,-y,1/2+z
7 1/2-x,1/2-y,-z
8 1/2+x,1/2-y,1/2+z
_cell_length_a                   18.237(6)
_cell_length_b                   15.078(3)
_cell_length_c                   16.285(5)
_cell_angle_alpha                90
_cell_angle_beta                 114.835(5)
_cell_angle_gamma                90
_cell_volume                     4063.89
_exptl_crystal_colour            'pale yellow'
_exptl_crystal_description       block
_cell_formula_units_Z            8
loop_
_atom_site_label
_atom_site_type_symbol
_atom_site_fract_x
_atom_site_fract_y
_atom_site_fract_z
_atom_site_U_iso_or_equiv
_atom_site_thermal_displace_type
Mn1 Mn 0.77170(6) 0.89003(5) 0.54410(6) 0.0295 Uani
O1 O 1.2566(3) 0.5432(3) 0.5322(3) 0.0358 Uani
O2 O 1.2762(3) 0.4723(3) 0.6577(3) 0.0408 Uani
O3 O 1.2036(3) 0.7682(3) 0.8898(3) 0.0376 Uani
O4 O 1.2495(3) 0.6296(3) 0.9080(3) 0.0387 Uani
N1 N 1.1779(4) 0.8556(3) 0.5783(3) 0.0357 Uani
H1 H 1.1819 0.8564 0.5275 0.0430 Uiso
C1 C 1.2246(4) 0.7008(4) 0.7697(4) 0.0294 Uani
C2 C 1.1997(4) 0.7799(4) 0.6311(4) 0.0313 Uani
C3 C 1.2445(4) 0.6259(4) 0.7357(4) 0.0320 Uani
H2 H 1.2602 0.5748 0.7708 0.0380 Uiso
C4 C 1.2415(4) 0.6262(4) 0.6492(4) 0.0341 Uani
N2 N 0.9037(3) 0.9063(4) 0.5733(4) 0.0379 Uani
C5 C 1.2203(4) 0.7033(4) 0.5974(4) 0.0277 Uani
H3 H 1.2200 0.7038 0.5401 0.0330 Uiso
C6 C 1.2008(4) 0.7778(4) 0.7178(4) 0.0308 Uani
H4 H 1.1858 0.8277 0.7406 0.0370 Uiso
C7 C 1.2599(4) 0.5434(4) 0.6104(4) 0.0309 Uani
C8 C 1.1488(4) 0.9324(4) 0.6068(4) 0.0349 Uani
H5 H 1.1514 0.9830 0.5714 0.0420 Uiso
H6 H 1.1837 0.9445 0.6697 0.0420 Uiso
C9 C 1.0633(4) 0.9218(4) 0.5966(4) 0.0353 Uani
C10 C 1.2265(4) 0.7005(4) 0.8629(4) 0.0287 Uani
C11 C 1.0120(5) 0.8600(6) 0.5388(5) 0.0418 Uani
H7 H 1.0304 0.8211 0.5072 0.0820 Uiso
C12 C 1.0314(5) 0.9739(7) 0.6413(6) 0.0405 Uani
H8 H 1.0635 1.0163 0.6821 0.0850 Uiso
C13 C 0.9524(4) 0.9643(4) 0.6268(4) 0.0405 Uani
H9 H 0.9324 1.0022 0.6575 0.0730 Uiso
C14 C 0.9333(5) 0.8563(4) 0.5281(4) 0.0401 Uani
H10 H 0.8988 0.8160 0.4865 0.0720 Uiso
N3 N 0.6345(4) 0.8781(4) 0.4989(4) 0.0397 Uani
C18 C 0.5640(3) 0.8744(3) 0.4664(4) 0.0467 Uani
C19 C 0.4800(4) 0.8747(4) 0.4217(4) 0.0445 Uani
H14 H 0.4492 0.8799 0.4546 0.0660 Uiso
C20 C 0.4423(3) 0.8671(3) 0.3288(3) 0.0440 Uani
H15 H 0.4730 0.8618 0.2956 0.0730 Uiso
H16 H 0.3862 0.8673 0.2993 0.0730 Uiso
Mn1B Mn 1.27170(6) 0.39003(5) 0.54410(6) 0.0295 Uani
Mn1A Mn 1.22830(6) 0.89003(5) 0.95590(6) 0.0295 Uani
Mn1G Mn 1.27170(6) 0.60997(5) 1.04410(6) 0.0295 Uani
O1B O 0.7566(3) 1.0432(3) 0.5322(3) 0.0358 Uani
O2B O 0.7762(3) 0.9723(3) 0.6577(3) 0.0408 Uani
O3A O 0.7964(3) 0.7682(3) 0.6102(3) 0.0376 Uani
O4G O 0.7495(3) 0.8704(3) 0.4080(3) 0.0387 Uani
C15 C 0.8703(5) 0.5672(5) 0.1879(5) 0.0450 Uani
H11 H 0.8972 0.6016 0.1619 0.0730 Uiso
H12 H 0.8440 0.5156 0.1593 0.0730 Uiso
C16 C 0.8695(4) 0.5928(3) 0.2698(4) 0.0439 Uani
H13 H 0.8424 0.5577 0.2951 0.0560 Uiso
C17 C 0.9077(4) 0.6685(4) 0.3141(4) 0.0373 Uani
N4 N 0.9384(4) 0.735(3) 0.348(3) 0.0431 Uani
loop_
_atom_site_aniso_label
_atom_site_aniso_U_11
_atom_site_aniso_U_22
_atom_site_aniso_U_33
_atom_site_aniso_U_23
_atom_site_aniso_U_13
_atom_site_aniso_U_12
Mn1 0.0510(6) 0.0205(5) 0.0238(5) -0.0009(3) 0.0225(4) -0.0009(4)
O1 0.062 0.023 0.031 -0.0001 0.028 0.0028
O2 0.081 0.023 0.032 0.0005 0.037 0.008
O3 0.072 0.021 0.028 -0.0035 0.029 0.001
O4 0.071 0.026 0.025 0.002 0.026 0.008
N1 0.066 0.023 0.031 0.002 0.033 0.004
C1 0.042 0.023 0.026 0.004 0.017 0.002
C2 0.049 0.024 0.028 0.003 0.023 -0.003
C3 0.054 0.025 0.023 0.001 0.022 0.003
C4 0.049 0.03 0.029 0.003 0.022 0.002
N2 0.049(3) 0.033(3) 0.035(3) 0.003(2) 0.021(3) 0.001(2)
C5 0.044 0.021 0.024 0.003 0.02 0.002
C6 0.051 0.019 0.028 -0.003 0.022 -0.002
C7 0.05 0.027 0.021 0.002 0.02 0.003
C8 0.048(4) 0.028(3) 0.032(3) 0.005(2) 0.020(3) 0.001(3)
C9 0.056(4) 0.025(3) 0.029(3) 0.004(2) 0.022(3) 0.003(3)
C10 0.041 0.021 0.026 0 0.016 -0.003
C11 0.056(4) 0.028(5) 0.036(7) 0.007(5) 0.014(5) -0.003(4)
C12 0.057(5) 0.024(5) 0.036(5) -0.005(4) 0.015(4) -0.002(4)
C13 0.055(5) 0.026(5) 0.037(5) -0.007(5) 0.016(4) -0.002(4)
C14 0.055(5) 0.025(5) 0.037(8) 0.008(5) 0.016(5) -0.002(4)
N3 0.055(4) 0.025(4) 0.035(4) 0.007(4) 0.015(3) -0.003(3)
C18 0.056(5) 0.035(5) 0.044(5) 0.007(4) 0.016(4) -0.003(4)
C19 0.063(4) 0.029(4) 0.034(4) 0.009(3) 0.013(3) -0.002(3)
C20 0.055(4) 0.032(5) 0.040(4) 0.011(3) 0.015(2) 0.003(3)
Mn1B 0.051 0.0205 0.0238 -0.0009 0.0225 -0.0009
Mn1A 0.051 0.0205 0.0238 0.0009 0.0225 0.0009
Mn1G 0.051 0.0205 0.0238 0.0009 0.0225 0.0009
O1B 0.062 0.023 0.031 -0.0001 0.028 0.0028
O2B 0.081 0.023 0.032 0.0005 0.037 0.008
O3A 0.072 0.021 0.028 0.0035 0.029 -0.001
O4G 0.071 0.026 0.025 -0.002 0.026 -0.008
C15 0.061(6) 0.027(6) 0.038(6) -0.005(5) 0.012(5) 0.002(5)
C16 0.057(5) 0.028(5) 0.041(5) 0.012(4) 0.015(4) -0.001(4)
C17 0.054(4) 0.023(4) 0.031(4) 0.006(2) 0.014(2) 0.003(2)
N4 0.063(4) 0.027(4) 0.033(4) 0.006(3) 0.014(3) -0.002(3)
loop_
_geom_bond_atom_site_label_1
_geom_bond_atom_site_label_2
_geom_bond_site_symmetry_1
_geom_bond_site_symmetry_2
Mn1 N2 1_555 1_555
O1 C7 1_555 1_555
O2 C7 1_555 1_555
O3 C10 1_555 1_555
O4 C10 1_555 1_555
N1 H1 1_555 1_555
C1 C3 1_555 1_555
C2 N1 1_555 1_555
C3 H2 1_555 1_555
C4 C3 1_555 1_555
N2 C13 1_555 1_555
C5 C2 1_555 1_555
H3 C5 1_555 1_555
C6 C1 1_555 1_555
H4 C6 1_555 1_555
C7 C4 1_555 1_555
C8 N1 1_555 1_555
H5 C8 1_555 1_555
H6 C8 1_555 1_555
C9 C8 1_555 1_555
C10 C1 1_555 1_555
C11 C9 1_555 1_555
H7 C11 1_555 1_555
C12 C9 1_555 1_555
H8 C12 1_555 1_555
C13 C12 1_555 1_555
H9 C13 1_555 1_555
C14 N2 1_555 1_555
H10 C14 1_555 1_555
C15 H11 1_555 1_555
H12 C15 1_555 1_555
C16 C15 1_555 1_555
H13 C16 1_555 1_555
C17 C16 1_555 1_555
N3 Mn1 1_555 1_555
C18 N3 1_555 1_555
C19 C18 1_555 1_555
H14 C19 1_555 1_555
C20 C19 1_555 1_555
H15 C20 1_555 1_555
H16 C20 1_555 1_555
N4 C17 1_555 1_555
Mn1B O1 1_555 1_555
Mn1A O3 1_555 1_555
Mn1G O4 1_555 1_555
O1B Mn1 1_555 1_555
O2B Mn1 1_555 1_555
O3A Mn1 1_555 1_555
O4G Mn1 1_555 1_555
O2 Mn1B 1_555 1_555
C2 C6 1_555 1_555
C4 C5 1_555 1_555
C11 C14 1_555 1_555

#END
