
#######################################################################
#
#                 Cambridge Crystallographic Data Centre
#                                CCDC 
#
#######################################################################
#
# If this CIF has been generated from an entry in the Cambridge 
# Structural Database, then it will include bibliographic, chemical, 
# crystal, experimental, refinement or atomic coordinate data resulting 
# from the CCDC's data processing and validation procedures.
#
#######################################################################

data_LUFNUW
_chemical_formula_moiety         '(C18 H15 Mn1 N3 O4)n,n(C4 H5 N1)'
_chemical_name_systematic        
'catena-((\m~4~-5-((Pyridin-4-ylmethyl)amino)isophthalato)-(allylnitrile)-manganese(ii) allylnitrile solvate)'
_symmetry_cell_setting           monoclinic
_symmetry_space_group_name_H-M   'C 2/c'
_symmetry_Int_Tables_number      15
_space_group_name_Hall           '-C 2yc'
loop_
_symmetry_equiv_pos_site_id
_symmetry_equiv_pos_as_xyz
1 x,y,z
2 -x,y,1/2-z
3 1/2+x,1/2+y,z
4 1/2-x,1/2+y,1/2-z
5 -x,-y,-z
6 x,-y,1/2+z
7 1/2-x,1/2-y,-z
8 1/2+x,1/2-y,1/2+z
_cell_length_a                   18.826(7)
_cell_length_b                   14.890(2)
_cell_length_c                   16.288(4)
_cell_angle_alpha                90
_cell_angle_beta                 112.937(6)
_cell_angle_gamma                90
_cell_volume                     4204.84
_exptl_crystal_colour            'pale yellow'
_exptl_crystal_description       block
_cell_formula_units_Z            8
loop_
_atom_site_label
_atom_site_type_symbol
_atom_site_fract_x
_atom_site_fract_y
_atom_site_fract_z
_atom_site_U_iso_or_equiv
_atom_site_thermal_displace_type
Mn1 Mn 0.78215(5) 0.11058(5) 0.54989(5) 0.0328 Uani
O1 O 0.7654(2) -0.0435(3) 0.5375(2) 0.0419 Uani
O2 O 0.7910(2) 0.0256(2) 0.6653(2) 0.0431 Uani
C1 C 0.6995(3) -0.2789(3) 0.6340(3) 0.0354 Uani
O3 O 0.6935(2) -0.2627(2) 0.8890(2) 0.0402 Uani
C2 C 0.6983(3) -0.2760(4) 0.7194(4) 0.0357 Uani
H1 H 0.6801 -0.3250 0.7409 0.0460 Uiso
C3 C 0.7700(3) -0.0443(3) 0.6173(3) 0.0333 Uani
C4 C 0.7481(3) -0.1266(4) 0.6544(3) 0.0345 Uani
O4 O 0.7574(2) -0.1327(3) 0.9141(2) 0.0420 Uani
N1 N 0.4076(3) -0.4053(3) 0.5722(3) 0.0373 Uani
N2 N 0.6756(3) -0.3540(3) 0.5793(3) 0.0454 Uani
H2 H 0.6788 -0.3540 0.5281 0.0490 Uiso
C5 C 0.7493(3) -0.1262(3) 0.7397(3) 0.0348 Uani
H3 H 0.7671 -0.0758 0.7756 0.0420 Uiso
C6 C 0.7242(3) -0.2000(4) 0.7721(3) 0.0332 Uani
C7 C 0.7240(3) -0.2026(4) 0.6024(3) 0.0358 Uani
H4 H 0.7241 -0.2031 0.5453 0.0420 Uiso
C8 C 0.5624(3) -0.4203(4) 0.5948(3) 0.0351 Uani
C9 C 0.7250(3) -0.1991(3) 0.8651(3) 0.0325 Uani
C10 C 0.6459(3) -0.4310(4) 0.6072(3) 0.0412 Uani
H5 H 0.6768 -0.4425 0.6696 0.0460 Uiso
H6 H 0.6504 -0.4828 0.5734 0.0460 Uiso
C11 C 0.5142(4) -0.3596(5) 0.5384(5) 0.0310 Uani
H7 H 0.5328 -0.3207 0.5067 0.0820 Uiso
C12 C 0.5307(4) -0.4758(5) 0.6387(5) 0.0375 Uani
H8 H 0.5602 -0.5205 0.6766 0.0790 Uiso
C13 C 0.4374(4) -0.3550(5) 0.5275(6) 0.0376 Uani
H9 H 0.4054 -0.3142 0.4864 0.0790 Uiso
C14 C 0.4554(4) -0.4644(6) 0.6258(5) 0.0364 Uani
H10 H 0.4359 -0.5018 0.6578 0.0820 Uiso
N4 N 0.6580(4) 0.1259(5) 0.5239(5) 0.0358 Uani
C19 C 0.4937(4) 0.1646(5) 0.3173(5) 0.0400 Uani
H16 H 0.5452 0.1813 0.3348 0.0520 Uiso
H17 H 0.4582 0.1799 0.2609 0.0520 Uiso
C20 C 0.4705(12) 0.1180(17) 0.3742(14) 0.0391 Uani
H18 H 0.4186 0.1029 0.3538 0.0810 Uiso
C21 C 0.5948(10) 0.1105(13) 0.4925(13) 0.0336 Uani
C22 C 0.5187(16) 0.090(3) 0.4631(16) 0.0330 Uani
H19 H 0.4983 0.1160 0.5040 0.0550 Uiso
H20 H 0.5141 0.0251 0.4664 0.0550 Uiso
Mn1C Mn 0.71785(5) -0.38942(5) 0.95011(5) 0.0328 Uani
Mn1E Mn 0.78215(5) -0.11058(5) 1.04989(5) 0.0328 Uani
Mn1B Mn 0.28215(5) -0.38942(5) 0.54989(5) 0.0328 Uani
O3C O 0.8065(2) 0.2373(2) 0.6110(2) 0.0402 Uani
O4E O 0.7574(2) 0.1327(3) 0.4141(2) 0.0420 Uani
N1B N 0.9076(3) 0.0947(3) 0.5722(3) 0.0373 Uani
C15 C 0.6282(11) 0.9232(16) 0.3391(14) 0.0397 Uani
H11 H 0.6791 0.9341 0.3846 0.3590 Uiso
H12 H 0.5947 0.9728 0.3388 0.3590 Uiso
C16 C 0.5981(10) 0.841(2) 0.3543(12) 0.0385 Uani
C17 C 0.6316(9) 0.9125(12) 0.2534(15) 0.0376 Uani
H13 H 0.6535 0.9593 0.2336 0.2760 Uiso
C18 C 0.6061(10) 0.841(2) 0.1980(11) 0.0340 Uani
H14 H 0.5837 0.7921 0.2148 0.5660 Uiso
H15 H 0.6110 0.8402 0.1434 0.5660 Uiso
N3 N 0.571(2) 0.773(3) 0.362(2) 0.0367 Uani
loop_
_atom_site_aniso_label
_atom_site_aniso_U_11
_atom_site_aniso_U_22
_atom_site_aniso_U_33
_atom_site_aniso_U_23
_atom_site_aniso_U_13
_atom_site_aniso_U_12
Mn1 0.0440(6) 0.0277(4) 0.0251(4) 0.0017(3) 0.0118(4) 0.0017(4)
O1 0.067(3) 0.034(2) 0.0218(17) 0.0003(14) 0.0141(17) -0.0032(18)
O2 0.068(3) 0.0288(19) 0.0287(18) 0.0010(15) 0.0148(18) -0.0054(18)
C1 0.046(3) 0.034(3) 0.027(2) -0.004(2) 0.015(2) -0.001(2)
O3 0.07 0.031 0.0252 0.0003 0.0246 -0.0064
C2 0.045(3) 0.031(3) 0.029(3) -0.001(2) 0.012(3) -0.006(2)
C3 0.043(3) 0.030(3) 0.028(2) 0.002(2) 0.015(2) -0.001(2)
C4 0.042(3) 0.033(3) 0.031(3) -0.001(2) 0.017(2) 0.001(2)
O4 0.068 0.037 0.0199 -0.0054 0.0158 -0.016
N1 0.05 0.034 0.03 -0.0034 0.018 0
N2 0.063(3) 0.037(3) 0.032(2) -0.0104(19) 0.014(2) -0.002(2)
C5 0.048(3) 0.030(3) 0.026(2) -0.002(2) 0.014(2) -0.003(2)
C6 0.046(3) 0.031(3) 0.027(2) -0.004(2) 0.019(2) -0.002(2)
C7 0.055(3) 0.034(3) 0.026(2) -0.001(2) 0.024(2) -0.006(2)
C8 0.051(4) 0.032(3) 0.026(2) 0.010(2) 0.019(2) -0.002(3)
C9 0.049 0.026 0.025 0.0065 0.017 -0.001
C10 0.058(4) 0.032(3) 0.029(3) -0.010(2) 0.012(2) -0.002(3)
C11 0.041 0.032 0.024 0.009 0.017 0.003
C12 0.051 0.035 0.028 0.008 0.017 0.003
C13 0.055 0.034 0.029 -0.01 0.022 0.007
C14 0.053 0.033 0.025 -0.004 0.017 0.003
N4 0.046(4) 0.037(5) 0.027(5) -0.005(4) 0.017(4) 0.003(3)
C19 0.059(5) 0.032(5) 0.028(5) -0.004(4) 0.016(4) 0.002(4)
C20 0.054(4) 0.035(4) 0.026(3) -0.005(3) 0.013(3) 0.001(3)
C21 0.046(3) 0.032(3) 0.024(2) -0.006(2) 0.015(2) -0.002(2)
C22 0.045(3) 0.033(3) 0.025(2) -0.004(2) 0.018(2) -0.001(2)
Mn1C 0.044 0.0277 0.0251 -0.0017 0.0118 -0.0017
Mn1E 0.044 0.0277 0.0251 -0.0017 0.0118 -0.0017
Mn1B 0.044 0.0277 0.0251 0.0017 0.0118 0.0017
O3C 0.07 0.031 0.0252 -0.0003 0.0246 0.0064
O4E 0.068 0.037 0.0199 0.0054 0.0158 0.016
N1B 0.05 0.034 0.03 -0.0034 0.018 0
C15 0.055(19) 0.037(3) 0.028(2) -0.005(2) 0.017(16) 0.004(2)
C16 0.058(5) 0.034(5) 0.022(5) -0.003(4) 0.014(4) 0.004(4)
C17 0.053(4) 0.034(4) 0.027(4) -0.006(3) 0.017(3) -0.002(3)
C18 0.044(4) 0.038(4) 0.022(4) 0.008(3) 0.015(3) 0.002(3)
N3 0.047(3) 0.034(3) 0.027(3) -0.011(2) 0.012(2) 0.002(2)
loop_
_geom_bond_atom_site_label_1
_geom_bond_atom_site_label_2
_geom_bond_site_symmetry_1
_geom_bond_site_symmetry_2
Mn1 O1 1_555 1_555
O1 C3 1_555 1_555
O2 Mn1 1_555 1_555
C1 C2 1_555 1_555
O3 C9 1_555 1_555
C2 H1 1_555 1_555
C3 O2 1_555 1_555
C4 C3 1_555 1_555
O4 C9 1_555 1_555
N1 C13 1_555 1_555
N2 C1 1_555 1_555
H2 N2 1_555 1_555
C5 C4 1_555 1_555
H3 C5 1_555 1_555
C6 C2 1_555 1_555
C7 C1 1_555 1_555
H4 C7 1_555 1_555
C8 C10 1_555 1_555
C9 C6 1_555 1_555
C10 N2 1_555 1_555
H5 C10 1_555 1_555
H6 C10 1_555 1_555
C11 C8 1_555 1_555
H7 C11 1_555 1_555
C12 C8 1_555 1_555
H8 C12 1_555 1_555
C13 C11 1_555 1_555
H9 C13 1_555 1_555
C14 N1 1_555 1_555
H10 C14 1_555 1_555
C15 H11 1_555 1_555
H12 C15 1_555 1_555
C16 C15 1_555 1_555
C17 C15 1_555 1_555
H13 C17 1_555 1_555
C18 C17 1_555 1_555
H14 C18 1_555 1_555
H15 C18 1_555 1_555
N3 C16 1_555 1_555
N4 Mn1 1_555 1_555
C19 H16 1_555 1_555
H17 C19 1_555 1_555
C20 C19 1_555 1_555
H18 C20 1_555 1_555
C21 N4 1_555 1_555
C22 C20 1_555 1_555
H19 C22 1_555 1_555
H20 C22 1_555 1_555
Mn1C O3 1_555 1_555
Mn1E O4 1_555 1_555
Mn1B N1 1_555 1_555
O3C Mn1 1_555 1_555
O4E Mn1 1_555 1_555
N1B Mn1 1_555 1_555
C4 C7 1_555 1_555
C5 C6 1_555 1_555
C12 C14 1_555 1_555
C21 C22 1_555 1_555

#END
