
#######################################################################
#
#                 Cambridge Crystallographic Data Centre
#                                CCDC 
#
#######################################################################
#
# If this CIF has been generated from an entry in the Cambridge 
# Structural Database, then it will include bibliographic, chemical, 
# crystal, experimental, refinement or atomic coordinate data resulting 
# from the CCDC's data processing and validation procedures.
#
#######################################################################

data_LUFNAC02
_chemical_formula_moiety         
'(C28 H24 Mn2 N4 O10)n,2n(C3 H7 N1 O1),3n(H2 O1)'
_chemical_name_systematic        
'catena-(bis(\m~4~-5-((Pyridin-4-ylmethyl)amino)isophthalato)-diaqua-di-manganese(ii) dimethylformamide solvate trihydrate)'
_symmetry_cell_setting           monoclinic
_symmetry_space_group_name_H-M   'C 2/c'
_symmetry_Int_Tables_number      15
_space_group_name_Hall           '-C 2yc'
loop_
_symmetry_equiv_pos_site_id
_symmetry_equiv_pos_as_xyz
1 x,y,z
2 -x,y,1/2-z
3 1/2+x,1/2+y,z
4 1/2-x,1/2+y,1/2-z
5 -x,-y,-z
6 x,-y,1/2+z
7 1/2-x,1/2-y,-z
8 1/2+x,1/2-y,1/2+z
_cell_length_a                   18.409(7)
_cell_length_b                   15.009(6)
_cell_length_c                   16.341(6)
_cell_angle_alpha                90
_cell_angle_beta                 111.682(7)
_cell_angle_gamma                90
_cell_volume                     4195.59
_exptl_crystal_colour            'pale yellow'
_exptl_crystal_description       block
_cell_formula_units_Z            4
loop_
_atom_site_label
_atom_site_type_symbol
_atom_site_fract_x
_atom_site_fract_y
_atom_site_fract_z
Mn1 Mn 0.27580(5) 0.10824(5) 0.54676(5)
O1 O 0.2869(3) 0.0238(2) 0.6642(3)
O2 O 0.2593(3) -0.0445(3) 0.5365(2)
O3 O 0.1968(3) -0.2669(2) 0.8917(2)
O4 O 0.2528(3) -0.1326(2) 0.9119(2)
C1 C 0.2016(4) -0.2808(4) 0.6374(4)
C2 C 0.2252(4) -0.2019(4) 0.7745(3)
N1 N 0.1820(3) -0.3560(3) 0.5856(3)
H1 H 0.1900 -0.3570 0.5370
N2 N -0.0959(3) -0.4087(3) 0.5683(3)
C3 C 0.2465(4) -0.1280(4) 0.6546(4)
C4 C 0.2470(4) -0.1267(3) 0.7396(4)
H2 H 0.2619 -0.0753 0.7734
C5 C 0.2659(4) -0.0441(4) 0.6164(4)
C6 C 0.2233(4) -0.2043(4) 0.6044(4)
H3 H 0.2223 -0.2044 0.5470
C7 C 0.2012(4) -0.2786(4) 0.7223(4)
H4 H 0.1848 -0.3285 0.7447
C8 C 0.0634(4) -0.4231(4) 0.5958(4)
C9 C 0.2258(3) -0.2015(3) 0.8664(3)
C10 C 0.1487(4) -0.4326(4) 0.6106(4)
H5 H 0.1775 -0.4445 0.6726
H6 H 0.1552 -0.4836 0.5776
O5 O 0.1521(4) 0.1204(4) 0.5265(4)
C11 C 0.0166(5) -0.3653(5) 0.5354(5)
H7 H 0.0365 -0.3300 0.5018
C12 C 0.0289(5) -0.4767(5) 0.6397(5)
H8 H 0.0587 -0.5183 0.6804
C13 C -0.0489(5) -0.4685(5) 0.6230(5)
H9 H -0.0709 -0.5074 0.6518
C14 C -0.0628(4) -0.3597(5) 0.5247(5)
H10 H -0.0940 -0.3188 0.4841
Mn1B Mn 0.77580(5) 0.60824(5) 0.54676(5)
Mn1C Mn 0.22420(5) -0.39176(5) 0.95324(5)
Mn1E Mn 0.27580(5) -0.10824(5) 1.04676(5)
Mn1B_2 Mn -0.22420(5) -0.39176(5) 0.54676(5)
Mn1A Mn 0.72420(5) 0.10824(5) 0.95324(5)
Mn1G Mn 0.77580(5) 0.39176(5) 1.04676(5)
O1B O 0.7869(3) 0.5238(2) 0.6642(3)
O2B O 0.7593(3) 0.4555(3) 0.5365(2)
O3B O 0.6968(3) 0.2331(2) 0.8917(2)
O3C O 0.3032(3) 0.2331(2) 0.6083(2)
O3A O 0.8032(3) 0.7331(2) 0.6083(2)
O4B O 0.7528(3) 0.3674(2) 0.9119(2)
O4E O 0.2528(3) 0.1326(2) 0.4119(2)
O4G O 0.7528(3) 0.6326(2) 0.4119(2)
C1B C 0.7016(4) 0.2192(4) 0.6374(4)
C2B C 0.7252(4) 0.2981(4) 0.7745(3)
N1B N 0.6820(3) 0.1440(3) 0.5856(3)
H1B H 0.6900 0.1430 0.5370
N2B N 0.4041(3) 0.0913(3) 0.5683(3)
N2_2 N 0.9041(3) 0.5913(3) 0.5683(3)
C3B C 0.7465(4) 0.3720(4) 0.6546(4)
C4B C 0.7470(4) 0.3733(3) 0.7396(4)
H2B H 0.7619 0.4247 0.7734
C5B C 0.7659(4) 0.4559(4) 0.6164(4)
C6B C 0.7233(4) 0.2957(4) 0.6044(4)
H3B H 0.7223 0.2956 0.5470
C7B C 0.7012(4) 0.2214(4) 0.7223(4)
H4B H 0.6848 0.1715 0.7447
C8B C 0.5634(4) 0.0769(4) 0.5958(4)
C9B C 0.7258(3) 0.2985(3) 0.8664(3)
C10B C 0.6487(4) 0.0674(4) 0.6106(4)
H5B H 0.6775 0.0555 0.6726
H6B H 0.6552 0.0164 0.5776
O5B O 0.6521(4) 0.6204(4) 0.5265(4)
C11B C 0.5166(5) 0.1347(5) 0.5354(5)
H7B H 0.5365 0.1700 0.5018
C12B C 0.5289(5) 0.0233(5) 0.6397(5)
H8B H 0.5587 -0.0183 0.6804
C13B C 0.4511(5) 0.0315(5) 0.6230(5)
H9B H 0.4291 -0.0074 0.6518
C14B C 0.4372(4) 0.1403(5) 0.5247(5)
H10B H 0.4060 0.1812 0.4841
O6 O -0.0102(12) 0.115(2) 0.4190(12)
O7 O 0.0000 0.146(2) 0.2500
N3 N 0.3919(7) 0.6500(14) 0.7253(12)
C15 C 0.3897(11) 0.652(2) 0.6401(12)
H11 H 0.3813 0.5993 0.6087
C16 C 0.3632(15) 0.569(2) 0.755(3)
H12 H 0.3669 0.5766 0.8148
H13 H 0.3944 0.5187 0.7518
H14 H 0.3097 0.5584 0.7180
C17 C 0.4092(13) 0.729(2) 0.779(2)
H15 H 0.4066 0.7151 0.8351
H16 H 0.3718 0.7742 0.7503
H17 H 0.4608 0.7491 0.7868
O8 O 0.399(4) 0.723(3) 0.602(3)
loop_
_geom_bond_atom_site_label_1
_geom_bond_atom_site_label_2
_geom_bond_site_symmetry_1
_geom_bond_site_symmetry_2
Mn1 O1 1_555 1_555
O1 C5 1_555 1_555
O2 Mn1 1_555 1_555
O3 C9 1_555 1_555
O4 C9 1_555 1_555
C1 N1 1_555 1_555
C2 C4 1_555 1_555
N1 H1 1_555 1_555
N2 C13 1_555 1_555
C3 C4 1_555 1_555
C4 H2 1_555 1_555
C5 O2 1_555 1_555
C6 C1 1_555 1_555
H3 C6 1_555 1_555
C7 C1 1_555 1_555
H4 C7 1_555 1_555
C8 C10 1_555 1_555
C9 C2 1_555 1_555
C10 N1 1_555 1_555
H5 C10 1_555 1_555
H6 C10 1_555 1_555
O5 Mn1 1_555 1_555
C11 C8 1_555 1_555
H7 C11 1_555 1_555
C12 C8 1_555 1_555
H8 C12 1_555 1_555
C13 C12 1_555 1_555
H9 C13 1_555 1_555
C14 N2 1_555 1_555
H10 C14 1_555 1_555
N3 C15 1_555 1_555
C15 H11 1_555 1_555
C16 N3 1_555 1_555
H12 C16 1_555 1_555
H13 C16 1_555 1_555
H14 C16 1_555 1_555
C17 N3 1_555 1_555
H15 C17 1_555 1_555
H16 C17 1_555 1_555
H17 C17 1_555 1_555
O8 C15 1_555 1_555
Mn1B O1B 1_555 1_555
Mn1C O3 1_555 1_555
Mn1E O4 1_555 1_555
Mn1B_2 N2 1_555 1_555
Mn1A O3B 1_555 1_555
Mn1G O4B 1_555 1_555
O1B C5B 1_555 1_555
O2B Mn1B 1_555 1_555
O3B C9B 1_555 1_555
O3C Mn1 1_555 1_555
O3A Mn1B 1_555 1_555
O4B C9B 1_555 1_555
O4E Mn1 1_555 1_555
O4G Mn1B 1_555 1_555
C1B N1B 1_555 1_555
C2B C4B 1_555 1_555
N1B H1B 1_555 1_555
N2B Mn1 1_555 1_555
N2_2 Mn1B 1_555 1_555
C3B C4B 1_555 1_555
C4B H2B 1_555 1_555
C5B O2B 1_555 1_555
C6B C1B 1_555 1_555
H3B C6B 1_555 1_555
C7B C1B 1_555 1_555
H4B C7B 1_555 1_555
C8B C10B 1_555 1_555
C9B C2B 1_555 1_555
C10B N1B 1_555 1_555
H5B C10B 1_555 1_555
H6B C10B 1_555 1_555
O5B Mn1B 1_555 1_555
C11B C8B 1_555 1_555
H7B C11B 1_555 1_555
C12B C8B 1_555 1_555
H8B C12B 1_555 1_555
C13B N2B 1_555 1_555
H9B C13B 1_555 1_555
C14B N2B 1_555 1_555
H10B C14B 1_555 1_555
C2 C7 1_555 1_555
C3 C5 1_555 1_555
C3 C6 1_555 1_555
C11 C14 1_555 1_555
C2B C7B 1_555 1_555
C3B C5B 1_555 1_555
C3B C6B 1_555 1_555
C11B C14B 1_555 1_555
C12B C13B 1_555 1_555

#END
