
#######################################################################
#
#                 Cambridge Crystallographic Data Centre
#                                CCDC 
#
#######################################################################
#
# If this CIF has been generated from an entry in the Cambridge 
# Structural Database, then it will include bibliographic, chemical, 
# crystal, experimental, refinement or atomic coordinate data resulting 
# from the CCDC's data processing and validation procedures.
#
#######################################################################

data_YUSPOS
_chemical_formula_moiety         '(C18 H11 N5 O4 Zn1)n,0.75n(C3 H7 N1 O1)'
_chemical_name_systematic        
"catena-[(MU~3~-5-AZIDOISOPHTHALATO)-(MU~2~-4,4'-BIPYRIDINE-N,N')-zinc dimethylformamide solvate)]"
_symmetry_cell_setting           monoclinic
_symmetry_space_group_name_H-M   'P 2/n'
_symmetry_Int_Tables_number      13
_space_group_name_Hall           '-P 2yac'
loop_
_symmetry_equiv_pos_site_id
_symmetry_equiv_pos_as_xyz
1 x,y,z
2 1/2-x,y,1/2-z
3 -x,-y,-z
4 1/2+x,-y,1/2+z
_cell_length_a                   10.115(3)
_cell_length_b                   11.369(3)
_cell_length_c                   34.645(9)
_cell_angle_alpha                90
_cell_angle_beta                 94.048(3)
_cell_angle_gamma                90
_cell_volume                     3974.15
_exptl_crystal_colour            colorless
_exptl_crystal_description       platelet
_cell_formula_units_Z            8
loop_
_atom_site_label
_atom_site_type_symbol
_atom_site_fract_x
_atom_site_fract_y
_atom_site_fract_z
Zn1 Zn -0.35751(4) 0.01588(3) -0.538910(13)
O1 O -0.2408(2) 0.0348(2) -0.59302(8)
O2 O -0.1448(3) 0.0173(2) -0.53433(8)
O3 O 0.4667(2) 0.0233(2) -0.57302(8)
O4 O 0.3564(3) -0.0128(2) -0.52099(8)
N1 N 0.1151(3) 0.1717(3) -0.67528(10)
N2 N 0.2245(4) 0.1909(4) -0.68903(11)
N3 N 0.3166(4) 0.2143(4) -0.70417(13)
N4 N -0.3694(3) 0.2040(2) -0.53738(9)
N5 N -0.3604(3) 0.8287(2) -0.54132(9)
C1 C -0.1386(3) 0.0338(3) -0.57015(11)
C2 C -0.0062(3) 0.0553(3) -0.58569(11)
C3 C 0.0000(4) 0.1006(3) -0.62257(12)
H1 H -0.0795 0.1178 -0.6378
C4 C 0.1223(4) 0.1212(3) -0.63752(12)
C5 C 0.2388(4) 0.0925(3) -0.61592(12)
H2 H 0.3220 0.1044 -0.6264
C6 C 0.2335(3) 0.0464(3) -0.57880(11)
C7 C 0.1113(3) 0.0292(3) -0.56321(11)
H3 H 0.1077 0.0002 -0.5376
C8 C 0.3610(3) 0.0165(3) -0.55572(11)
C9 C -0.3480(4) 0.2692(3) -0.50481(11)
H4 H -0.3328 0.2298 -0.4807
C10 C -0.3475(4) 0.3905(3) -0.50526(11)
H5 H -0.3329 0.4329 -0.4817
C11 C -0.3685(3) 0.4514(3) -0.54011(10)
C12 C -0.3931(4) 0.3838(3) -0.57357(11)
H6 H -0.4095 0.4209 -0.5980
C13 C -0.3935(4) 0.2628(3) -0.57072(11)
H7 H -0.4119 0.2185 -0.5937
C14 C -0.3647(4) 0.5818(3) -0.54161(11)
C15 C -0.2948(4) 0.6445(3) -0.51204(12)
H8 H -0.2476 0.6041 -0.4914
C16 C -0.2951(4) 0.7662(3) -0.51321(12)
H9 H -0.2464 0.8077 -0.4931
C17 C -0.4257(4) 0.7685(3) -0.56991(12)
H10 H -0.4716 0.8115 -0.5902
C18 C -0.4298(4) 0.6468(3) -0.57135(11)
H11 H -0.4765 0.6079 -0.5924
Zn1_2 Zn 0.64249(4) 0.01588(3) -0.538910(13)
Zn1B Zn 0.35751(4) -0.01588(3) -0.461090(13)
Zn1_3 Zn -0.35751(4) 1.01588(3) -0.538910(13)
O3_2 O -0.5333(2) 0.0233(2) -0.57302(8)
O4B O -0.3564(3) 0.0128(2) -0.47901(8)
N5_2 N -0.3604(3) -0.1713(2) -0.54132(9)
Zn2 Zn 0.10234(4) -0.50554(3) -0.210860(13)
O5 O -0.6094(3) -0.5138(2) -0.22968(8)
O6 O -0.7214(2) -0.5011(2) -0.17693(8)
O7 O -0.0124(3) -0.4885(2) -0.15658(8)
O8 O -0.1108(3) -0.5031(2) -0.21510(8)
N6 N -0.3725(4) -0.3767(4) -0.07020(11)
N7 N -0.4818(4) -0.3523(4) -0.05737(11)
N8 N -0.5719(4) -0.3251(4) -0.04226(14)
N9 N 0.1128(3) -0.3180(2) -0.21301(9)
N10 N 0.1028(3) 0.3069(2) -0.20994(10)
C19 C -0.6155(3) -0.4988(3) -0.19437(11)
C20 C -0.4885(4) -0.4759(3) -0.17024(11)
C21 C -0.4957(4) -0.4403(3) -0.13169(11)
H12 H -0.5788 -0.4315 -0.1209
C22 C -0.3767(4) -0.4180(4) -0.10948(12)
C23 C -0.2546(4) -0.4356(4) -0.12447(12)
H13 H -0.1753 -0.4229 -0.1087
C24 C -0.2484(4) -0.4719(4) -0.16277(11)
C25 C -0.3659(4) -0.4891(3) -0.18604(12)
H14 H -0.3623 -0.5096 -0.2125
C26 C -0.1154(4) -0.4894(3) -0.17910(12)
C27 C 0.1468(4) -0.2590(3) -0.18044(11)
H15 H 0.1737 -0.3027 -0.1579
C28 C 0.1448(4) -0.1364(3) -0.17788(11)
H16 H 0.1681 -0.0983 -0.1540
C29 C 0.1083(4) -0.0708(3) -0.21084(11)
C30 C 0.0766(4) -0.1324(3) -0.24489(11)
H17 H 0.0534 -0.0909 -0.2682
C31 C 0.0786(4) -0.2541(3) -0.24484(11)
H18 H 0.0549 -0.2944 -0.2683
C32 C 0.1057(4) 0.0596(3) -0.20997(12)
C33 C 0.1116(10) 0.1228(10) -0.1774(4)
H19 H 0.1173 0.0840 -0.1530
C34 C 0.1096(10) 0.2450(10) -0.1790(3)
H20 H 0.1136 0.2861 -0.1550
C35 C 0.1141(9) 0.2429(6) -0.2446(2)
H21 H 0.1193 0.2850 -0.2681
C36 C 0.1178(9) 0.1227(6) -0.2455(2)
H22 H 0.1281 0.0819 -0.2690
Zn2A Zn -0.60234(4) -0.50554(3) -0.289140(13)
Zn2_2 Zn 0.10234(4) 0.49446(3) -0.210860(13)
Zn2_3 Zn -0.89766(4) -0.50554(3) -0.210860(13)
O5A O 0.1094(3) -0.5138(2) -0.27032(8)
O6_2 O 0.2786(2) -0.5011(2) -0.17693(8)
N10_2 N 0.1028(3) -0.6931(2) -0.20994(10)
O9 O 0.0267(11) -0.8063(10) -0.3416(3)
N11 N -0.0514(5) -0.7485(4) -0.39740(17)
C37 C -0.0150(8) -0.7155(6) -0.4360(3)
C38 C 0.0510(10) -0.7763(9) -0.3709(3)
C39 C -0.1838(6) -0.7508(5) -0.38930(18)
O10? O 0.7534(11) -0.9167(8) -0.3047(3)
N12? N 0.7878(11) -0.8359(8) -0.2554(4)
C40? C 0.7887(13) -0.7288(9) -0.2774(4)
C41? C 0.7713(14) -0.8265(12) -0.2139(4)
C42? C 0.7880(13) -0.9490(10) -0.2754(4)
C43? C 0.1500(9) 0.1247(11) -0.1769(4)
C44? C 0.1482(9) 0.2461(11) -0.1780(4)
C45? C 0.0346(8) 0.2478(6) -0.2378(2)
C46? C 0.0350(8) 0.1268(6) -0.2394(2)
H23? H 0.1811 0.0850 -0.1539
H24? H 0.1798 0.2885 -0.1556
H25? H -0.0160 0.2904 -0.2573
H26? H -0.0123 0.0877 -0.2604
O11? O -0.2630(6) -0.7282(6) -0.4128(2)
loop_
_geom_bond_atom_site_label_1
_geom_bond_atom_site_label_2
_geom_bond_site_symmetry_1
_geom_bond_site_symmetry_2
Zn1 O1 1_555 1_555
O1 C1 1_555 1_555
O2 Zn1 1_555 1_555
O3 C8 1_555 1_555
O4 C8 1_555 1_555
N1 N2 1_555 1_555
N2 N3 1_555 1_555
N4 Zn1 1_555 1_555
N5 C16 1_555 1_555
C1 O2 1_555 1_555
C2 C1 1_555 1_555
C3 C2 1_555 1_555
H1 C3 1_555 1_555
C4 N1 1_555 1_555
C5 C4 1_555 1_555
H2 C5 1_555 1_555
C6 C5 1_555 1_555
C7 C2 1_555 1_555
H3 C7 1_555 1_555
C8 C6 1_555 1_555
C9 N4 1_555 1_555
H4 C9 1_555 1_555
C10 C9 1_555 1_555
H5 C10 1_555 1_555
C11 C10 1_555 1_555
C12 C11 1_555 1_555
H6 C12 1_555 1_555
C13 N4 1_555 1_555
H7 C13 1_555 1_555
C14 C11 1_555 1_555
C15 C14 1_555 1_555
H8 C15 1_555 1_555
C16 C15 1_555 1_555
H9 C16 1_555 1_555
C17 N5 1_555 1_555
H10 C17 1_555 1_555
C18 C14 1_555 1_555
H11 C18 1_555 1_555
Zn2 O7 1_555 1_555
O5 C19 1_555 1_555
O6 C19 1_555 1_555
O7 C26 1_555 1_555
O8 Zn2 1_555 1_555
N6 N7 1_555 1_555
N7 N8 1_555 1_555
N9 Zn2 1_555 1_555
N10 C34 1_555 1_555
C19 C20 1_555 1_555
C20 C21 1_555 1_555
C21 H12 1_555 1_555
C22 N6 1_555 1_555
C23 C22 1_555 1_555
H13 C23 1_555 1_555
C24 C23 1_555 1_555
C25 C20 1_555 1_555
H14 C25 1_555 1_555
C26 O8 1_555 1_555
C27 N9 1_555 1_555
H15 C27 1_555 1_555
C28 C27 1_555 1_555
H16 C28 1_555 1_555
C29 C28 1_555 1_555
C30 C29 1_555 1_555
H17 C30 1_555 1_555
C31 N9 1_555 1_555
H18 C31 1_555 1_555
C32 C29 1_555 1_555
C33 C32 1_555 1_555
H19 C33 1_555 1_555
C34 C33 1_555 1_555
H20 C34 1_555 1_555
C35 N10 1_555 1_555
H21 C35 1_555 1_555
C36 C32 1_555 1_555
H22 C36 1_555 1_555
O9 C38 1_555 1_555
N11 C37 1_555 1_555
C38 N11 1_555 1_555
C39 N11 1_555 1_555
Zn1_2 O3 1_555 1_555
Zn1B O4 1_555 1_555
Zn1_3 N5 1_555 1_555
O3_2 Zn1 1_555 1_555
O4B Zn1 1_555 1_555
N5_2 Zn1 1_555 1_555
Zn2A O5 1_555 1_555
Zn2_2 N10 1_555 1_555
Zn2_3 O6 1_555 1_555
O5A Zn2 1_555 1_555
O6_2 Zn2 1_555 1_555
N10_2 Zn2 1_555 1_555
C3 C4 1_555 1_555
C6 C7 1_555 1_555
C12 C13 1_555 1_555
C17 C18 1_555 1_555
C21 C22 1_555 1_555
C24 C25 1_555 1_555
C24 C26 1_555 1_555
C30 C31 1_555 1_555
C35 C36 1_555 1_555

#END
