
#######################################################################
#
#                 Cambridge Crystallographic Data Centre
#                                CCDC 
#
#######################################################################
#
# If this CIF has been generated from an entry in the Cambridge 
# Structural Database, then it will include bibliographic, chemical, 
# crystal, experimental, refinement or atomic coordinate data resulting 
# from the CCDC's data processing and validation procedures.
#
#######################################################################

data_YUSPUY
_chemical_formula_moiety         '(C18 H11 N5 O4 Zn1)n'
_chemical_name_systematic        
catena-[(MU~3~-5-AZIDOISOPHTHALATO)-(MU~2~-4,4'-BIPYRIDINE-N,N')-zinc)]
_symmetry_cell_setting           monoclinic
_symmetry_space_group_name_H-M   'C 2/m'
_symmetry_Int_Tables_number      12
_space_group_name_Hall           '-C 2y'
loop_
_symmetry_equiv_pos_site_id
_symmetry_equiv_pos_as_xyz
1 x,y,z
2 -x,y,-z
3 1/2+x,1/2+y,z
4 1/2-x,1/2+y,-z
5 -x,-y,-z
6 x,-y,z
7 1/2-x,1/2-y,-z
8 1/2+x,1/2-y,z
_cell_length_a                   18.3777(8)
_cell_length_b                   11.3717(4)
_cell_length_c                   10.1035(4)
_cell_angle_alpha                90
_cell_angle_beta                 109.638(3)
_cell_angle_gamma                90
_cell_volume                     1988.67
_exptl_crystal_colour            yellow
_exptl_crystal_description       platelet
_cell_formula_units_Z            4
_exptl_crystal_preparation       'irradiated crystal'
loop_
_atom_site_label
_atom_site_type_symbol
_atom_site_fract_x
_atom_site_fract_y
_atom_site_fract_z
C1 C 0.1417(6) -0.2531(9) 0.4582(9)
H1 H 0.1876 -0.2139 0.5047
C2 C 0.1462(5) -0.3739(8) 0.4586(10)
H2 H 0.1929 -0.4136 0.4952
C3 C 0.0771(10) -0.4321(17) 0.4015(19)
C4 C 0.0103(5) -0.3801(8) 0.3500(12)
H3 H -0.0353 -0.4229 0.3151
C5 C 0.0102(5) -0.2556(8) 0.3493(11)
H4 H -0.0371 -0.2172 0.3147
N1 N 0.0799(11) -0.1841(15) 0.3997(19)
C6 C 0.1424(4) 0.0000 0.2072(6)
N2 N 0.3535(6) -0.1523(11) 0.0517(9)
N3 N 0.3804(7) -0.1763(13) -0.0422(11)
C7 C 0.1738(10) 0.0000 0.0898(11)
C8 C 0.2531(11) 0.0000 0.125(2)
H5 H 0.2844 0.0000 0.2190
C9 C 0.2860(9) 0.0000 0.021(2)
C10 C 0.2395(10) 0.0000 -0.119(2)
H6 H 0.2617 0.0000 -0.1892
C11 C 0.1602(10) 0.0000 -0.1538(13)
N4 N 0.3672(10) 0.0000 0.069(3)
C12 C 0.1272(4) 0.0000 -0.0495(6)
C13 C 0.1104(4) 0.0000 -0.3084(5)
O1 O 0.0702(3) 0.0000 0.1771(4)
O2 O 0.1873(3) 0.0000 0.3331(4)
O3 O 0.0405(3) 0.0000 -0.3365(4)
O4 O 0.1444(2) 0.0000 -0.3965(4)
Zn1 Zn 0.07819(4) 0.0000 0.39420(5)
C1E C 0.1417(6) -0.7469(9) 0.4582(9)
H1E H 0.1876 -0.7861 0.5047
C2E C 0.1462(5) -0.6261(8) 0.4586(10)
H2E H 0.1929 -0.5864 0.4952
C3E C 0.0771(10) -0.5679(17) 0.4015(19)
C4E C 0.0103(5) -0.6199(8) 0.3500(12)
H3E H -0.0353 -0.5771 0.3151
C5E C 0.0102(5) -0.7444(8) 0.3493(11)
H4E H -0.0371 -0.7828 0.3147
N1E N 0.0799(11) -0.8159(15) 0.3997(19)
N1E_2 N 0.0799(11) 0.1841(15) 0.3997(19)
N2E N 0.3535(6) 0.1523(11) 0.0517(9)
N3E N 0.3804(7) 0.1763(13) -0.0422(11)
O3A O -0.0405(3) 0.0000 0.3365(4)
O4_2 O 0.1444(2) 0.0000 0.6035(4)
Zn1A Zn -0.07819(4) 0.0000 -0.39420(5)
Zn1_2 Zn 0.07819(4) -1.0000 0.39420(5)
Zn1_3 Zn 0.07819(4) 0.0000 -0.60580(5)
C14? C 0.1748(7) -0.0435(11) 0.0895(10)
C15? C 0.2459(7) -0.0836(12) 0.1183(11)
H7? H 0.2751 -0.0995 0.2113
C16? C 0.2788(7) -0.1031(12) 0.0132(11)
C17? C 0.2335(8) -0.0767(12) -0.1290(11)
H8? H 0.2545 -0.0841 -0.2004
C18? C 0.1590(7) -0.0407(11) -0.1587(9)
N5? N 0.4065(8) -0.1990(12) -0.1138(11)
C19? C -0.0236(8) -0.7559(10) -0.3078(13)
C20? C -0.1382(8) -0.7580(12) -0.4893(11)
C21? C -0.1421(8) -0.6377(11) -0.4941(12)
C22? C -0.0856(14) -0.560(2) -0.403(2)
C23? C -0.0210(7) -0.6341(10) -0.3046(14)
H9? H -0.0131 -0.7994 0.2394
H10? H -0.1786 -0.8043 -0.5453
H11? H -0.1846 -0.6037 -0.5616
H12? H -0.0212 -0.5967 0.2407
N6? N -0.0745(16) -0.806(2) -0.401(2)
loop_
_geom_bond_atom_site_label_1
_geom_bond_atom_site_label_2
_geom_bond_site_symmetry_1
_geom_bond_site_symmetry_2
C1 H1 1_555 1_555
C2 C1 1_555 1_555
H2 C2 1_555 1_555
C3 C2 1_555 1_555
C4 C3 1_555 1_555
H3 C4 1_555 1_555
C5 C4 1_555 1_555
H4 C5 1_555 1_555
N1 C1 1_555 1_555
C6 C7 1_555 1_555
N2 N3 1_555 1_555
C7 C8 1_555 1_555
C8 H5 1_555 1_555
C9 C8 1_555 1_555
C10 C9 1_555 1_555
H6 C10 1_555 1_555
C11 C10 1_555 1_555
N4 N2 1_555 1_555
C12 C7 1_555 1_555
C13 C11 1_555 1_555
O1 C6 1_555 1_555
O2 C6 1_555 1_555
O3 C13 1_555 1_555
O4 C13 1_555 1_555
Zn1 N1 1_555 1_555
C1E H1E 1_555 1_555
C2E C1E 1_555 1_555
H2E C2E 1_555 1_555
C3E C3 1_555 1_555
C4E C3E 1_555 1_555
H3E C4E 1_555 1_555
C5E C4E 1_555 1_555
H4E C5E 1_555 1_555
N1E C1E 1_555 1_555
N1E_2 Zn1 1_555 1_555
N2E N4 1_555 1_555
N3E N2E 1_555 1_555
O3A Zn1 1_555 1_555
O4_2 Zn1 1_555 1_555
Zn1A O3 1_555 1_555
Zn1_2 N1E 1_555 1_555
Zn1_3 O4 1_555 1_555
C5 N1 1_555 1_555
C9 N4 1_555 1_555
C11 C12 1_555 1_555
O1 Zn1 1_555 1_555
O2 Zn1 1_555 1_555
C2E C3E 1_555 1_555
C5E N1E 1_555 1_555

#END
