
#######################################################################
#
#                 Cambridge Crystallographic Data Centre
#                                CCDC 
#
#######################################################################
#
# If this CIF has been generated from an entry in the Cambridge 
# Structural Database, then it will include bibliographic, chemical, 
# crystal, experimental, refinement or atomic coordinate data resulting 
# from the CCDC's data processing and validation procedures.
#
#######################################################################

data_YOVNUU
_chemical_formula_moiety         '(C41 H29 N7 Ni1 O4)n,n(C3 H7 N1 O1)'
_chemical_name_systematic        
'catena-((\m~3~-1,3,5-tris(4-(Imidazolyl)phenyl)benzene)-(\m~2~-2-aminoterephthalato)-nickel dimethylformamide unknown solvate)'
_symmetry_cell_setting           monoclinic
_symmetry_space_group_name_H-M   'P 21/n'
_symmetry_Int_Tables_number      14
_space_group_name_Hall           '-P 2yn'
loop_
_symmetry_equiv_pos_site_id
_symmetry_equiv_pos_as_xyz
1 x,y,z
2 1/2-x,1/2+y,1/2-z
3 -x,-y,-z
4 1/2+x,1/2-y,1/2+z
_cell_length_a                   9.0061(14)
_cell_length_b                   31.498(5)
_cell_length_c                   15.780(2)
_cell_angle_alpha                90
_cell_angle_beta                 90.584(4)
_cell_angle_gamma                90
_cell_volume                     4476.15
_exptl_crystal_colour            green
_exptl_crystal_description       block
_cell_formula_units_Z            4
loop_
_atom_site_label
_atom_site_type_symbol
_atom_site_fract_x
_atom_site_fract_y
_atom_site_fract_z
Ni1 Ni 1.29599(5) 0.836359(13) 0.47970(3)
N1 N 1.1097(9) 0.8018(4) 0.5191(5)
C1 C 0.9593(10) 0.8145(2) 0.5097(7)
H1 H 0.9251 0.8427 0.5006
C2 C 0.8688(9) 0.7778(3) 0.5161(7)
H2 H 0.7635 0.7771 0.5121
N2 N 0.9634(14) 0.7423(2) 0.5296(5)
C3 C 1.1123(12) 0.7571(4) 0.5315(6)
H3 H 1.1984 0.7401 0.5395
C4 C 0.9106(7) 0.70088(12) 0.5301(3)
C5 C 0.9621(8) 0.67329(17) 0.5925(3)
H4 H 1.0272 0.6833 0.6358
C6 C 0.9182(8) 0.63097(15) 0.5916(3)
H5 H 0.9534 0.6121 0.6343
C7 C 0.8230(6) 0.61625(13) 0.5283(3)
C8 C 0.7715(7) 0.64385(17) 0.4659(3)
H6 H 0.7064 0.6338 0.4226
C9 C 0.8153(7) 0.68616(15) 0.4667(3)
H7 H 0.7802 0.7050 0.4241
C10 C 0.7821(4) 0.57052(11) 0.5280(2)
C11 C 0.7107(4) 0.55296(11) 0.5983(2)
H8 H 0.6898 0.5703 0.6460
C12 C 0.6702(4) 0.51015(11) 0.5989(2)
C13 C 0.7025(4) 0.48526(11) 0.5287(2)
H9 H 0.6769 0.4560 0.5291
C14 C 0.7713(4) 0.50222(11) 0.4580(2)
C15 C 0.8102(4) 0.54485(11) 0.4581(2)
H10 H 0.8568 0.5567 0.4098
C16 C 0.5998(4) 0.49127(10) 0.6755(2)
C17 C 0.6161(4) 0.50966(12) 0.7550(2)
H11 H 0.6687 0.5357 0.7602
C18 C 0.5578(5) 0.49099(11) 0.8267(2)
H12 H 0.5708 0.5042 0.8804
C19 C 0.4803(4) 0.45300(11) 0.8202(2)
C20 C 0.4562(4) 0.43501(11) 0.7417(2)
H13 H 0.3993 0.4097 0.7364
C21 C 0.5159(4) 0.45412(12) 0.6704(2)
H14 H 0.4990 0.4415 0.6164
C22 C 0.4033(4) 0.41487(10) 1.0286(2)
H15 H 0.4133 0.4138 1.0885
C23 C 0.4794(4) 0.44093(11) 0.9771(2)
H16 H 0.5528 0.4610 0.9937
C24 C 0.3286(4) 0.40161(10) 0.9015(2)
H17 H 0.2774 0.3895 0.8545
C25 C 0.8024(4) 0.47552(11) 0.3825(2)
C26 C 0.9327(4) 0.48161(12) 0.3361(2)
H18 H 1.0030 0.5022 0.3546
C27 C 0.9602(4) 0.45827(12) 0.2641(2)
H19 H 1.0473 0.4635 0.2323
C28 C 0.8614(4) 0.42731(11) 0.2382(2)
C29 C 0.7320(4) 0.42003(12) 0.2834(2)
H20 H 0.6638 0.3988 0.2655
C30 C 0.7040(4) 0.44424(11) 0.3548(2)
H21 H 0.6156 0.4394 0.3857
C31 C 0.8742(4) 0.36509(13) 0.0487(2)
H22 H 0.8349 0.3512 0.0000
C32 C 0.7933(4) 0.38591(13) 0.1065(2)
H23 H 0.6883 0.3888 0.1070
C33 C 1.0294(4) 0.38970(11) 0.1410(2)
H24 H 1.1186 0.3964 0.1707
C34 C 1.1488(4) 0.84471(11) 0.2958(2)
C35 C 1.0931(4) 0.81147(12) 0.2349(2)
C36 C 1.0367(5) 0.82262(12) 0.1562(3)
H25 H 1.0311 0.8518 0.1414
C37 C 0.9879(5) 0.79238(12) 0.0982(2)
C38 C 0.9964(4) 0.74879(11) 0.1211(2)
C39 C 1.0534(5) 0.73794(12) 0.1998(3)
H26 H 1.0594 0.7088 0.2151
C40 C 1.1021(5) 0.76839(13) 0.2571(3)
H27 H 1.1423 0.7603 0.3113
C41 C 0.9404(4) 0.71495(11) 0.0633(2)
N3 N 0.3091(3) 0.39000(9) 0.98093(17)
N4 N 0.4302(3) 0.43282(8) 0.89544(17)
N5 N 1.0231(3) 0.36696(9) 0.07055(17)
N6 N 0.8930(3) 0.40224(9) 0.16523(18)
N7 N 0.9263(7) 0.80625(17) 0.0194(3)
O1 O 1.2092(3) 0.83011(8) 0.36242(16)
O2 O 1.1334(3) 0.88292(8) 0.27788(16)
O3 O 0.9113(3) 0.67835(8) 0.09336(15)
O4 O 0.9161(3) 0.72294(8) -0.01441(15)
Ni1A Ni 0.20401(5) 0.336359(13) 1.02030(3)
Ni1A_2 Ni 1.20401(5) 0.336359(13) 0.02030(3)
Ni1C Ni 0.79599(5) 0.663641(13) -0.02030(3)
N3A N 1.1909(3) 0.89000(9) 0.51907(17)
N5A N 1.4769(3) 0.86696(9) 0.42945(17)
O3C O 1.4113(3) 0.82165(8) 0.59336(15)
O4C O 1.4161(3) 0.77706(8) 0.48559(15)
C51 C 0.6823(8) 0.7023(2) 0.2575(4)
H36 H 0.7856 0.7030 0.2459
C52 C 0.4610(11) 0.7420(4) 0.2903(8)
H37 H 0.4167 0.7138 0.2820
H38 H 0.4164 0.7620 0.2499
H39 H 0.4427 0.7517 0.3482
C53 C 0.6980(10) 0.7778(2) 0.2871(7)
H40 H 0.8021 0.7727 0.2729
H41 H 0.6917 0.7874 0.3461
H42 H 0.6571 0.7998 0.2496
N11 N 0.6154(6) 0.73963(18) 0.2767(3)
O5 O 0.6228(8) 0.66897(19) 0.2541(4)
C42? C 0.932(2) 0.6999(4) 0.5239(10)
C43? C 1.0306(16) 0.6680(5) 0.5482(14)
H28? H 1.1297 0.6750 0.5640
C44? C 0.9841(17) 0.6260(4) 0.5495(13)
H29? H 1.0513 0.6042 0.5661
C45? C 0.8391(18) 0.6157(4) 0.5264(9)
C46? C 0.7407(14) 0.6476(5) 0.5020(10)
H30? H 0.6416 0.6406 0.4862
C47? C 0.7872(18) 0.6896(5) 0.5008(10)
H31? H 0.7200 0.7114 0.4841
N8? N 1.1157(10) 0.8002(4) 0.5171(6)
C48? C 0.9804(12) 0.8148(3) 0.5522(7)
H32? H 0.9585 0.8432 0.5678
C49? C 0.8834(11) 0.7795(3) 0.5596(8)
H33? H 0.7854 0.7801 0.5812
N9? N 0.9588(16) 0.7430(3) 0.5292(6)
C50? C 1.1024(13) 0.7558(4) 0.5029(6)
H34? H 1.1765 0.7379 0.4799
H35? H 0.9491 0.8006 0.0437
N10? N 1.133(3) 0.7476(6) 0.3440(13)
loop_
_geom_bond_atom_site_label_1
_geom_bond_atom_site_label_2
_geom_bond_site_symmetry_1
_geom_bond_site_symmetry_2
Ni1 N1 1_555 1_555
N1 C1 1_555 1_555
C1 H1 1_555 1_555
C2 C1 1_555 1_555
H2 C2 1_555 1_555
N2 C2 1_555 1_555
C3 N1 1_555 1_555
H3 C3 1_555 1_555
C4 N2 1_555 1_555
C5 C4 1_555 1_555
H4 C5 1_555 1_555
C6 C5 1_555 1_555
H5 C6 1_555 1_555
C7 C6 1_555 1_555
C8 C7 1_555 1_555
H6 C8 1_555 1_555
C9 C4 1_555 1_555
H7 C9 1_555 1_555
C10 C7 1_555 1_555
C11 C10 1_555 1_555
H8 C11 1_555 1_555
C12 C11 1_555 1_555
C13 C12 1_555 1_555
H9 C13 1_555 1_555
C14 C13 1_555 1_555
C15 C10 1_555 1_555
H10 C15 1_555 1_555
C16 C12 1_555 1_555
C17 C16 1_555 1_555
H11 C17 1_555 1_555
C18 C17 1_555 1_555
H12 C18 1_555 1_555
C19 C18 1_555 1_555
C20 C19 1_555 1_555
H13 C20 1_555 1_555
C21 C16 1_555 1_555
H14 C21 1_555 1_555
C22 H15 1_555 1_555
C23 C22 1_555 1_555
H16 C23 1_555 1_555
C24 H17 1_555 1_555
C25 C14 1_555 1_555
C26 C25 1_555 1_555
H18 C26 1_555 1_555
C27 C26 1_555 1_555
H19 C27 1_555 1_555
C28 C27 1_555 1_555
C29 C28 1_555 1_555
H20 C29 1_555 1_555
C30 C25 1_555 1_555
H21 C30 1_555 1_555
C31 H22 1_555 1_555
C32 C31 1_555 1_555
H23 C32 1_555 1_555
C33 H24 1_555 1_555
C34 C35 1_555 1_555
C35 C36 1_555 1_555
C36 H25 1_555 1_555
C37 C36 1_555 1_555
C38 C37 1_555 1_555
C39 C38 1_555 1_555
H26 C39 1_555 1_555
C40 C35 1_555 1_555
H27 C40 1_555 1_555
C41 C38 1_555 1_555
N3 C22 1_555 1_555
N4 C19 1_555 1_555
N5 C31 1_555 1_555
N6 C28 1_555 1_555
N7 C37 1_555 1_555
O1 Ni1 1_555 1_555
O2 C34 1_555 1_555
O3 C41 1_555 1_555
O4 C41 1_555 1_555
C51 H36 1_555 1_555
C52 H37 1_555 1_555
H38 C52 1_555 1_555
H39 C52 1_555 1_555
C53 H40 1_555 1_555
H41 C53 1_555 1_555
H42 C53 1_555 1_555
N11 C51 1_555 1_555
O5 C51 1_555 1_555
Ni1A N3 1_555 1_555
Ni1A_2 N5 1_555 1_555
Ni1C O3 1_555 1_555
N3A Ni1 1_555 1_555
N5A Ni1 1_555 1_555
O3C Ni1 1_555 1_555
O4C Ni1 1_555 1_555
N2 C3 1_555 1_555
C8 C9 1_555 1_555
C14 C15 1_555 1_555
C20 C21 1_555 1_555
C23 N4 1_555 1_555
C24 N3 1_555 1_555
C24 N4 1_555 1_555
C29 C30 1_555 1_555
C32 N6 1_555 1_555
C33 N5 1_555 1_555
C33 N6 1_555 1_555
C34 O1 1_555 1_555
C39 C40 1_555 1_555
O4 Ni1C 1_555 1_555
C52 N11 1_555 1_555
C53 N11 1_555 1_555

#END
