
#######################################################################
#
#                 Cambridge Crystallographic Data Centre
#                                CCDC 
#
#######################################################################
#
# If this CIF has been generated from an entry in the Cambridge 
# Structural Database, then it will include bibliographic, chemical, 
# crystal, experimental, refinement or atomic coordinate data resulting 
# from the CCDC's data processing and validation procedures.
#
#######################################################################

data_AQOSOP
_chemical_formula_moiety         
'(C24 H28 Cu1 N4 O6 2+)n,n(F6 Si1 2-),4n(H2 O1)'
_chemical_name_systematic        
"catena-[bis(\m~2~-meso-1,2-bis(4-Pyridyl)ethane-1,2-diol-N,N')-diaqua-copper(ii) hexafluorosilicate tetrahydrate]"
_symmetry_cell_setting           tetragonal
_symmetry_space_group_name_H-M   'P 4/n c c'
_symmetry_Int_Tables_number      130
_space_group_name_Hall           '-P 4a 2ac'
loop_
_symmetry_equiv_pos_site_id
_symmetry_equiv_pos_as_xyz
1 x,y,z
2 1/2-x,1/2-y,z
3 1/2-y,x,z
4 y,1/2-x,z
5 -x,1/2+y,1/2-z
6 1/2+x,-y,1/2-z
7 1/2+y,1/2+x,1/2-z
8 -y,-x,1/2-z
9 -x,-y,-z
10 1/2+x,1/2+y,-z
11 1/2+y,-x,-z
12 -y,1/2+x,-z
13 x,1/2-y,1/2+z
14 1/2-x,y,1/2+z
15 1/2-y,1/2-x,1/2+z
16 y,x,1/2+z
_cell_length_a                   13.5377(2)
_cell_length_b                   13.5377(2)
_cell_length_c                   18.3726(5)
_cell_angle_alpha                90
_cell_angle_beta                 90
_cell_angle_gamma                90
_cell_volume                     3367.13
_exptl_crystal_colour            purple
_exptl_crystal_description       block
_cell_formula_units_Z            4
loop_
_atom_site_label
_atom_site_type_symbol
_atom_site_fract_x
_atom_site_fract_y
_atom_site_fract_z
Cu1 Cu 1.2500 -0.2500 0.2500
C1 C 1.2248(3) -0.3742(4) 0.1203(3)
H1 H 1.2949 -0.3760 0.1223
C2 C 1.0777(3) -0.3213(4) 0.1699(3)
H2 H 1.0430 -0.2858 0.2065
C3 C 1.0248(4) -0.3685(5) 0.1160(4)
H3 H 0.9547 -0.3676 0.1168
C4 C 1.1797(4) -0.4220(5) 0.0655(3)
H4 H 1.2177 -0.4581 0.0312
C5 C 1.0755(5) -0.4185(5) 0.0590(3)
N1 N 1.1769(2) -0.3242(2) 0.17213(17)
C6 C 1.0210(5) -0.4592(5) -0.0147(4)
O1 O 0.9621(3) -0.3860(3) -0.04528(19)
H5 H 0.9192 -0.3682 -0.0150
O3 O 1.1133(3) -0.1133(3) 0.2500
Cu1H Cu 0.7500 -0.7500 -0.2500
Cu1H_2 Cu 1.7500 0.2500 -0.2500
C1H C 0.7752(3) -0.6258(4) -0.1203(3)
C1A C 1.2752(3) -0.1258(4) 0.1203(3)
C1I C 1.7248(3) 0.1258(4) -0.1203(3)
H1H H 0.7051 -0.6240 -0.1223
H1A H 1.2051 -0.1240 0.1223
H1I H 1.7949 0.1240 -0.1223
C2H C 0.9223(3) -0.6787(4) -0.1699(3)
C2A C 1.4223(3) -0.1787(4) 0.1699(3)
C2I C 1.5777(3) 0.1787(4) -0.1699(3)
H2H H 0.9570 -0.7142 -0.2065
H2A H 1.4570 -0.2142 0.2065
H2I H 1.5430 0.2142 -0.2065
C3H C 0.9752(4) -0.6315(5) -0.1160(4)
C3A C 1.4752(4) -0.1315(5) 0.1160(4)
C3I C 1.5248(4) 0.1315(5) -0.1160(4)
H3H H 1.0453 -0.6324 -0.1168
H3A H 1.5453 -0.1324 0.1168
H3I H 1.4547 0.1324 -0.1168
C4H C 0.8203(4) -0.5780(5) -0.0655(3)
C4A C 1.3203(4) -0.0780(5) 0.0655(3)
C4I C 1.6797(4) 0.0780(5) -0.0655(3)
H4H H 0.7823 -0.5419 -0.0312
H4A H 1.2823 -0.0419 0.0312
H4I H 1.7177 0.0419 -0.0312
C5H C 0.9245(5) -0.5815(5) -0.0590(3)
C5A C 1.4245(5) -0.0815(5) 0.0590(3)
C5I C 1.5755(5) 0.0815(5) -0.0590(3)
N1H N 0.8231(2) -0.6758(2) -0.17213(17)
N1A N 1.3231(2) -0.1758(2) 0.17213(17)
N1I N 1.6769(2) 0.1758(2) -0.17213(17)
N1F N 1.1758(2) -0.3231(2) 0.32787(17)
N1G N 1.3242(2) -0.1769(2) 0.32787(17)
C6H C 0.9790(5) -0.5408(5) 0.0147(4)
C6A C 1.4790(5) -0.0408(5) -0.0147(4)
C6I C 1.5210(5) 0.0408(5) 0.0147(4)
O1H O 1.0379(3) -0.6140(3) 0.04528(19)
O1A O 1.5379(3) -0.1140(3) -0.04528(19)
O1I O 1.4621(3) 0.1140(3) 0.04528(19)
H5H H 1.0808 -0.6318 0.0150
H5A H 1.5808 -0.1318 -0.0150
H5I H 1.4192 0.1318 0.0150
O3A O 1.3867(3) -0.3867(3) 0.2500
Si1 Si 0.7500 -0.2500 0.54391(14)
F1 F 0.8618(3) -0.2967(3) 0.5415(3)
F2 F 0.7500 -0.2500 0.6277(6)
F3 F 0.7500 -0.2500 0.4584(10)
F1A F 0.6382(3) -0.2033(3) 0.5415(3)
F1B F 0.7967(3) -0.1382(3) 0.5415(3)
F1C F 0.7033(3) -0.3618(3) 0.5415(3)
O4 O 1.0934(9) 0.3931(9) 0.1915(5)
O5 O 1.1195(8) 0.2219(9) 0.2595(6)
O2? O 1.0878(11) -0.4670(11) -0.0661(8)
H6? H 1.1380 -0.4933 -0.0492
O6? O 1.0619(7) 0.3191(9) 0.1917(5)
loop_
_geom_bond_atom_site_label_1
_geom_bond_atom_site_label_2
_geom_bond_site_symmetry_1
_geom_bond_site_symmetry_2
Cu1 N1 1_555 1_555
Si1 F1 1_555 1_555
C1 H1 1_555 1_555
C2 H2 1_555 1_555
C3 C2 1_555 1_555
H3 C3 1_555 1_555
C4 C1 1_555 1_555
H4 C4 1_555 1_555
C5 C3 1_555 1_555
N1 C1 1_555 1_555
C6 C5 1_555 1_555
O1 C6 1_555 1_555
H5 O1 1_555 1_555
F2 Si1 1_555 1_555
F3 Si1 1_555 1_555
O3 Cu1 1_555 1_555
Cu1H N1H 1_555 1_555
Cu1H_2 N1I 1_555 1_555
C1H H1H 1_555 1_555
C1A H1A 1_555 1_555
C1I H1I 1_555 1_555
C2H H2H 1_555 1_555
C2A H2A 1_555 1_555
C2I H2I 1_555 1_555
C3H C2H 1_555 1_555
C3A C2A 1_555 1_555
C3I C2I 1_555 1_555
H3H C3H 1_555 1_555
H3A C3A 1_555 1_555
H3I C3I 1_555 1_555
C4H C1H 1_555 1_555
C4A C1A 1_555 1_555
C4I C1I 1_555 1_555
H4H C4H 1_555 1_555
H4A C4A 1_555 1_555
H4I C4I 1_555 1_555
C5H C3H 1_555 1_555
C5A C3A 1_555 1_555
C5I C3I 1_555 1_555
N1H C1H 1_555 1_555
N1A Cu1 1_555 1_555
N1I C1I 1_555 1_555
N1F Cu1 1_555 1_555
N1G Cu1 1_555 1_555
C6H C6 1_555 1_555
C6A C5A 1_555 1_555
C6I C5I 1_555 1_555
O1H C6H 1_555 1_555
O1A C6A 1_555 1_555
O1I C6I 1_555 1_555
H5H O1H 1_555 1_555
H5A O1A 1_555 1_555
H5I O1I 1_555 1_555
F1A Si1 1_555 1_555
F1B Si1 1_555 1_555
F1C Si1 1_555 1_555
O3A Cu1 1_555 1_555
C2 N1 1_555 1_555
C4 C5 1_555 1_555
C1A N1A 1_555 1_555
C2H N1H 1_555 1_555
C2A N1A 1_555 1_555
C2I N1I 1_555 1_555
C4H C5H 1_555 1_555
C4A C5A 1_555 1_555
C4I C5I 1_555 1_555
C5H C6H 1_555 1_555
C6A C6I 1_555 1_555

#END
