
#######################################################################
#
#                 Cambridge Crystallographic Data Centre
#                                CCDC 
#
#######################################################################
#
# If this CIF has been generated from an entry in the Cambridge 
# Structural Database, then it will include bibliographic, chemical, 
# crystal, experimental, refinement or atomic coordinate data resulting 
# from the CCDC's data processing and validation procedures.
#
#######################################################################

data_WAMREJ
_chemical_formula_moiety         '(C68 H38 Cu4 N4 O20)n'
_chemical_name_systematic        
catena-((\m~16~-9,9',9'',9'''-([1.1'-biphenyl]-3,3',5,5'-tetrayl)-tetrakis(9H-carbazole-3,6-dicarboxylato))-tetra-aqua-tetra-copper)
_symmetry_cell_setting           tetragonal
_symmetry_space_group_name_H-M   'I 4/m m m'
_symmetry_Int_Tables_number      139
_space_group_name_Hall           '-I 4 2'
loop_
_symmetry_equiv_pos_site_id
_symmetry_equiv_pos_as_xyz
1 x,y,z
2 -y,x,z
3 y,-x,z
4 y,x,-z
5 1/2+x,1/2+y,1/2+z
6 1/2-y,1/2+x,1/2+z
7 1/2+y,1/2-x,1/2+z
8 1/2+y,1/2+x,1/2-z
9 -x,-y,z
10 x,-y,-z
11 -x,y,-z
12 -y,-x,-z
13 1/2-x,1/2-y,1/2+z
14 1/2+x,1/2-y,1/2-z
15 1/2-x,1/2+y,1/2-z
16 1/2-y,1/2-x,1/2-z
17 -x,-y,-z
18 y,-x,-z
19 -y,x,-z
20 -y,-x,z
21 1/2-x,1/2-y,1/2-z
22 1/2+y,1/2-x,1/2-z
23 1/2-y,1/2+x,1/2-z
24 1/2-y,1/2-x,1/2+z
25 x,y,-z
26 -x,y,z
27 x,-y,z
28 y,x,z
29 1/2+x,1/2+y,1/2-z
30 1/2-x,1/2+y,1/2+z
31 1/2+x,1/2-y,1/2+z
32 1/2+y,1/2+x,1/2+z
_cell_length_a                   22.972(5)
_cell_length_b                   22.972(5)
_cell_length_c                   30.924(7)
_cell_angle_alpha                90
_cell_angle_beta                 90
_cell_angle_gamma                90
_cell_volume                     16319
_exptl_crystal_colour            green
_exptl_crystal_description       block
_cell_formula_units_Z            4
loop_
_atom_site_label
_atom_site_type_symbol
_atom_site_fract_x
_atom_site_fract_y
_atom_site_fract_z
_atom_site_U_iso_or_equiv
_atom_site_thermal_displace_type
Cu1 Cu 0.28710(6) 0.28710(6) 0.26702(7) 0.1340 Uani
O1 O 0.3392(4) 0.2537(4) 0.2251(3) 0.1610 Uani
O2 O 0.2722(4) 0.1913(4) 0.1937(3) 0.1683 Uani
O3 O 0.3499(4) 0.3499(4) 0.2955(4) 0.1780 Uani
N1 N 0.5000 0.1529(7) 0.0822(7) 0.2747 Uani
C1 C 0.3170(6) 0.2125(5) 0.1969(4) 0.1220 Uani
C2 C 0.3669(6) 0.1992(3) 0.1703(4) 0.1640 Uani
C3 C 0.3544(8) 0.1741(5) 0.1306(4) 0.2320 Uani
H1 H 0.3140 0.1686 0.1254 0.2790 Uiso
C4 C 0.3902(8) 0.1556(6) 0.0968(6) 0.3143 Uani
H2 H 0.3769 0.1387 0.0705 0.3770 Uiso
C5 C 0.4483(9) 0.1653(4) 0.1073(4) 0.2500 Uani
C6 C 0.4678(5) 0.1900(4) 0.1459(4) 0.1637 Uani
C7 C 0.4264(5) 0.2062(4) 0.1762(3) 0.1410 Uani
H3 H 0.4395 0.2232 0.2025 0.1690 Uiso
C8 C 0.5000 0.1534(4) 0.0000 0.3000 Uani
H4 H 0.5000 0.1947 0.0000 0.3590 Uiso
C9 C 0.5000 0.1226(4) 0.03871(18) 0.2437 Uani
C10 C 0.5000 0.0620(4) 0.03883(17) 0.1360 Uani
H5 H 0.5000 0.0414 0.0655 0.1630 Uiso
C11 C 0.5000 0.0314(4) 0.0000 0.1663 Uani
Cu1A Cu 0.71290(6) 0.28710(6) 0.26702(7) 0.1340 Uani
Cu1C Cu 0.28710(6) 0.28710(6) -0.26702(7) 0.1340 Uani
Cu1R Cu 0.71290(6) 0.28710(6) -0.26702(7) 0.1340 Uani
Cu1T Cu 0.21290(6) 0.21290(6) 0.23298(7) 0.1340 Uani
Cu1U Cu 0.78710(6) 0.21290(6) 0.23298(7) 0.1340 Uani
Cu1W Cu 0.21290(6) 0.21290(6) -0.23298(7) 0.1340 Uani
Cu1F Cu 0.78710(6) 0.21290(6) -0.23298(7) 0.1340 Uani
Cu1B Cu 0.28710(6) -0.28710(6) 0.26702(7) 0.1340 Uani
Cu1V Cu 0.21290(6) -0.21290(6) 0.23298(7) 0.1340 Uani
Cu1S Cu 0.71290(6) -0.28710(6) 0.26702(7) 0.1340 Uani
Cu1G Cu 0.78710(6) -0.21290(6) 0.23298(7) 0.1340 Uani
Cu1Q Cu 0.28710(6) -0.28710(6) -0.26702(7) 0.1340 Uani
Cu1E Cu 0.21290(6) -0.21290(6) -0.23298(7) 0.1340 Uani
Cu1P Cu 0.71290(6) -0.28710(6) -0.26702(7) 0.1340 Uani
Cu1D Cu 0.78710(6) -0.21290(6) -0.23298(7) 0.1340 Uani
O1Y O 0.6608(4) 0.2537(4) 0.2251(3) 0.1610 Uani
O1X O 0.3392(4) 0.2537(4) -0.2251(3) 0.1610 Uani
O1J O 0.6608(4) 0.2537(4) -0.2251(3) 0.1610 Uani
O1Z O 0.3392(4) -0.2537(4) 0.2251(3) 0.1610 Uani
O1H O 0.6608(4) -0.2537(4) 0.2251(3) 0.1610 Uani
O1I O 0.3392(4) -0.2537(4) -0.2251(3) 0.1610 Uani
O1P O 0.6608(4) -0.2537(4) -0.2251(3) 0.1610 Uani
O1AA O 0.2537(4) 0.3392(4) 0.2251(3) 0.1610 Uani
O1A O 0.7463(4) 0.3392(4) 0.2251(3) 0.1610 Uani
O1C O 0.2537(4) 0.3392(4) -0.2251(3) 0.1610 Uani
O1R O 0.7463(4) 0.3392(4) -0.2251(3) 0.1610 Uani
O2Y O 0.7278(4) 0.1913(4) 0.1937(3) 0.1683 Uani
O2X O 0.2722(4) 0.1913(4) -0.1937(3) 0.1683 Uani
O2J O 0.7278(4) 0.1913(4) -0.1937(3) 0.1683 Uani
O2Z O 0.2722(4) -0.1913(4) 0.1937(3) 0.1683 Uani
O2H O 0.7278(4) -0.1913(4) 0.1937(3) 0.1683 Uani
O2I O 0.2722(4) -0.1913(4) -0.1937(3) 0.1683 Uani
O2P O 0.7278(4) -0.1913(4) -0.1937(3) 0.1683 Uani
O2T O 0.2278(4) 0.3087(4) 0.3063(3) 0.1683 Uani
O2O O 0.3087(4) 0.2278(4) 0.3063(3) 0.1683 Uani
O2M O 0.7722(4) 0.3087(4) 0.3063(3) 0.1683 Uani
O2U O 0.6913(4) 0.2278(4) 0.3063(3) 0.1683 Uani
O2L O 0.2278(4) 0.3087(4) -0.3063(3) 0.1683 Uani
O2W O 0.3087(4) 0.2278(4) -0.3063(3) 0.1683 Uani
O2DA O 0.7722(4) 0.3087(4) -0.3063(3) 0.1683 Uani
O2F O 0.6913(4) 0.2278(4) -0.3063(3) 0.1683 Uani
O3A O 0.6501(4) 0.3499(4) 0.2955(4) 0.1780 Uani
O3C O 0.3499(4) 0.3499(4) -0.2955(4) 0.1780 Uani
O3R O 0.6501(4) 0.3499(4) -0.2955(4) 0.1780 Uani
N1X N 0.5000 0.1529(7) -0.0822(7) 0.2747 Uani
N1Z N 0.5000 -0.1529(7) 0.0822(7) 0.2747 Uani
N1P N 0.5000 -0.1529(7) -0.0822(7) 0.2747 Uani
C1Y C 0.6830(6) 0.2125(5) 0.1969(4) 0.1220 Uani
C1X C 0.3170(6) 0.2125(5) -0.1969(4) 0.1220 Uani
C1J C 0.6830(6) 0.2125(5) -0.1969(4) 0.1220 Uani
C1Z C 0.3170(6) -0.2125(5) 0.1969(4) 0.1220 Uani
C1H C 0.6830(6) -0.2125(5) 0.1969(4) 0.1220 Uani
C1I C 0.3170(6) -0.2125(5) -0.1969(4) 0.1220 Uani
C1P C 0.6830(6) -0.2125(5) -0.1969(4) 0.1220 Uani
C2Y C 0.6331(6) 0.1992(3) 0.1703(4) 0.1640 Uani
C2X C 0.3669(6) 0.1992(3) -0.1703(4) 0.1640 Uani
C2J C 0.6331(6) 0.1992(3) -0.1703(4) 0.1640 Uani
C2Z C 0.3669(6) -0.1992(3) 0.1703(4) 0.1640 Uani
C2H C 0.6331(6) -0.1992(3) 0.1703(4) 0.1640 Uani
C2I C 0.3669(6) -0.1992(3) -0.1703(4) 0.1640 Uani
C2P C 0.6331(6) -0.1992(3) -0.1703(4) 0.1640 Uani
C3Y C 0.6456(8) 0.1741(5) 0.1306(4) 0.2320 Uani
C3X C 0.3544(8) 0.1741(5) -0.1306(4) 0.2320 Uani
C3J C 0.6456(8) 0.1741(5) -0.1306(4) 0.2320 Uani
C3Z C 0.3544(8) -0.1741(5) 0.1306(4) 0.2320 Uani
C3H C 0.6456(8) -0.1741(5) 0.1306(4) 0.2320 Uani
C3I C 0.3544(8) -0.1741(5) -0.1306(4) 0.2320 Uani
C3P C 0.6456(8) -0.1741(5) -0.1306(4) 0.2320 Uani
H1Y H 0.6860 0.1686 0.1254 0.2790 Uiso
H1J H 0.6860 0.1686 -0.1254 0.2790 Uiso
H1X H 0.3140 0.1686 -0.1254 0.2790 Uiso
H1Z H 0.3140 -0.1686 0.1254 0.2790 Uiso
H1H H 0.6860 -0.1686 0.1254 0.2790 Uiso
H1I H 0.3140 -0.1686 -0.1254 0.2790 Uiso
H1P H 0.6860 -0.1686 -0.1254 0.2790 Uiso
C4Y C 0.6098(8) 0.1556(6) 0.0968(6) 0.3143 Uani
C4X C 0.3902(8) 0.1556(6) -0.0968(6) 0.3143 Uani
C4J C 0.6098(8) 0.1556(6) -0.0968(6) 0.3143 Uani
C4Z C 0.3902(8) -0.1556(6) 0.0968(6) 0.3143 Uani
C4H C 0.6098(8) -0.1556(6) 0.0968(6) 0.3143 Uani
C4I C 0.3902(8) -0.1556(6) -0.0968(6) 0.3143 Uani
C4P C 0.6098(8) -0.1556(6) -0.0968(6) 0.3143 Uani
H2Y H 0.6231 0.1387 0.0705 0.3770 Uiso
H2J H 0.6231 0.1387 -0.0705 0.3770 Uiso
H2X H 0.3769 0.1387 -0.0705 0.3770 Uiso
H2Z H 0.3769 -0.1387 0.0705 0.3770 Uiso
H2H H 0.6231 -0.1387 0.0705 0.3770 Uiso
H2I H 0.3769 -0.1387 -0.0705 0.3770 Uiso
H2P H 0.6231 -0.1387 -0.0705 0.3770 Uiso
C5Y C 0.5517(9) 0.1653(4) 0.1073(4) 0.2500 Uani
C5X C 0.4483(9) 0.1653(4) -0.1073(4) 0.2500 Uani
C5J C 0.5517(9) 0.1653(4) -0.1073(4) 0.2500 Uani
C5Z C 0.4483(9) -0.1653(4) 0.1073(4) 0.2500 Uani
C5H C 0.5517(9) -0.1653(4) 0.1073(4) 0.2500 Uani
C5I C 0.4483(9) -0.1653(4) -0.1073(4) 0.2500 Uani
C5P C 0.5517(9) -0.1653(4) -0.1073(4) 0.2500 Uani
C6Y C 0.5322(5) 0.1900(4) 0.1459(4) 0.1637 Uani
C6X C 0.4678(5) 0.1900(4) -0.1459(4) 0.1637 Uani
C6J C 0.5322(5) 0.1900(4) -0.1459(4) 0.1637 Uani
C6Z C 0.4678(5) -0.1900(4) 0.1459(4) 0.1637 Uani
C6H C 0.5322(5) -0.1900(4) 0.1459(4) 0.1637 Uani
C6I C 0.4678(5) -0.1900(4) -0.1459(4) 0.1637 Uani
C6P C 0.5322(5) -0.1900(4) -0.1459(4) 0.1637 Uani
C7Y C 0.5736(5) 0.2062(4) 0.1762(3) 0.1410 Uani
C7X C 0.4264(5) 0.2062(4) -0.1762(3) 0.1410 Uani
C7J C 0.5736(5) 0.2062(4) -0.1762(3) 0.1410 Uani
C7Z C 0.4264(5) -0.2062(4) 0.1762(3) 0.1410 Uani
C7H C 0.5736(5) -0.2062(4) 0.1762(3) 0.1410 Uani
C7I C 0.4264(5) -0.2062(4) -0.1762(3) 0.1410 Uani
C7P C 0.5736(5) -0.2062(4) -0.1762(3) 0.1410 Uani
H3Y H 0.5605 0.2232 0.2025 0.1690 Uiso
H3J H 0.5605 0.2232 -0.2025 0.1690 Uiso
H3X H 0.4395 0.2232 -0.2025 0.1690 Uiso
H3Z H 0.4395 -0.2232 0.2025 0.1690 Uiso
H3H H 0.5605 -0.2232 0.2025 0.1690 Uiso
H3I H 0.4395 -0.2232 -0.2025 0.1690 Uiso
H3P H 0.5605 -0.2232 -0.2025 0.1690 Uiso
C8Z C 0.5000 -0.1534(4) 0.0000 0.3000 Uani
H4Z H 0.5000 -0.1947 0.0000 0.3590 Uiso
C9X C 0.5000 0.1226(4) -0.03871(18) 0.2437 Uani
C9Z C 0.5000 -0.1226(4) 0.03871(18) 0.2437 Uani
C9P C 0.5000 -0.1226(4) -0.03871(18) 0.2437 Uani
C10X C 0.5000 0.0620(4) -0.03883(17) 0.1360 Uani
C10Z C 0.5000 -0.0620(4) 0.03883(17) 0.1360 Uani
C10P C 0.5000 -0.0620(4) -0.03883(17) 0.1360 Uani
H5X H 0.5000 0.0414 -0.0655 0.1630 Uiso
H5P H 0.5000 -0.0414 -0.0655 0.1630 Uiso
H5Z H 0.5000 -0.0414 0.0655 0.1630 Uiso
C11Z C 0.5000 -0.0314(4) 0.0000 0.1663 Uani
loop_
_atom_site_aniso_label
_atom_site_aniso_U_11
_atom_site_aniso_U_22
_atom_site_aniso_U_33
_atom_site_aniso_U_23
_atom_site_aniso_U_13
_atom_site_aniso_U_12
Cu1 0.1220(14) 0.1220(14) 0.158(2) -0.0335(9) -0.0335(9) 0.0088(14)
O1 0.116(6) 0.174(8) 0.193(8) -0.024(7) -0.043(5) -0.028(6)
O2 0.082(5) 0.176(8) 0.247(9) -0.024(6) -0.045(7) -0.010(6)
O3 0.175(6) 0.175(6) 0.184(9) -0.057(6) -0.057(6) -0.003(9)
N1 0.276(11) 0.277(11) 0.271(10) -0.007(5) 0.000 0.000
C1 0.084(9) 0.140(11) 0.142(9) -0.012(8) -0.004(9) 0.054(9)
C2 0.161(13) 0.205(14) 0.126(9) -0.031(8) -0.022(10) -0.009(11)
C3 0.222(8) 0.242(8) 0.232(8) -0.012(5) 0.000(5) 0.005(5)
C4 0.312(12) 0.317(12) 0.314(11) -0.007(5) -0.002(5) -0.001(5)
C5 0.243(9) 0.255(9) 0.252(9) -0.009(5) 0.006(5) -0.001(5)
C6 0.162(6) 0.170(6) 0.159(6) -0.020(4) -0.005(4) -0.005(4)
C7 0.118(9) 0.181(11) 0.124(8) -0.037(7) 0.002(8) -0.020(8)
C8 0.30(2) 0.30(2) 0.30(2) 0.000 0.000 0.000
C9 0.243(11) 0.246(11) 0.242(11) 0.001(5) 0.000 0.000
C10 0.134(7) 0.142(7) 0.132(7) -0.006(5) 0.000 0.000
C11 0.164(10) 0.170(10) 0.165(9) 0.000 0.000 0.000
Cu1A 0.122 0.122 0.158 -0.0335 0.0335 -0.0088
Cu1C 0.122 0.122 0.158 0.0335 0.0335 0.0088
Cu1R 0.122 0.122 0.158 0.0335 -0.0335 -0.0088
Cu1T 0.122 0.122 0.158 -0.0335 -0.0335 0.0088
Cu1U 0.122 0.122 0.158 -0.0335 0.0335 -0.0088
Cu1W 0.122 0.122 0.158 0.0335 0.0335 0.0088
Cu1F 0.122 0.122 0.158 0.0335 -0.0335 -0.0088
Cu1B 0.122 0.122 0.158 0.0335 -0.0335 -0.0088
Cu1V 0.122 0.122 0.158 0.0335 -0.0335 -0.0088
Cu1S 0.122 0.122 0.158 0.0335 0.0335 0.0088
Cu1G 0.122 0.122 0.158 0.0335 0.0335 0.0088
Cu1Q 0.122 0.122 0.158 -0.0335 0.0335 -0.0088
Cu1E 0.122 0.122 0.158 -0.0335 0.0335 -0.0088
Cu1P 0.122 0.122 0.158 -0.0335 -0.0335 0.0088
Cu1D 0.122 0.122 0.158 -0.0335 -0.0335 0.0088
O1Y 0.116 0.174 0.193 -0.024 0.043 0.028
O1X 0.116 0.174 0.193 0.024 0.043 -0.028
O1J 0.116 0.174 0.193 0.024 -0.043 0.028
O1Z 0.116 0.174 0.193 0.024 -0.043 0.028
O1H 0.116 0.174 0.193 0.024 0.043 -0.028
O1I 0.116 0.174 0.193 -0.024 0.043 0.028
O1P 0.116 0.174 0.193 -0.024 -0.043 -0.028
O1AA 0.174 0.116 0.193 -0.043 -0.024 -0.028
O1A 0.174 0.116 0.193 -0.043 0.024 0.028
O1C 0.174 0.116 0.193 0.043 0.024 -0.028
O1R 0.174 0.116 0.193 0.043 -0.024 0.028
O2Y 0.082 0.176 0.247 -0.024 0.045 0.01
O2X 0.082 0.176 0.247 0.024 0.045 -0.01
O2J 0.082 0.176 0.247 0.024 -0.045 0.01
O2Z 0.082 0.176 0.247 0.024 -0.045 0.01
O2H 0.082 0.176 0.247 0.024 0.045 -0.01
O2I 0.082 0.176 0.247 -0.024 0.045 0.01
O2P 0.082 0.176 0.247 -0.024 -0.045 -0.01
O2T 0.082 0.176 0.247 -0.024 -0.045 -0.01
O2O 0.176 0.082 0.247 -0.045 -0.024 -0.01
O2M 0.082 0.176 0.247 -0.024 0.045 0.01
O2U 0.176 0.082 0.247 -0.045 0.024 0.01
O2L 0.082 0.176 0.247 0.024 0.045 -0.01
O2W 0.176 0.082 0.247 0.045 0.024 -0.01
O2DA 0.082 0.176 0.247 0.024 -0.045 0.01
O2F 0.176 0.082 0.247 0.045 -0.024 0.01
O3A 0.175 0.175 0.184 -0.057 0.057 0.003
O3C 0.175 0.175 0.184 0.057 0.057 -0.003
O3R 0.175 0.175 0.184 0.057 -0.057 0.003
N1X 0.276 0.277 0.271 0.007 0 0
N1Z 0.276 0.277 0.271 0.007 0 0
N1P 0.276 0.277 0.271 -0.007 0 0
C1Y 0.084 0.14 0.142 -0.012 0.004 -0.054
C1X 0.084 0.14 0.142 0.012 0.004 0.054
C1J 0.084 0.14 0.142 0.012 -0.004 -0.054
C1Z 0.084 0.14 0.142 0.012 -0.004 -0.054
C1H 0.084 0.14 0.142 0.012 0.004 0.054
C1I 0.084 0.14 0.142 -0.012 0.004 -0.054
C1P 0.084 0.14 0.142 -0.012 -0.004 0.054
C2Y 0.161 0.205 0.126 -0.031 0.022 0.009
C2X 0.161 0.205 0.126 0.031 0.022 -0.009
C2J 0.161 0.205 0.126 0.031 -0.022 0.009
C2Z 0.161 0.205 0.126 0.031 -0.022 0.009
C2H 0.161 0.205 0.126 0.031 0.022 -0.009
C2I 0.161 0.205 0.126 -0.031 0.022 0.009
C2P 0.161 0.205 0.126 -0.031 -0.022 -0.009
C3Y 0.222 0.242 0.232 -0.012 0 -0.005
C3X 0.222 0.242 0.232 0.012 0 0.005
C3J 0.222 0.242 0.232 0.012 0 -0.005
C3Z 0.222 0.242 0.232 0.012 0 -0.005
C3H 0.222 0.242 0.232 0.012 0 0.005
C3I 0.222 0.242 0.232 -0.012 0 -0.005
C3P 0.222 0.242 0.232 -0.012 0 0.005
C4Y 0.312 0.317 0.314 -0.007 0.002 0.001
C4X 0.312 0.317 0.314 0.007 0.002 -0.001
C4J 0.312 0.317 0.314 0.007 -0.002 0.001
C4Z 0.312 0.317 0.314 0.007 -0.002 0.001
C4H 0.312 0.317 0.314 0.007 0.002 -0.001
C4I 0.312 0.317 0.314 -0.007 0.002 0.001
C4P 0.312 0.317 0.314 -0.007 -0.002 -0.001
C5Y 0.243 0.255 0.252 -0.009 -0.006 0.001
C5X 0.243 0.255 0.252 0.009 -0.006 -0.001
C5J 0.243 0.255 0.252 0.009 0.006 0.001
C5Z 0.243 0.255 0.252 0.009 0.006 0.001
C5H 0.243 0.255 0.252 0.009 -0.006 -0.001
C5I 0.243 0.255 0.252 -0.009 -0.006 0.001
C5P 0.243 0.255 0.252 -0.009 0.006 -0.001
C6Y 0.162 0.17 0.159 -0.02 0.005 0.005
C6X 0.162 0.17 0.159 0.02 0.005 -0.005
C6J 0.162 0.17 0.159 0.02 -0.005 0.005
C6Z 0.162 0.17 0.159 0.02 -0.005 0.005
C6H 0.162 0.17 0.159 0.02 0.005 -0.005
C6I 0.162 0.17 0.159 -0.02 0.005 0.005
C6P 0.162 0.17 0.159 -0.02 -0.005 -0.005
C7Y 0.118 0.181 0.124 -0.037 -0.002 0.02
C7X 0.118 0.181 0.124 0.037 -0.002 -0.02
C7J 0.118 0.181 0.124 0.037 0.002 0.02
C7Z 0.118 0.181 0.124 0.037 0.002 0.02
C7H 0.118 0.181 0.124 0.037 -0.002 -0.02
C7I 0.118 0.181 0.124 -0.037 -0.002 0.02
C7P 0.118 0.181 0.124 -0.037 0.002 -0.02
C8Z 0.3 0.3 0.3 0 0 0
C9X 0.243 0.246 0.242 -0.001 0 0
C9Z 0.243 0.246 0.242 -0.001 0 0
C9P 0.243 0.246 0.242 0.001 0 0
C10X 0.134 0.142 0.132 0.006 0 0
C10Z 0.134 0.142 0.132 0.006 0 0
C10P 0.134 0.142 0.132 -0.006 0 0
C11Z 0.164 0.17 0.165 0 0 0
loop_
_geom_bond_atom_site_label_1
_geom_bond_atom_site_label_2
_geom_bond_site_symmetry_1
_geom_bond_site_symmetry_2
Cu1 O1 1_555 1_555
O1 C1 1_555 1_555
O2 C1 1_555 1_555
O3 Cu1 1_555 1_555
N1 C5 1_555 1_555
C1 C2 1_555 1_555
C2 C3 1_555 1_555
C3 H1 1_555 1_555
C4 C3 1_555 1_555
H2 C4 1_555 1_555
C5 C4 1_555 1_555
C6 C5 1_555 1_555
C7 C2 1_555 1_555
H3 C7 1_555 1_555
C8 H4 1_555 1_555
C9 N1 1_555 1_555
C10 C9 1_555 1_555
H5 C10 1_555 1_555
C11 C10 1_555 1_555
Cu1A O1Y 1_555 1_555
Cu1C O1X 1_555 1_555
Cu1R O1J 1_555 1_555
Cu1T O2 1_555 1_555
Cu1U O2Y 1_555 1_555
Cu1W O2X 1_555 1_555
Cu1F O2J 1_555 1_555
Cu1B O1Z 1_555 1_555
Cu1V O2Z 1_555 1_555
Cu1S O1H 1_555 1_555
Cu1G O2H 1_555 1_555
Cu1Q O1I 1_555 1_555
Cu1E O2I 1_555 1_555
Cu1P O1P 1_555 1_555
Cu1D O2P 1_555 1_555
O1Y C1Y 1_555 1_555
O1X C1X 1_555 1_555
O1J C1J 1_555 1_555
O1Z C1Z 1_555 1_555
O1H C1H 1_555 1_555
O1I C1I 1_555 1_555
O1P C1P 1_555 1_555
O1AA Cu1 1_555 1_555
O1A Cu1A 1_555 1_555
O1C Cu1C 1_555 1_555
O1R Cu1R 1_555 1_555
O2Y C1Y 1_555 1_555
O2X C1X 1_555 1_555
O2J C1J 1_555 1_555
O2Z C1Z 1_555 1_555
O2H C1H 1_555 1_555
O2I C1I 1_555 1_555
O2P C1P 1_555 1_555
O2T Cu1 1_555 1_555
O2O Cu1 1_555 1_555
O2M Cu1A 1_555 1_555
O2U Cu1A 1_555 1_555
O2L Cu1C 1_555 1_555
O2W Cu1C 1_555 1_555
O2DA Cu1R 1_555 1_555
O2F Cu1R 1_555 1_555
O3A Cu1A 1_555 1_555
O3C Cu1C 1_555 1_555
O3R Cu1R 1_555 1_555
N1X C5X 1_555 1_555
N1Z C5Z 1_555 1_555
N1P C5I 1_555 1_555
C1Y C2Y 1_555 1_555
C1X C2X 1_555 1_555
C1J C2J 1_555 1_555
C1Z C2Z 1_555 1_555
C1H C2H 1_555 1_555
C1I C2I 1_555 1_555
C1P C2P 1_555 1_555
C2Y C3Y 1_555 1_555
C2X C3X 1_555 1_555
C2J C3J 1_555 1_555
C2Z C3Z 1_555 1_555
C2H C3H 1_555 1_555
C2I C3I 1_555 1_555
C2P C3P 1_555 1_555
C3Y H1Y 1_555 1_555
C3X H1X 1_555 1_555
C3J H1J 1_555 1_555
C3Z H1Z 1_555 1_555
C3H H1H 1_555 1_555
C3I H1I 1_555 1_555
C3P H1P 1_555 1_555
C4Y C3Y 1_555 1_555
C4X C3X 1_555 1_555
C4J C3J 1_555 1_555
C4Z C3Z 1_555 1_555
C4H C3H 1_555 1_555
C4I C3I 1_555 1_555
C4P C3P 1_555 1_555
H2Y C4Y 1_555 1_555
H2J C4J 1_555 1_555
H2X C4X 1_555 1_555
H2Z C4Z 1_555 1_555
H2H C4H 1_555 1_555
H2I C4I 1_555 1_555
H2P C4P 1_555 1_555
C5Y N1 1_555 1_555
C5X C4X 1_555 1_555
C5J N1X 1_555 1_555
C5Z C4Z 1_555 1_555
C5H N1Z 1_555 1_555
C5I C4I 1_555 1_555
C5P N1P 1_555 1_555
C6Y C6 1_555 1_555
C6X C5X 1_555 1_555
C6J C5J 1_555 1_555
C6Z C5Z 1_555 1_555
C6H C5H 1_555 1_555
C6I C5I 1_555 1_555
C6P C5P 1_555 1_555
C7Y C2Y 1_555 1_555
C7X C2X 1_555 1_555
C7J C2J 1_555 1_555
C7Z C2Z 1_555 1_555
C7H C2H 1_555 1_555
C7I C2I 1_555 1_555
C7P C2P 1_555 1_555
H3Y C7Y 1_555 1_555
H3J C7J 1_555 1_555
H3X C7X 1_555 1_555
H3Z C7Z 1_555 1_555
H3H C7H 1_555 1_555
H3I C7I 1_555 1_555
H3P C7P 1_555 1_555
C8Z H4Z 1_555 1_555
C9X C8 1_555 1_555
C9Z N1Z 1_555 1_555
C9P N1P 1_555 1_555
C10X C11 1_555 1_555
C10Z C9Z 1_555 1_555
C10P C9P 1_555 1_555
H5X C10X 1_555 1_555
H5P C10P 1_555 1_555
H5Z C10Z 1_555 1_555
C11Z C11 1_555 1_555
C6 C7 1_555 1_555
C8 C9 1_555 1_555
N1X C9X 1_555 1_555
C4Y C5Y 1_555 1_555
C4J C5J 1_555 1_555
C4H C5H 1_555 1_555
C4P C5P 1_555 1_555
C5Y C6Y 1_555 1_555
C6Y C7Y 1_555 1_555
C6X C6J 1_555 1_555
C6X C7X 1_555 1_555
C6J C7J 1_555 1_555
C6Z C6H 1_555 1_555
C6Z C7Z 1_555 1_555
C6H C7H 1_555 1_555
C6I C6P 1_555 1_555
C6I C7I 1_555 1_555
C6P C7P 1_555 1_555
C8Z C9Z 1_555 1_555
C8Z C9P 1_555 1_555
C9X C10X 1_555 1_555
C10Z C11Z 1_555 1_555
C10P C11Z 1_555 1_555

#END
