
#######################################################################
#
#                 Cambridge Crystallographic Data Centre
#                                CCDC 
#
#######################################################################
#
# If this CIF has been generated from an entry in the Cambridge 
# Structural Database, then it will include bibliographic, chemical, 
# crystal, experimental, refinement or atomic coordinate data resulting 
# from the CCDC's data processing and validation procedures.
#
#######################################################################

data_MIZPUI
_chemical_formula_moiety         '(C18 H20 B10 Cu2 O10)n'
_chemical_name_systematic        
'catena-((\m~8~-1,12-bis(3,5-Dicarboxylatophenyl)-1,12-dicarba-closo-dodecaborane)-aqua-di-copper unknown solvate)'
_symmetry_cell_setting           rhombohedral
_symmetry_space_group_name_H-M   'R -3 m'
_symmetry_Int_Tables_number      166
_space_group_name_Hall           '-R 3 2"'
loop_
_symmetry_equiv_pos_site_id
_symmetry_equiv_pos_as_xyz
1 x,y,z
2 -y,x-y,z
3 -x+y,-x,z
4 x-y,-y,-z
5 -x,-x+y,-z
6 y,x,-z
7 2/3+x,1/3+y,1/3+z
8 2/3-y,1/3+x-y,1/3+z
9 2/3-x+y,1/3-x,1/3+z
10 2/3+x-y,1/3-y,1/3-z
11 2/3-x,1/3-x+y,1/3-z
12 2/3+y,1/3+x,1/3-z
13 1/3+x,2/3+y,2/3+z
14 1/3-y,2/3+x-y,2/3+z
15 1/3-x+y,2/3-x,2/3+z
16 1/3+x-y,2/3-y,2/3-z
17 1/3-x,2/3-x+y,2/3-z
18 1/3+y,2/3+x,2/3-z
19 -x,-y,-z
20 y,-x+y,-z
21 x-y,x,-z
22 -x+y,y,z
23 x,x-y,z
24 -y,-x,z
25 1/3-x,2/3-y,2/3-z
26 1/3+y,2/3-x+y,2/3-z
27 1/3+x-y,2/3+x,2/3-z
28 1/3-x+y,2/3+y,2/3+z
29 1/3+x,2/3+x-y,2/3+z
30 1/3-y,2/3-x,2/3+z
31 2/3-x,1/3-y,1/3-z
32 2/3+y,1/3-x+y,1/3-z
33 2/3+x-y,1/3+x,1/3-z
34 2/3-x+y,1/3+y,1/3+z
35 2/3+x,1/3+x-y,1/3+z
36 2/3-y,1/3-x,1/3+z
_cell_length_a                   18.6953(7)
_cell_length_b                   18.6953(7)
_cell_length_c                   39.1379(17)
_cell_angle_alpha                90
_cell_angle_beta                 90
_cell_angle_gamma                120
_cell_volume                     11846.6
_exptl_crystal_colour            blue
_exptl_crystal_description       prism
_cell_formula_units_Z            9
_exptl_crystal_recrystallization_method dimethylformamide/water
loop_
_atom_site_label
_atom_site_type_symbol
_atom_site_fract_x
_atom_site_fract_y
_atom_site_fract_z
_atom_site_U_iso_or_equiv
_atom_site_thermal_displace_type
Cu1 Cu 0.85645(3) 0.14355(3) 0.13826(2) 0.0547 Uani
O1 O 0.9622(3) 0.1837(3) 0.16098(10) 0.0672 Uani
O2 O 0.9237(3) 0.2234(3) 0.20897(10) 0.0688 Uani
O3 O 0.8859(3) 0.1141(3) 0.08916(17) 0.0984 Uani
H1 H 0.9106(12) 0.0894(12) 0.083(3) 0.1480 Uiso
H2 H 0.871(3) 0.129(3) 0.071(2) 0.1480 Uiso
C1 C 0.9735(4) 0.2123(4) 0.19099(14) 0.0631 Uani
C2 C 1.0532(4) 0.2339(4) 0.20786(15) 0.0626 Uani
C3 C 1.0684(4) 0.2616(4) 0.24118(15) 0.0632 Uani
H3 H 1.0289 0.2708 0.2526 0.0760 Uiso
C4 C 1.1381(3) 0.2763(6) 0.2584(2) 0.0663 Uani
C5 C 1.1094(3) 0.2188(6) 0.19121(18) 0.0591 Uani
H4 H 1.0991 0.1983 0.1685 0.0710 Uiso
C6 C 1.1521(3) 0.3043(7) 0.2955(2) 0.0677 Uani
B1 B 1.2026(7) 0.4051(13) 0.3040(3) 0.1309 Uani
H5 H 1.2270 0.4541 0.2838 0.1570 Uiso
B2 B 1.2478(7) 0.3449(11) 0.3124(3) 0.1261 Uani
H6 H 1.3032 0.3531 0.2980 0.1520 Uiso
B3 B 1.1717(10) 0.2520(9) 0.3230(3) 0.1254 Uani
H7 H 1.1741 0.1952 0.3160 0.1500 Uiso
O1O O 1.1118(4) 0.4830(3) 0.50569(10) 0.0672 Uani
O2O O 1.0336(4) 0.4433(3) 0.45770(10) 0.0688 Uani
C1O C 1.0945(6) 0.4544(4) 0.47568(14) 0.0631 Uani
C2O C 1.1526(6) 0.4328(4) 0.45881(15) 0.0626 Uani
C3O C 1.1401(6) 0.4051(4) 0.42549(15) 0.0632 Uani
H3O H 1.0914 0.3959 0.4141 0.0760 Uiso
C4O C 1.1951(7) 0.3904(6) 0.4083(2) 0.0663 Uani
C5O C 1.2239(7) 0.4479(6) 0.47546(18) 0.0591 Uani
H4O H 1.2341 0.4684 0.4982 0.0710 Uiso
C6O C 1.1811(8) 0.3624(7) 0.3712(2) 0.0677 Uani
B1O B 1.1308(15) 0.2616(13) 0.3627(3) 0.1309 Uani
H5O H 1.1062 0.2126 0.3829 0.1570 Uiso
B2O B 1.2362(13) 0.3218(11) 0.3543(3) 0.1261 Uani
H6O H 1.2834 0.3136 0.3687 0.1520 Uiso
B3O B 1.2530(13) 0.4147(9) 0.3437(3) 0.1254 Uani
H7O H 1.3122 0.4715 0.3507 0.1500 Uiso
O1U O 1.2215(4) 0.1837(3) 0.16098(10) 0.0672 Uani
O2U O 1.2997(4) 0.2234(3) 0.20897(10) 0.0688 Uani
C1U C 1.2388(6) 0.2123(4) 0.19099(14) 0.0631 Uani
C2U C 1.1807(6) 0.2339(4) 0.20786(15) 0.0626 Uani
C3U C 1.1932(6) 0.2616(4) 0.24118(15) 0.0632 Uani
H3U H 1.2419 0.2708 0.2526 0.0760 Uiso
B2U B 1.0971(13) 0.3449(11) 0.3124(3) 0.1261 Uani
H6U H 1.0499 0.3531 0.2980 0.1520 Uiso
B3U B 1.0803(13) 0.2520(9) 0.3230(3) 0.1254 Uani
H7U H 1.0211 0.1952 0.3160 0.1500 Uiso
O1X O 1.3711(3) 0.4830(3) 0.50569(10) 0.0672 Uani
O2X O 1.4096(3) 0.4433(3) 0.45770(10) 0.0688 Uani
C1X C 1.3598(4) 0.4544(4) 0.47568(14) 0.0631 Uani
C2X C 1.2801(4) 0.4328(4) 0.45881(15) 0.0626 Uani
C3X C 1.2649(4) 0.4051(4) 0.42549(15) 0.0632 Uani
H3X H 1.3044 0.3959 0.4141 0.0760 Uiso
B2X B 1.0855(7) 0.3218(11) 0.3543(3) 0.1261 Uani
H6X H 1.0301 0.3136 0.3687 0.1520 Uiso
B3X B 1.1616(10) 0.4147(9) 0.3437(3) 0.1254 Uani
H7X H 1.1592 0.4715 0.3507 0.1500 Uiso
Cu1K Cu 0.81022(3) 0.18978(3) 0.19507(2) 0.0547 Uani
O3K O 0.7808(3) 0.2192(3) 0.24417(17) 0.0984 Uani
H1K H 0.7561(12) 0.2439(12) 0.250(3) 0.1480 Uiso
H2K H 0.796(3) 0.204(3) 0.262(2) 0.1480 Uiso
Cu1B Cu 1.28710(4) 0.14355(3) 0.13826(2) 0.0547 Uani
Cu1F Cu 1.52312(3) 0.47688(3) 0.47159(2) 0.0547 Uani
Cu1H Cu 0.95377(4) 0.47688(3) 0.47159(2) 0.0547 Uani
Cu1I Cu 1.37957(4) 0.18978(3) 0.19507(2) 0.0547 Uani
Cu1O Cu 1.04623(4) 0.52312(3) 0.52841(2) 0.0547 Uani
Cu1Q Cu 1.47688(3) 0.52312(3) 0.52841(2) 0.0547 Uani
O1K O 0.8504(3) 0.2955(3) 0.17235(10) 0.0672 Uani
O1W O 0.8163(3) 0.0378(3) 0.16098(10) 0.0672 Uani
O1DA O 0.7045(3) 0.1496(3) 0.17235(10) 0.0672 Uani
O2K O 0.8901(3) 0.2570(3) 0.12436(10) 0.0688 Uani
O2W O 0.7766(3) 0.0763(3) 0.20897(10) 0.0688 Uani
O2DA O 0.7430(3) 0.1099(3) 0.12436(10) 0.0688 Uani
loop_
_atom_site_aniso_label
_atom_site_aniso_U_11
_atom_site_aniso_U_22
_atom_site_aniso_U_33
_atom_site_aniso_U_23
_atom_site_aniso_U_13
_atom_site_aniso_U_12
Cu1 0.0786(9) 0.0786(9) 0.0300(10) -0.00111(19) 0.00111(19) 0.0567(7)
O1 0.080(3) 0.099(3) 0.039(2) -0.0139(19) -0.0090(18) 0.057(2)
O2 0.076(2) 0.109(3) 0.045(2) -0.013(2) -0.0068(19) 0.064(2)
O3 0.130(5) 0.130(5) 0.058(4) -0.0204(19) 0.0204(19) 0.082(5)
C1 0.096(4) 0.092(4) 0.040(3) 0.003(3) 0.000(3) 0.076(4)
C2 0.084(4) 0.082(4) 0.041(3) -0.009(3) -0.004(3) 0.056(3)
C3 0.071(3) 0.092(4) 0.047(3) -0.010(3) -0.002(3) 0.056(3)
C4 0.068(3) 0.098(6) 0.043(5) -0.019(4) -0.010(2) 0.049(3)
C5 0.068(3) 0.088(5) 0.028(4) -0.001(4) -0.0003(18) 0.044(3)
C6 0.063(3) 0.109(7) 0.047(5) -0.026(5) -0.013(2) 0.055(3)
B1 0.208(19) 0.116(11) 0.038(7) -0.008(6) -0.004(3) 0.058(6)
B2 0.081(6) 0.232(15) 0.069(6) -0.056(8) -0.014(5) 0.081(8)
B3 0.216(14) 0.159(10) 0.059(5) -0.026(6) -0.035(7) 0.137(11)
O1O 0.065 0.099 0.039 -0.0139 -0.0049 0.042
O2O 0.057 0.109 0.045 -0.013 -0.0062 0.045
C1O 0.036 0.092 0.04 0.003 0.003 0.016
C2O 0.054 0.082 0.041 -0.009 -0.005 0.026
C3O 0.051 0.092 0.047 -0.01 -0.008 0.036
C4O 0.068 0.098 0.043 -0.019 -0.009 0.049
C5O 0.068 0.088 0.028 -0.001 -0.0007 0.044
C6O 0.062 0.109 0.047 -0.026 -0.013 0.054
B1O 0.208 0.116 0.038 -0.008 -0.004 0.058
B2O 0.151 0.232 0.069 -0.056 -0.042 0.151
B3O 0.101 0.159 0.059 -0.026 0.009 0.022
O1U 0.065 0.099 0.039 -0.0139 -0.0049 0.042
O2U 0.057 0.109 0.045 -0.013 -0.0062 0.045
C1U 0.036 0.092 0.04 0.003 0.003 0.016
C2U 0.054 0.082 0.041 -0.009 -0.005 0.026
C3U 0.051 0.092 0.047 -0.01 -0.008 0.036
B2U 0.151 0.232 0.069 -0.056 -0.042 0.151
B3U 0.101 0.159 0.059 -0.026 0.009 0.022
O1X 0.08 0.099 0.039 -0.0139 -0.009 0.057
O2X 0.076 0.109 0.045 -0.013 -0.0068 0.064
C1X 0.096 0.092 0.04 0.003 0 0.076
C2X 0.084 0.082 0.041 -0.009 -0.004 0.056
C3X 0.071 0.092 0.047 -0.01 -0.002 0.056
B2X 0.081 0.232 0.069 -0.056 -0.014 0.081
B3X 0.216 0.159 0.059 -0.026 -0.035 0.137
Cu1K 0.0786 0.0786 0.03 -0.00111 0.00111 0.0567
O3K 0.13 0.13 0.058 -0.0204 0.0204 0.082
Cu1B 0.0438 0.0786 0.03 -0.00111 -0.00222 0.0219
Cu1F 0.0786 0.0786 0.03 -0.00111 0.00111 0.0567
Cu1H 0.0438 0.0786 0.03 -0.00111 -0.00222 0.0219
Cu1I 0.0438 0.0786 0.03 -0.00111 -0.00222 0.0219
Cu1O 0.0438 0.0786 0.03 -0.00111 -0.00222 0.0219
Cu1Q 0.0786 0.0786 0.03 -0.00111 0.00111 0.0567
O1K 0.099 0.08 0.039 0.009 0.0139 0.057
O1W 0.099 0.08 0.039 0.009 0.0139 0.057
O1DA 0.08 0.099 0.039 -0.0139 -0.009 0.057
O2K 0.109 0.076 0.045 0.0068 0.013 0.064
O2W 0.109 0.076 0.045 0.0068 0.013 0.064
O2DA 0.076 0.109 0.045 -0.013 -0.0068 0.064
loop_
_geom_bond_atom_site_label_1
_geom_bond_atom_site_label_2
_geom_bond_site_symmetry_1
_geom_bond_site_symmetry_2
Cu1 O1 1_555 1_555
O1 C1 1_555 1_555
O2 C1 1_555 1_555
O3 Cu1 1_555 1_555
H1 O3 1_555 1_555
H2 O3 1_555 1_555
C1 C2 1_555 1_555
C2 C3 1_555 1_555
C3 H3 1_555 1_555
C4 C3 1_555 1_555
C5 C2 1_555 1_555
H4 C5 1_555 1_555
C6 C4 1_555 1_555
B1 C6 1_555 1_555
H5 B1 1_555 1_555
B2 C6 1_555 1_555
H6 B2 1_555 1_555
B3 C6 1_555 1_555
H7 B3 1_555 1_555
O1O C1O 1_555 1_555
O2O C1O 1_555 1_555
C1O C2O 1_555 1_555
C2O C3O 1_555 1_555
C3O H3O 1_555 1_555
C4O C3O 1_555 1_555
C5O C2O 1_555 1_555
H4O C5O 1_555 1_555
C6O C4O 1_555 1_555
B1O B3 1_555 1_555
H5O B1O 1_555 1_555
B2O B2 1_555 1_555
H6O B2O 1_555 1_555
B3O B1 1_555 1_555
H7O B3O 1_555 1_555
O1U C1U 1_555 1_555
O2U C1U 1_555 1_555
C1U C2U 1_555 1_555
C2U C5 1_555 1_555
C3U C4 1_555 1_555
H3U C3U 1_555 1_555
B2U C6 1_555 1_555
H6U B2U 1_555 1_555
B3U C6 1_555 1_555
H7U B3U 1_555 1_555
O1X C1X 1_555 1_555
O2X C1X 1_555 1_555
C1X C2X 1_555 1_555
C2X C5O 1_555 1_555
C3X C4O 1_555 1_555
H3X C3X 1_555 1_555
B2X C6O 1_555 1_555
H6X B2X 1_555 1_555
B3X B1 1_555 1_555
H7X B3X 1_555 1_555
Cu1K O2 1_555 1_555
O3K Cu1K 1_555 1_555
H1K O3K 1_555 1_555
H2K O3K 1_555 1_555
Cu1B O1U 1_555 1_555
Cu1F O2X 1_555 1_555
Cu1H O2O 1_555 1_555
Cu1I O2U 1_555 1_555
Cu1O O1O 1_555 1_555
Cu1Q O1X 1_555 1_555
O1K Cu1K 1_555 1_555
O1W Cu1 1_555 1_555
O1DA Cu1K 1_555 1_555
O2K Cu1 1_555 1_555
O2W Cu1K 1_555 1_555
O2DA Cu1 1_555 1_555
B1 B2 1_555 1_555
B1 B2U 1_555 1_555
B2 B3 1_555 1_555
B2 B3O 1_555 1_555
B3 B2O 1_555 1_555
B3 B3U 1_555 1_555
C6O B1O 1_555 1_555
C6O B2O 1_555 1_555
C6O B3O 1_555 1_555
C6O B3X 1_555 1_555
B1O B2O 1_555 1_555
B1O B3U 1_555 1_555
B1O B2X 1_555 1_555
B2O B3O 1_555 1_555
B3O B3X 1_555 1_555
C2U C3U 1_555 1_555
B2U B3U 1_555 1_555
B2U B2X 1_555 1_555
B2U B3X 1_555 1_555
B3U B2X 1_555 1_555
C2X C3X 1_555 1_555
B2X B3X 1_555 1_555

#END
