
#######################################################################
#
#                 Cambridge Crystallographic Data Centre
#                                CCDC 
#
#######################################################################
#
# If this CIF has been generated from an entry in the Cambridge 
# Structural Database, then it will include bibliographic, chemical, 
# crystal, experimental, refinement or atomic coordinate data resulting 
# from the CCDC's data processing and validation procedures.
#
#######################################################################

data_NADKIO
_chemical_formula_moiety         '(C21 H42 N6 O18 P6 Y2)n'
_chemical_name_systematic        
catena-(tris(\m~4~-((2-Methylpiperazine-1,4-diyl)bis(methylene))bis(phosphonato))-di-yttrium)
_symmetry_cell_setting           trigonal
_symmetry_space_group_name_H-M   'P -3'
_symmetry_Int_Tables_number      147
_space_group_name_Hall           '-P 3'
loop_
_symmetry_equiv_pos_site_id
_symmetry_equiv_pos_as_xyz
1 x,y,z
2 -y,x-y,z
3 -x+y,-x,z
4 -x,-y,-z
5 y,-x+y,-z
6 x-y,x,-z
_cell_length_a                   16.1352(4)
_cell_length_b                   16.1352(4)
_cell_length_c                   10.02957(22)
_cell_angle_alpha                90
_cell_angle_beta                 90
_cell_angle_gamma                120
_cell_volume                     2261.32
_exptl_crystal_colour            white
_cell_formula_units_Z            2
loop_
_atom_site_label
_atom_site_type_symbol
_atom_site_fract_x
_atom_site_fract_y
_atom_site_fract_z
_atom_site_U_iso_or_equiv
_atom_site_thermal_displace_type
Y1 Y 0.6667 0.3333 0.3030(4) 0.0252 Uiso
Y2 Y 0.6667 0.3333 -0.2174(4) 0.0252 Uiso
P1 P 0.6008(5) 0.4455(4) 0.0509(6) 0.0252 Uiso
P2 P 0.2087(4) 0.4692(4) 0.4636(7) 0.0252 Uiso
O1 O 0.6594(4) 0.4511(5) 0.1718(5) 0.0252 Uiso
O2 O 0.64115(32) 0.42619(35) -0.0673(5) 0.0252 Uiso
O3 O 0.6142(7) 0.5465(5) 0.0343(9) 0.0252 Uiso
O4 O 0.2174(5) 0.5378(5) 0.5709(7) 0.0252 Uiso
O5 O 0.2442(5) 0.5253(5) 0.3347(7) 0.0252 Uiso
O6 O 0.1017(5) 0.3997(6) 0.4455(9) 0.0252 Uiso
N1 N 0.4253(7) 0.3893(8) 0.1690(8) 0.0252 Uiso
N2 N 0.3370(7) 0.3858(7) 0.4146(7) 0.0252 Uiso
C1 C 0.47402(32) 0.3572(7) 0.0758(9) 0.0252 Uiso
C2 C 0.3365(7) 0.2999(7) 0.2192(10) 0.0252 Uiso
C3 C 0.2788(5) 0.3397(7) 0.2867(9) 0.0252 Uiso
C4 C 0.2738(9) 0.4074(8) 0.5017(9) 0.0252 Uiso
C5 C 0.4265(7) 0.4764(7) 0.3648(11) 0.0252 Uiso
C6 C 0.4831(5) 0.4423(8) 0.2899(12) 0.0252 Uiso
C7 C 0.1836(6) 0.2599(10) 0.3268(17) 0.0252 Uiso
Y1C Y 0.3333 0.6667 0.6970(4) 0.0252 Uiso
Y1D Y 0.3333 -0.3334 0.6970(4) 0.0252 Uiso
Y1E Y 1.3334 0.6667 0.6970(4) 0.0252 Uiso
Y2C Y 0.3333 0.6667 0.2174(4) 0.0252 Uiso
Y2D Y 0.3333 -0.3334 0.2174(4) 0.0252 Uiso
Y2E Y 1.3334 0.6667 0.2174(4) 0.0252 Uiso
P1A P 0.5545(4) 0.1553(6) 0.0509(6) 0.0252 Uiso
P1B P 0.8447(6) 0.3992(5) 0.0509(6) 0.0252 Uiso
P2A P 0.5308(4) -0.2605(6) 0.4636(7) 0.0252 Uiso
P2B P 1.2605(6) 0.7913(4) 0.4636(7) 0.0252 Uiso
O1A O 0.5489(5) 0.2083(6) 0.1718(5) 0.0252 Uiso
O1B O 0.7917(6) 0.3406(4) 0.1718(5) 0.0252 Uiso
O2A O 0.57381(35) 0.21496(47) -0.0673(5) 0.0252 Uiso
O2B O 0.78504(47) 0.35885(32) -0.0673(5) 0.0252 Uiso
O3A O 0.4535(5) 0.0677(9) 0.0343(9) 0.0252 Uiso
O3B O 0.9323(9) 0.3858(7) 0.0343(9) 0.0252 Uiso
O4A O 0.4622(5) -0.3204(7) 0.5709(7) 0.0252 Uiso
O4B O 1.3204(7) 0.7826(5) 0.5709(7) 0.0252 Uiso
O4C O 0.7826(5) 0.4622(5) 0.4291(7) 0.0252 Uiso
O4D O 0.5378(5) 0.3204(7) 0.4291(7) 0.0252 Uiso
O4E O 0.6796(7) 0.2174(5) 0.4291(7) 0.0252 Uiso
O5A O 0.4747(5) -0.2811(7) 0.3347(7) 0.0252 Uiso
O5B O 1.2811(7) 0.7558(5) 0.3347(7) 0.0252 Uiso
O5C O 0.7558(5) 0.4747(5) -0.3347(7) 0.0252 Uiso
O5D O 0.5253(5) 0.2811(7) -0.3347(7) 0.0252 Uiso
O5E O 0.7189(7) 0.2442(5) -0.3347(7) 0.0252 Uiso
O6A O 0.6003(6) -0.2980(8) 0.4455(9) 0.0252 Uiso
O6B O 1.2980(8) 0.8983(5) 0.4455(9) 0.0252 Uiso
N1A N 0.6107(8) 0.0360(11) 0.1690(8) 0.0252 Uiso
N1B N 0.9640(11) 0.5747(7) 0.1690(8) 0.0252 Uiso
N2A N 0.6142(7) -0.0488(10) 0.4146(7) 0.0252 Uiso
N2B N 1.0488(10) 0.6630(7) 0.4146(7) 0.0252 Uiso
C1A C 0.6428(7) 0.11682(77) 0.0758(9) 0.0252 Uiso
C1B C 0.88318(77) 0.52598(32) 0.0758(9) 0.0252 Uiso
C2A C 0.7001(7) 0.0366(10) 0.2192(10) 0.0252 Uiso
C2B C 0.9634(10) 0.6635(7) 0.2192(10) 0.0252 Uiso
C3A C 0.6603(7) -0.0609(9) 0.2867(9) 0.0252 Uiso
C3B C 1.0609(9) 0.7212(5) 0.2867(9) 0.0252 Uiso
C4A C 0.5926(8) -0.1336(12) 0.5017(9) 0.0252 Uiso
C4B C 1.1336(12) 0.7262(9) 0.5017(9) 0.0252 Uiso
C5A C 0.5236(7) -0.0499(10) 0.3648(11) 0.0252 Uiso
C5B C 1.0499(10) 0.5735(7) 0.3648(11) 0.0252 Uiso
C6A C 0.5577(8) 0.0408(9) 0.2899(12) 0.0252 Uiso
C6B C 0.9592(9) 0.5169(5) 0.2899(12) 0.0252 Uiso
C7A C 0.7401(10) -0.0763(12) 0.3268(17) 0.0252 Uiso
C7B C 1.0763(12) 0.8164(6) 0.3268(17) 0.0252 Uiso
C8? C 0.2821(11) 0.2410(12) 0.1012(16) 0.0252 Uiso
loop_
_geom_bond_atom_site_label_1
_geom_bond_atom_site_label_2
_geom_bond_site_symmetry_1
_geom_bond_site_symmetry_2
Y1 O1 1_555 1_555
Y2 O2 1_555 1_555
P1 O1 1_555 1_555
P2 O4 1_555 1_555
O2 P1 1_555 1_555
O3 P1 1_555 1_555
O4 Y1C 1_555 1_555
O5 P2 1_555 1_555
O6 P2 1_555 1_555
N1 C1 1_555 1_555
N2 C3 1_555 1_555
C1 P1 1_555 1_555
C2 N1 1_555 1_555
C3 C2 1_555 1_555
C4 P2 1_555 1_555
C5 N2 1_555 1_555
C6 N1 1_555 1_555
C7 C3 1_555 1_555
Y1D O4A 1_555 1_555
Y1E O4B 1_555 1_555
Y2C O5 1_555 1_555
Y2D O5A 1_555 1_555
Y2E O5B 1_555 1_555
P1A O1A 1_555 1_555
P1B O1B 1_555 1_555
P2A O4A 1_555 1_555
P2B O4B 1_555 1_555
O1A Y1 1_555 1_555
O1B Y1 1_555 1_555
O2A Y2 1_555 1_555
O2B Y2 1_555 1_555
O3A P1A 1_555 1_555
O3B P1B 1_555 1_555
O4C Y1 1_555 1_555
O4D Y1 1_555 1_555
O4E Y1 1_555 1_555
O5A P2A 1_555 1_555
O5B P2B 1_555 1_555
O5C Y2 1_555 1_555
O5D Y2 1_555 1_555
O5E Y2 1_555 1_555
O6A P2A 1_555 1_555
O6B P2B 1_555 1_555
N1A C1A 1_555 1_555
N1B C1B 1_555 1_555
N2A C3A 1_555 1_555
N2B C3B 1_555 1_555
C1A P1A 1_555 1_555
C1B P1B 1_555 1_555
C2A N1A 1_555 1_555
C2B N1B 1_555 1_555
C3A C2A 1_555 1_555
C3B C2B 1_555 1_555
C4A P2A 1_555 1_555
C4B P2B 1_555 1_555
C5A N2A 1_555 1_555
C5B N2B 1_555 1_555
C6A N1A 1_555 1_555
C6B N1B 1_555 1_555
C7A C3A 1_555 1_555
C7B C3B 1_555 1_555
N2 C4 1_555 1_555
C5 C6 1_555 1_555
P1A O2A 1_555 1_555
P1B O2B 1_555 1_555
N2A C4A 1_555 1_555
N2B C4B 1_555 1_555
C5A C6A 1_555 1_555
C5B C6B 1_555 1_555

#END
