
#######################################################################
#
#                 Cambridge Crystallographic Data Centre
#                                CCDC 
#
#######################################################################
#
# If this CIF has been generated from an entry in the Cambridge 
# Structural Database, then it will include bibliographic, chemical, 
# crystal, experimental, refinement or atomic coordinate data resulting 
# from the CCDC's data processing and validation procedures.
#
#######################################################################

data_UMEMAB
_chemical_formula_moiety         '(C4 Cd2 N8 O4)n'
_chemical_name_systematic        
catena-(bis(\m~4~-tetrazaolato-5-carboxylato)-di-cadmium)
_symmetry_cell_setting           orthorhombic
_symmetry_space_group_name_H-M   'P n a 21'
_symmetry_Int_Tables_number      33
_space_group_name_Hall           'P 2c -2n'
loop_
_symmetry_equiv_pos_site_id
_symmetry_equiv_pos_as_xyz
1 x,y,z
2 -x,-y,1/2+z
3 1/2+x,1/2-y,z
4 1/2-x,1/2+y,1/2+z
_cell_length_a                   11.818(1)
_cell_length_b                   8.324(1)
_cell_length_c                   11.915(1)
_cell_angle_alpha                90
_cell_angle_beta                 90
_cell_angle_gamma                90
_cell_volume                     1172.11
_cell_formula_units_Z            4
loop_
_atom_site_label
_atom_site_type_symbol
_atom_site_fract_x
_atom_site_fract_y
_atom_site_fract_z
N1 N 1.352(2) 0.339(3) 0.122(2)
N2 N 1.345(2) 0.49572(3) 0.123(3)
N3 N 1.237(2) 0.5284(3) 0.131(2)
N4 N 1.171(2) 0.400(4) 0.131(1)
N5 N 1.01(2) -0.421(3) -0.0173(2)
N6 N 1.02(2) -0.265(3) -0.0272(2)
N7 N 1.01(2) -0.214(3) -0.131(2)
N8 N 0.988(2) -0.340(3) -0.191(2)
O1 O 1.266(3) -0.011(3) 0.172(3)
O2 O 1.121(3) 0.069(4) 0.0638(4)
O3 O 1.00(3) -0.766(3) -0.102(2)
O4 O 0.976(5) -0.671(3) -0.272(2)
C1 C 1.245(2) 0.274(3) 0.124(1)
C2 C 1.216(3) 0.099(4) 0.125(1)
C3 C 0.995(2) -0.475(3) -0.125(2)
C4 C 0.991(2) -0.647(3) -0.160(2)
Cd1 Cd 1.008(1) -0.117(1) 0.136(2)
Cd2 Cd 1.480(1) 0.122(1) 0.12(2)
N2B N 0.845(2) 0.00428(3) 0.123(3)
N4B N 1.671(2) 0.100(4) 0.131(1)
N5B N 1.51(2) -0.079(3) -0.0173(2)
N8C N 1.512(2) 0.160(3) 0.309(2)
O4A O 1.024(5) -0.329(3) 0.228(2)
Cd1B Cd 1.508(1) 0.617(1) 0.136(2)
Cd1A Cd 0.992(1) -0.883(1) -0.364(2)
Cd2B Cd 0.980(1) 0.378(1) 0.12(2)
Cd2B_2 Cd 0.980(1) -0.622(1) 0.12(2)
Cd2C Cd 1.020(1) -0.378(1) -0.38(2)
loop_
_geom_bond_atom_site_label_1
_geom_bond_atom_site_label_2
_geom_bond_site_symmetry_1
_geom_bond_site_symmetry_2
N1 N2 1_555 1_555
N2 N3 1_555 1_555
N3 N4 1_555 1_555
N4 C1 1_555 1_555
N5 N6 1_555 1_555
N6 N7 1_555 1_555
N7 N8 1_555 1_555
N8 C3 1_555 1_555
O1 C2 1_555 1_555
O2 C2 1_555 1_555
O3 C4 1_555 1_555
O4 C4 1_555 1_555
C1 N1 1_555 1_555
C2 C1 1_555 1_555
C3 N5 1_555 1_555
C4 C3 1_555 1_555
Cd1 N6 1_555 1_555
Cd2 N1 1_555 1_555
N2B Cd1 1_555 1_555
N4B Cd2 1_555 1_555
N5B Cd2 1_555 1_555
N8C Cd2 1_555 1_555
O4A Cd1 1_555 1_555
Cd1B N2 1_555 1_555
Cd1A O4 1_555 1_555
Cd2B N4 1_555 1_555
Cd2B_2 N5 1_555 1_555
Cd2C N8 1_555 1_555
O2 Cd1 1_555 1_555

#END
