
#######################################################################
#
#                 Cambridge Crystallographic Data Centre
#                                CCDC 
#
#######################################################################
#
# If this CIF has been generated from an entry in the Cambridge 
# Structural Database, then it will include bibliographic, chemical, 
# crystal, experimental, refinement or atomic coordinate data resulting 
# from the CCDC's data processing and validation procedures.
#
#######################################################################

data_MANMEU01
_chemical_formula_moiety         '(C16 H16 N2 O4 Zn1)n'
_chemical_name_systematic        
catena-[(\m~2~-Acetato-O,O')-(\m~2~-4,4'-ethene-1,2-diyldipyridine)-(acetato-O,O')-zinc(ii)]
_symmetry_cell_setting           triclinic
_symmetry_space_group_name_H-M   'P -1'
_symmetry_Int_Tables_number      2
_space_group_name_Hall           '-P 1'
loop_
_symmetry_equiv_pos_site_id
_symmetry_equiv_pos_as_xyz
1 x,y,z
2 -x,-y,-z
_cell_length_a                   8.136(4)
_cell_length_b                   9.538(3)
_cell_length_c                   11.052(3)
_cell_angle_alpha                96.29(2)
_cell_angle_beta                 99.13(3)
_cell_angle_gamma                105.73(3)
_cell_volume                     804.497
_exptl_crystal_colour            colorless
_exptl_crystal_description       plate
_cell_formula_units_Z            2
loop_
_atom_site_label
_atom_site_type_symbol
_atom_site_fract_x
_atom_site_fract_y
_atom_site_fract_z
Zn1 Zn 0.16078(9) 0.46016(7) 0.13198(6)
O1 O -0.2538(6) 0.3670(5) -0.0449(4)
O2 O 0.3937(6) 0.4522(5) 0.2308(4)
O3 O -0.0883(6) 0.3497(5) 0.1297(4)
C1 C 0.3652(11) 0.3597(8) 0.2975(7)
O4 O 0.2187(19) 0.284(2) 0.283(2)
C2 C 0.5124(11) 0.3411(10) 0.3836(7)
H1 H 0.6165 0.3712 0.3506
H2 H 0.4893 0.2393 0.3935
H3 H 0.5276 0.4006 0.4628
C3 C -0.2268(9) 0.3149(7) 0.0521(6)
C4 C -0.3769(9) 0.1978(8) 0.0761(7)
H4 H -0.4706 0.2388 0.0853
H5 H -0.3409 0.1625 0.1509
H6 H -0.4156 0.1175 0.0079
C5 C 0.1158(12) -0.0951(9) -0.3978(8)
H7 H 0.0340 -0.1373 -0.3522
C6 C 0.2114(12) 0.0401(8) -0.3543(6)
H8 H 0.2968 0.0835 -0.3968
N1 N 0.1663(12) 0.3063(9) -0.0307(6)
C7 C 0.2951(12) 0.3589(7) -0.0973(8)
H9 H 0.3726 0.4531 -0.0717
C8 C 0.3081(10) 0.2708(8) -0.2020(7)
H10 H 0.3943 0.3060 -0.2466
C9 C 0.1923(10) 0.1300(7) -0.2402(5)
C10 C 0.0635(10) 0.0774(6) -0.1736(6)
H11 H -0.0140 -0.0168 -0.1991
C11 C 0.0505(10) 0.1655(9) -0.0688(6)
H12 H -0.0357 0.1303 -0.0243
N2 N 0.1357(12) -0.3796(7) -0.7173(7)
C12 C 0.2517(10) -0.2382(7) -0.6876(7)
H13 H 0.3336 -0.2072 -0.7363
C13 C 0.2452(10) -0.1431(6) -0.5849(6)
H14 H 0.3228 -0.0485 -0.5650
C14 C 0.1227(10) -0.1895(7) -0.5120(5)
C15 C 0.0067(9) -0.3309(7) -0.5417(6)
H15 H -0.0752 -0.3619 -0.4929
C16 C 0.0132(11) -0.4259(6) -0.6444(7)
H16 H -0.0644 -0.5206 -0.6642
Zn1_2 Zn 0.16078(9) -0.53984(7) -0.86802(6)
Zn1A Zn -0.16078(9) 0.53984(7) -0.13198(6)
O1A O 0.2538(6) 0.6330(5) 0.0449(4)
N2_2 N 0.1357(12) 0.6204(7) 0.2827(7)
C17? C 0.055(2) 0.0623(14) -0.1354(12)
H17? H -0.0227 -0.0312 -0.1417
C18? C 0.157(2) 0.0925(12) -0.2242(10)
C19? C 0.273(2) 0.2322(14) -0.2149(12)
H18? H 0.3416 0.2524 -0.2743
C20? C 0.286(2) 0.3418(13) -0.1169(15)
H19? H 0.3636 0.4353 -0.1106
N3? N 0.184(2) 0.3116(17) -0.0281(13)
C21? C 0.068(2) 0.1719(19) -0.0374(12)
H20? H -0.0007 0.1517 0.0220
C22? C 0.0626(19) -0.2683(15) -0.5459(11)
H21? H -0.0126 -0.2828 -0.4902
C23? C 0.190(2) -0.1340(13) -0.5332(10)
C24? C 0.3026(19) -0.1123(12) -0.6165(13)
H22? H 0.3880 -0.0224 -0.6080
C25? C 0.287(2) -0.2250(15) -0.7125(13)
H23? H 0.3626 -0.2105 -0.7682
N4? N 0.160(3) -0.3593(12) -0.7252(14)
C26? C 0.047(2) -0.3810(11) -0.6419(14)
H24? H -0.0380 -0.4708 -0.6504
C27? C 0.136(2) -0.0244(12) -0.3328(11)
H25? H 0.0618 -0.1174 -0.3321
C28? C 0.212(2) -0.0082(17) -0.4279(10)
H26? H 0.2833 0.0849 -0.4320
O5? O 0.223(5) 0.294(5) 0.344(4)
loop_
_geom_bond_atom_site_label_1
_geom_bond_atom_site_label_2
_geom_bond_site_symmetry_1
_geom_bond_site_symmetry_2
Zn1 O2 1_555 1_555
O1 C3 1_555 1_555
O2 C1 1_555 1_555
O3 Zn1 1_555 1_555
C1 O4 1_555 1_555
O4 Zn1 1_555 1_555
C2 C1 1_555 1_555
H1 C2 1_555 1_555
H2 C2 1_555 1_555
H3 C2 1_555 1_555
C3 O3 1_555 1_555
C4 C3 1_555 1_555
H4 C4 1_555 1_555
H5 C4 1_555 1_555
H6 C4 1_555 1_555
C5 H7 1_555 1_555
C6 C5 1_555 1_555
H8 C6 1_555 1_555
N1 Zn1 1_555 1_555
C7 N1 1_555 1_555
H9 C7 1_555 1_555
C8 C7 1_555 1_555
H10 C8 1_555 1_555
C9 C6 1_555 1_555
C10 C9 1_555 1_555
H11 C10 1_555 1_555
C11 N1 1_555 1_555
H12 C11 1_555 1_555
N2 C12 1_555 1_555
C12 H13 1_555 1_555
C13 C12 1_555 1_555
H14 C13 1_555 1_555
C14 C5 1_555 1_555
C15 C14 1_555 1_555
H15 C15 1_555 1_555
C16 N2 1_555 1_555
H16 C16 1_555 1_555
Zn1_2 N2 1_555 1_555
Zn1A O1 1_555 1_555
O1A Zn1 1_555 1_555
N2_2 Zn1 1_555 1_555
C8 C9 1_555 1_555
C10 C11 1_555 1_555
C13 C14 1_555 1_555
C15 C16 1_555 1_555

#END
