
#######################################################################
#
#                 Cambridge Crystallographic Data Centre
#                                CCDC 
#
#######################################################################
#
# If this CIF has been generated from an entry in the Cambridge 
# Structural Database, then it will include bibliographic, chemical, 
# crystal, experimental, refinement or atomic coordinate data resulting 
# from the CCDC's data processing and validation procedures.
#
#######################################################################

data_VIQBAA
_chemical_formula_moiety         '(C44 H64 N4 O10 Si4 Zn2)n,2.76n(H2 O1)'
_chemical_name_systematic        
"catena-(bis(\m~2~-4,4'-Bipyridine)-bis(\m~2~-4,4'-(1,1,3,3-tetramethyldisiloxane-1,3-diyl)dibutanoato)-di-zinc hydrate)"
_symmetry_cell_setting           triclinic
_symmetry_space_group_name_H-M   'P -1'
_symmetry_Int_Tables_number      2
_space_group_name_Hall           '-P 1'
loop_
_symmetry_equiv_pos_site_id
_symmetry_equiv_pos_as_xyz
1 x,y,z
2 -x,-y,-z
_cell_length_a                   8.578(5)
_cell_length_b                   12.774(5)
_cell_length_c                   13.881(5)
_cell_angle_alpha                112.964(5)
_cell_angle_beta                 92.491(5)
_cell_angle_gamma                103.174(5)
_cell_volume                     1348.67
_exptl_crystal_colour            colorless
_exptl_crystal_description       plate
_cell_formula_units_Z            1
loop_
_atom_site_label
_atom_site_type_symbol
_atom_site_fract_x
_atom_site_fract_y
_atom_site_fract_z
Zn1 Zn 0.55772(5) 0.35679(4) 0.23951(4)
Si1 Si 0.25919(15) 0.92547(11) 0.28412(11)
Si2 Si -0.11510(15) 0.83268(11) 0.27461(12)
O1 O -0.2951(4) 1.1750(3) 0.1929(2)
O2 O 0.3907(4) 0.5028(3) 0.1916(2)
O3 O 0.0664(4) 0.8639(3) 0.2435(3)
O4 O 0.4986(4) 0.4967(3) 0.3362(2)
O5 O -0.3462(4) 1.3070(3) 0.3393(2)
N1 N 0.7160(4) 0.4016(3) 0.1463(3)
N2 N 0.3539(4) 0.2296(3) 0.1461(3)
C1 C 0.0740(4) 0.0490(3) 0.0300(3)
C2 C -0.2935(5) 1.2167(4) 0.2897(3)
C3 C 0.7734(5) 0.4564(4) 0.0027(3)
H1 H 0.7342 0.4671 -0.0553
C4 C 0.2283(5) 0.0421(4) 0.0045(3)
H2 H 0.2407 -0.0233 -0.0523
C5 C 0.3371(6) 0.7264(4) 0.2980(4)
H3 H 0.4013 0.7245 0.2418
H4 H 0.2268 0.6821 0.2651
C6 C 0.3626(5) 0.1328(4) 0.0641(3)
H5 H 0.4641 0.1259 0.0461
C7 C 0.9886(5) 0.4556(4) 0.1156(4)
H6 H 1.0979 0.4661 0.1355
C8 C 0.9403(4) 0.4772(3) 0.0297(3)
C9 C 0.0658(5) 0.1515(4) 0.1140(4)
H7 H -0.0344 0.1614 0.1327
C10 C 0.4012(6) 0.6644(4) 0.3588(4)
H8 H 0.5021 0.7160 0.4032
H9 H 0.3244 0.6513 0.4048
C11 C 0.6673(5) 0.4198(4) 0.0623(3)
H10 H 0.5570 0.4073 0.0435
C12 C -0.1809(6) 1.0495(4) 0.2963(4)
H11 H -0.0771 1.0726 0.2749
H12 H -0.2583 1.0018 0.2325
C13 C 0.3383(6) 0.8535(4) 0.3633(4)
H13 H 0.4483 0.8984 0.3964
H14 H 0.2731 0.8560 0.4191
C14 C 0.8758(5) 0.4189(4) 0.1714(4)
H15 H 0.9116 0.4056 0.2288
C15 C 0.4302(5) 0.5470(4) 0.2888(3)
C16 C -0.1657(6) 0.9733(4) 0.3560(4)
H16 H -0.2671 0.9543 0.3817
H17 H -0.0823 1.0187 0.4170
C17 C 0.2911(7) 1.0862(5) 0.3672(5)
H18 H 0.2515 1.1223 0.3257
H19 H 0.4045 1.1227 0.3920
H20 H 0.2335 1.0961 0.4266
C18 C 0.2052(5) 0.2388(4) 0.1698(4)
H21 H 0.1963 0.3064 0.2257
C19 C 0.3576(7) 0.9001(5) 0.1632(5)
H22 H 0.3446 0.8171 0.1246
H23 H 0.4709 0.9402 0.1831
H24 H 0.3083 0.9299 0.1196
C20 C -0.2559(7) 0.7519(5) 0.1472(5)
H25 H -0.2711 0.8067 0.1183
H26 H -0.3583 0.7135 0.1593
H27 H -0.2107 0.6940 0.0982
C21 C -0.2335(6) 1.1605(4) 0.3575(4)
H28 H -0.1427 1.2182 0.4091
H29 H -0.3191 1.1412 0.3960
C22 C -0.1200(7) 0.7407(5) 0.3508(5)
H30 H -0.0904 0.6701 0.3092
H31 H -0.2271 0.7202 0.3673
H32 H -0.0449 0.7843 0.4152
N1A N 1.2840(4) 0.5984(3) -0.1463(3)
C3A C 1.2266(5) 0.5436(4) -0.0027(3)
H1A H 1.2658 0.5329 0.0553
C7A C 1.0114(5) 0.5444(4) -0.1156(4)
H6A H 0.9021 0.5339 -0.1355
C8A C 1.0597(4) 0.5228(3) -0.0297(3)
C11A C 1.3327(5) 0.5802(4) -0.0623(3)
H10A H 1.4430 0.5927 -0.0435
C14A C 1.1242(5) 0.5811(4) -0.1714(4)
H15A H 1.0884 0.5944 -0.2288
N2A N -0.3539(4) -0.2296(3) -0.1461(3)
C1A C -0.0740(4) -0.0490(3) -0.0300(3)
C4A C -0.2283(5) -0.0421(4) -0.0045(3)
H2A H -0.2407 0.0233 0.0523
C6A C -0.3626(5) -0.1328(4) -0.0641(3)
H5A H -0.4641 -0.1259 -0.0461
C9A C -0.0658(5) -0.1515(4) -0.1140(4)
H7A H 0.0344 -0.1614 -0.1327
C18A C -0.2052(5) -0.2388(4) -0.1698(4)
H21A H -0.1963 -0.3064 -0.2257
Zn1A Zn -0.55772(5) -0.35679(4) -0.23951(4)
Si1A Si -0.25919(15) -0.92547(11) -0.28412(11)
Si2A Si 0.11510(15) -0.83268(11) -0.27461(12)
O1A O 0.2951(4) -1.1750(3) -0.1929(2)
O2A O -0.3907(4) -0.5028(3) -0.1916(2)
O3A O -0.0664(4) -0.8639(3) -0.2435(3)
O4A O -0.4986(4) -0.4967(3) -0.3362(2)
O5A O 0.3462(4) -1.3070(3) -0.3393(2)
C2A C 0.2935(5) -1.2167(4) -0.2897(3)
C5A C -0.3371(6) -0.7264(4) -0.2980(4)
H3A H -0.4013 -0.7245 -0.2418
H4A H -0.2268 -0.6821 -0.2651
C10A C -0.4012(6) -0.6644(4) -0.3588(4)
H8A H -0.5021 -0.7160 -0.4032
H9A H -0.3244 -0.6513 -0.4048
C12A C 0.1809(6) -1.0495(4) -0.2963(4)
H11A H 0.0771 -1.0726 -0.2749
H12A H 0.2583 -1.0018 -0.2325
C13A C -0.3383(6) -0.8535(4) -0.3633(4)
H13A H -0.4483 -0.8984 -0.3964
H14A H -0.2731 -0.8560 -0.4191
C15A C -0.4302(5) -0.5470(4) -0.2888(3)
C16A C 0.1657(6) -0.9733(4) -0.3560(4)
H16A H 0.2671 -0.9543 -0.3817
H17A H 0.0823 -1.0187 -0.4170
C17A C -0.2911(7) -1.0862(5) -0.3672(5)
H18A H -0.2515 -1.1223 -0.3257
H19A H -0.4045 -1.1227 -0.3920
H20A H -0.2335 -1.0961 -0.4266
C19A C -0.3576(7) -0.9001(5) -0.1632(5)
H22A H -0.3446 -0.8171 -0.1246
H23A H -0.4709 -0.9402 -0.1831
H24A H -0.3083 -0.9299 -0.1196
C20A C 0.2559(7) -0.7519(5) -0.1472(5)
H25A H 0.2711 -0.8067 -0.1183
H26A H 0.3583 -0.7135 -0.1593
H27A H 0.2107 -0.6940 -0.0982
C21A C 0.2335(6) -1.1605(4) -0.3575(4)
H28A H 0.1427 -1.2182 -0.4091
H29A H 0.3191 -1.1412 -0.3960
C22A C 0.1200(7) -0.7407(5) -0.3508(5)
H30A H 0.0904 -0.6701 -0.3092
H31A H 0.2271 -0.7202 -0.3673
H32A H 0.0449 -0.7843 -0.4152
Zn1_2 Zn -0.44228(5) 1.35679(4) 0.23951(4)
Zn1A_2 Zn 0.44228(5) -1.35679(4) -0.23951(4)
Zn1A_3 Zn 1.44228(5) 0.64321(4) -0.23951(4)
O5_2 O 0.6538(4) 0.3070(3) 0.3393(2)
O5A_2 O -0.6538(4) -0.3070(3) -0.3393(2)
N1A_2 N -0.7160(4) -0.4016(3) -0.1463(3)
O6 O 0.2918(10) 0.4075(7) 0.4647(6)
H33 H 0.2007 0.4330 0.4726
H34 H 0.3428 0.4433 0.5358
O7? O 0.0504(19) 0.4886(14) 0.4632(15)
H35? H -0.0184 0.4446 0.4082
H36? H 0.0792 0.5581 0.4660
O8? O 0.0354(17) 0.5188(14) 0.4105(11)
H37? H 0.1134 0.5784 0.4277
H38? H 0.0083 0.5166 0.4668
O9? O -0.025(2) 0.5256(17) 0.4683(17)
H39? H -0.0438 0.4661 0.4092
H40? H 0.0557 0.5785 0.4688
O10? O 0.053(4) 0.466(3) 0.393(3)
H41? H 0.0137 0.5193 0.3874
H42? H 0.1478 0.4742 0.3762
loop_
_geom_bond_atom_site_label_1
_geom_bond_atom_site_label_2
_geom_bond_site_symmetry_1
_geom_bond_site_symmetry_2
Zn1 O4 1_555 1_555
Si1 O3 1_555 1_555
Si2 O3 1_555 1_555
O1 C2 1_555 1_555
O2 C15 1_555 1_555
O4 C15 1_555 1_555
O5 C2 1_555 1_555
N1 Zn1 1_555 1_555
N2 Zn1 1_555 1_555
C1 C4 1_555 1_555
C2 C21 1_555 1_555
C3 H1 1_555 1_555
C4 H2 1_555 1_555
C5 H3 1_555 1_555
H4 C5 1_555 1_555
C6 N2 1_555 1_555
H5 C6 1_555 1_555
C7 H6 1_555 1_555
C8 C3 1_555 1_555
C9 C1 1_555 1_555
H7 C9 1_555 1_555
C10 C5 1_555 1_555
H8 C10 1_555 1_555
H9 C10 1_555 1_555
C11 N1 1_555 1_555
H10 C11 1_555 1_555
C12 H11 1_555 1_555
H12 C12 1_555 1_555
C13 Si1 1_555 1_555
H13 C13 1_555 1_555
H14 C13 1_555 1_555
C14 N1 1_555 1_555
H15 C14 1_555 1_555
C15 C10 1_555 1_555
C16 Si2 1_555 1_555
H16 C16 1_555 1_555
H17 C16 1_555 1_555
C17 Si1 1_555 1_555
H18 C17 1_555 1_555
H19 C17 1_555 1_555
H20 C17 1_555 1_555
C18 N2 1_555 1_555
H21 C18 1_555 1_555
C19 Si1 1_555 1_555
H22 C19 1_555 1_555
H23 C19 1_555 1_555
H24 C19 1_555 1_555
C20 Si2 1_555 1_555
H25 C20 1_555 1_555
H26 C20 1_555 1_555
H27 C20 1_555 1_555
C21 C12 1_555 1_555
H28 C21 1_555 1_555
H29 C21 1_555 1_555
C22 Si2 1_555 1_555
H30 C22 1_555 1_555
H31 C22 1_555 1_555
H32 C22 1_555 1_555
O6 H33 1_555 1_555
H34 O6 1_555 1_555
N1A C11A 1_555 1_555
C3A H1A 1_555 1_555
C7A H6A 1_555 1_555
C8A C8 1_555 1_555
C11A C3A 1_555 1_555
H10A C11A 1_555 1_555
C14A N1A 1_555 1_555
H15A C14A 1_555 1_555
N2A C6A 1_555 1_555
C1A C1 1_555 1_555
C4A C1A 1_555 1_555
H2A C4A 1_555 1_555
C6A C4A 1_555 1_555
H5A C6A 1_555 1_555
C9A C1A 1_555 1_555
H7A C9A 1_555 1_555
C18A N2A 1_555 1_555
H21A C18A 1_555 1_555
Zn1A N2A 1_555 1_555
Si1A O3A 1_555 1_555
Si2A O3A 1_555 1_555
O1A C2A 1_555 1_555
O2A C15A 1_555 1_555
O4A Zn1A 1_555 1_555
O5A C2A 1_555 1_555
C2A C21A 1_555 1_555
C5A H3A 1_555 1_555
H4A C5A 1_555 1_555
C10A C5A 1_555 1_555
H8A C10A 1_555 1_555
H9A C10A 1_555 1_555
C12A H11A 1_555 1_555
H12A C12A 1_555 1_555
C13A Si1A 1_555 1_555
H13A C13A 1_555 1_555
H14A C13A 1_555 1_555
C15A O4A 1_555 1_555
C16A Si2A 1_555 1_555
H16A C16A 1_555 1_555
H17A C16A 1_555 1_555
C17A Si1A 1_555 1_555
H18A C17A 1_555 1_555
H19A C17A 1_555 1_555
H20A C17A 1_555 1_555
C19A Si1A 1_555 1_555
H22A C19A 1_555 1_555
H23A C19A 1_555 1_555
H24A C19A 1_555 1_555
C20A Si2A 1_555 1_555
H25A C20A 1_555 1_555
H26A C20A 1_555 1_555
H27A C20A 1_555 1_555
C21A C12A 1_555 1_555
H28A C21A 1_555 1_555
H29A C21A 1_555 1_555
C22A Si2A 1_555 1_555
H30A C22A 1_555 1_555
H31A C22A 1_555 1_555
H32A C22A 1_555 1_555
Zn1_2 O5 1_555 1_555
Zn1A_2 O5A 1_555 1_555
Zn1A_3 N1A 1_555 1_555
O5_2 Zn1 1_555 1_555
O5A_2 Zn1A 1_555 1_555
N1A_2 Zn1A 1_555 1_555
C3 C11 1_555 1_555
C4 C6 1_555 1_555
C5 C13 1_555 1_555
C7 C8 1_555 1_555
C7 C14 1_555 1_555
C9 C18 1_555 1_555
C12 C16 1_555 1_555
C3A C8A 1_555 1_555
C7A C8A 1_555 1_555
C7A C14A 1_555 1_555
C9A C18A 1_555 1_555
C5A C13A 1_555 1_555
C10A C15A 1_555 1_555
C12A C16A 1_555 1_555

#END
