
#######################################################################
#
#                 Cambridge Crystallographic Data Centre
#                                CCDC 
#
#######################################################################
#
# If this CIF has been generated from an entry in the Cambridge 
# Structural Database, then it will include bibliographic, chemical, 
# crystal, experimental, refinement or atomic coordinate data resulting 
# from the CCDC's data processing and validation procedures.
#
#######################################################################

data_ZUCKIT
_chemical_name_common            POST-66(Y)
_chemical_formula_moiety         
'(C72 H54 O12 Y3 3+)n,1.5n(H1 O1 1-),1.5n(N1 O3 1-),17.5n(C3 H7 N1 O1),17.5n(H2 O1)'
_chemical_name_systematic        
"catena-(bis(\m~6~-5,5,10,10,15,15-Hexamethyl-10,15-dihydro-5H-diindeno[1,2-a:1',2'-c]fluorene-2,7,12-tricarboxylato)-tri-yttrium sesquihydroxide sesquinitrate dimethylformamide solvate hydrate)"
_symmetry_cell_setting           cubic
_symmetry_space_group_name_H-M   'F m -3 c'
_symmetry_Int_Tables_number      226
_space_group_name_Hall           '-F 4a 2 3'
loop_
_symmetry_equiv_pos_site_id
_symmetry_equiv_pos_as_xyz
1 x,y,z
2 -x,-y,z
3 -x,y,-z
4 x,-y,-z
5 z,x,y
6 z,-x,-y
7 -z,-x,y
8 -z,x,-y
9 y,z,x
10 -y,z,-x
11 y,-z,-x
12 -y,-z,x
13 1/2+y,1/2+x,1/2-z
14 1/2-y,1/2-x,1/2-z
15 1/2+y,1/2-x,1/2+z
16 1/2-y,1/2+x,1/2+z
17 1/2+x,1/2+z,1/2-y
18 1/2-x,1/2+z,1/2+y
19 1/2-x,1/2-z,1/2-y
20 1/2+x,1/2-z,1/2+y
21 1/2+z,1/2+y,1/2-x
22 1/2+z,1/2-y,1/2+x
23 1/2-z,1/2+y,1/2+x
24 1/2-z,1/2-y,1/2-x
25 x,1/2+y,1/2+z
26 -x,1/2-y,1/2+z
27 -x,1/2+y,1/2-z
28 x,1/2-y,1/2-z
29 z,1/2+x,1/2+y
30 z,1/2-x,1/2-y
31 -z,1/2-x,1/2+y
32 -z,1/2+x,1/2-y
33 y,1/2+z,1/2+x
34 -y,1/2+z,1/2-x
35 y,1/2-z,1/2-x
36 -y,1/2-z,1/2+x
37 1/2+y,x,-z
38 1/2-y,-x,-z
39 1/2+y,-x,z
40 1/2-y,x,z
41 1/2+x,z,-y
42 1/2-x,z,y
43 1/2-x,-z,-y
44 1/2+x,-z,y
45 1/2+z,y,-x
46 1/2+z,-y,x
47 1/2-z,y,x
48 1/2-z,-y,-x
49 1/2+x,y,1/2+z
50 1/2-x,-y,1/2+z
51 1/2-x,y,1/2-z
52 1/2+x,-y,1/2-z
53 1/2+z,x,1/2+y
54 1/2+z,-x,1/2-y
55 1/2-z,-x,1/2+y
56 1/2-z,x,1/2-y
57 1/2+y,z,1/2+x
58 1/2-y,z,1/2-x
59 1/2+y,-z,1/2-x
60 1/2-y,-z,1/2+x
61 y,1/2+x,-z
62 -y,1/2-x,-z
63 y,1/2-x,z
64 -y,1/2+x,z
65 x,1/2+z,-y
66 -x,1/2+z,y
67 -x,1/2-z,-y
68 x,1/2-z,y
69 z,1/2+y,-x
70 z,1/2-y,x
71 -z,1/2+y,x
72 -z,1/2-y,-x
73 1/2+x,1/2+y,z
74 1/2-x,1/2-y,z
75 1/2-x,1/2+y,-z
76 1/2+x,1/2-y,-z
77 1/2+z,1/2+x,y
78 1/2+z,1/2-x,-y
79 1/2-z,1/2-x,y
80 1/2-z,1/2+x,-y
81 1/2+y,1/2+z,x
82 1/2-y,1/2+z,-x
83 1/2+y,1/2-z,-x
84 1/2-y,1/2-z,x
85 y,x,1/2-z
86 -y,-x,1/2-z
87 y,-x,1/2+z
88 -y,x,1/2+z
89 x,z,1/2-y
90 -x,z,1/2+y
91 -x,-z,1/2-y
92 x,-z,1/2+y
93 z,y,1/2-x
94 z,-y,1/2+x
95 -z,y,1/2+x
96 -z,-y,1/2-x
97 -x,-y,-z
98 x,y,-z
99 x,-y,z
100 -x,y,z
101 -z,-x,-y
102 -z,x,y
103 z,x,-y
104 z,-x,y
105 -y,-z,-x
106 y,-z,x
107 -y,z,x
108 y,z,-x
109 1/2-y,1/2-x,1/2+z
110 1/2+y,1/2+x,1/2+z
111 1/2-y,1/2+x,1/2-z
112 1/2+y,1/2-x,1/2-z
113 1/2-x,1/2-z,1/2+y
114 1/2+x,1/2-z,1/2-y
115 1/2+x,1/2+z,1/2+y
116 1/2-x,1/2+z,1/2-y
117 1/2-z,1/2-y,1/2+x
118 1/2-z,1/2+y,1/2-x
119 1/2+z,1/2-y,1/2-x
120 1/2+z,1/2+y,1/2+x
121 -x,1/2-y,1/2-z
122 x,1/2+y,1/2-z
123 x,1/2-y,1/2+z
124 -x,1/2+y,1/2+z
125 -z,1/2-x,1/2-y
126 -z,1/2+x,1/2+y
127 z,1/2+x,1/2-y
128 z,1/2-x,1/2+y
129 -y,1/2-z,1/2-x
130 y,1/2-z,1/2+x
131 -y,1/2+z,1/2+x
132 y,1/2+z,1/2-x
133 1/2-y,-x,z
134 1/2+y,x,z
135 1/2-y,x,-z
136 1/2+y,-x,-z
137 1/2-x,-z,y
138 1/2+x,-z,-y
139 1/2+x,z,y
140 1/2-x,z,-y
141 1/2-z,-y,x
142 1/2-z,y,-x
143 1/2+z,-y,-x
144 1/2+z,y,x
145 1/2-x,-y,1/2-z
146 1/2+x,y,1/2-z
147 1/2+x,-y,1/2+z
148 1/2-x,y,1/2+z
149 1/2-z,-x,1/2-y
150 1/2-z,x,1/2+y
151 1/2+z,x,1/2-y
152 1/2+z,-x,1/2+y
153 1/2-y,-z,1/2-x
154 1/2+y,-z,1/2+x
155 1/2-y,z,1/2+x
156 1/2+y,z,1/2-x
157 -y,1/2-x,z
158 y,1/2+x,z
159 -y,1/2+x,-z
160 y,1/2-x,-z
161 -x,1/2-z,y
162 x,1/2-z,-y
163 x,1/2+z,y
164 -x,1/2+z,-y
165 -z,1/2-y,x
166 -z,1/2+y,-x
167 z,1/2-y,-x
168 z,1/2+y,x
169 1/2-x,1/2-y,-z
170 1/2+x,1/2+y,-z
171 1/2+x,1/2-y,z
172 1/2-x,1/2+y,z
173 1/2-z,1/2-x,-y
174 1/2-z,1/2+x,y
175 1/2+z,1/2+x,-y
176 1/2+z,1/2-x,y
177 1/2-y,1/2-z,-x
178 1/2+y,1/2-z,x
179 1/2-y,1/2+z,x
180 1/2+y,1/2+z,-x
181 -y,-x,1/2+z
182 y,x,1/2+z
183 -y,x,1/2-z
184 y,-x,1/2-z
185 -x,-z,1/2+y
186 x,-z,1/2-y
187 x,z,1/2+y
188 -x,z,1/2-y
189 -z,-y,1/2+x
190 -z,y,1/2-x
191 z,-y,1/2-x
192 z,y,1/2+x
_cell_length_a                   51.550(6)
_cell_length_b                   51.550(6)
_cell_length_c                   51.550(6)
_cell_angle_alpha                90
_cell_angle_beta                 90
_cell_angle_gamma                90
_cell_volume                     136989
_exptl_crystal_colour            colorless
_exptl_crystal_description       'truncated octahedron'
_cell_formula_units_Z            32
_exptl_crystal_recrystallization_method 'solvothermal synthesis'
loop_
_atom_site_label
_atom_site_type_symbol
_atom_site_fract_x
_atom_site_fract_y
_atom_site_fract_z
O3 O 0.2035(5) 0.4784(3) 0.1472(7)
O4 O 0.2500 0.5000 0.2500
Y1 Y 0.23311(4) 0.5000 0.18654(6)
O1 O 0.26428(17) 0.52996(13) 0.18384(17)
O2 O 0.2976(3) 0.5284(3) 0.2099(3)
C1 C 0.28725(14) 0.53626(10) 0.19247(17)
C2 C 0.29329(10) 0.56396(9) 0.18343(12)
C3 C 0.31533(10) 0.57155(7) 0.18921(11)
H1 H 0.3278 0.5598 0.1961
C4 C 0.32251(8) 0.60095(7) 0.18508(8)
C5 C 0.34996(9) 0.61239(9) 0.19486(10)
C6 C 0.35030(10) 0.63205(8) 0.17179(10)
C7 C 0.33157(11) 0.63296(8) 0.15143(9)
C8 C 0.31481(8) 0.60943(8) 0.16146(8)
C9 C 0.28944(11) 0.60104(12) 0.14396(11)
H2 H 0.2821 0.6095 0.1293
C10 C 0.34134(13) 0.62268(12) 0.21811(9)
H3 H 0.3417 0.6092 0.2315
H4 H 0.3236 0.6291 0.2160
H5 H 0.3527 0.6371 0.2233
C11 C 0.37215(8) 0.59136(11) 0.18938(15)
H6 H 0.3735 0.5883 0.1707
H7 H 0.3678 0.5751 0.1982
H8 H 0.3888 0.5978 0.1959
C12 C 0.27992(9) 0.57387(12) 0.15879(13)
H9 H 0.2658 0.5643 0.1518
O1GA O 0.47004(13) 0.68384(17) 0.23572(17)
O2GA O 0.4716(3) 0.7099(3) 0.2024(3)
C1GA C 0.46374(10) 0.69247(17) 0.21275(14)
C2GA C 0.43604(9) 0.68343(12) 0.20671(10)
C3GA C 0.42845(7) 0.68921(11) 0.18467(10)
H1GA H 0.4402 0.6961 0.1722
C4GA C 0.39905(7) 0.68508(8) 0.17749(8)
C5GA C 0.38761(9) 0.69486(10) 0.15004(9)
C6GA C 0.36795(8) 0.67179(10) 0.14970(10)
C7GA C 0.36704(8) 0.65143(9) 0.16843(11)
C8GA C 0.39057(8) 0.66146(8) 0.18519(8)
C9GA C 0.39896(12) 0.64396(11) 0.21056(11)
H2GA H 0.3905 0.6293 0.2179
C10GA C 0.37732(12) 0.71811(9) 0.15866(13)
H3GA H 0.3908 0.7315 0.1583
H4GA H 0.3709 0.7160 0.1764
H5GA H 0.3629 0.7233 0.1473
C11GA C 0.40864(11) 0.68938(15) 0.12785(8)
H6GA H 0.4117 0.6707 0.1265
H7GA H 0.4249 0.6982 0.1322
H8GA H 0.4022 0.6959 0.1112
C12GA C 0.42613(12) 0.65879(13) 0.22008(9)
H9GA H 0.4357 0.6518 0.2342
O1BB O 0.31616(17) 0.73572(17) 0.02996(13)
O2BB O 0.2901(3) 0.7024(3) 0.0284(3)
C1BB C 0.30753(17) 0.71275(14) 0.03626(10)
C2BB C 0.31657(12) 0.70671(10) 0.06396(9)
C3BB C 0.31079(11) 0.68467(10) 0.07155(7)
H1BB H 0.3039 0.6722 0.0598
C4BB C 0.31492(8) 0.67749(8) 0.10095(7)
C5BB C 0.30514(10) 0.65004(9) 0.11239(9)
C6BB C 0.32821(10) 0.64970(10) 0.13205(8)
C7BB C 0.34857(9) 0.66843(11) 0.13296(8)
C8BB C 0.33854(8) 0.68519(8) 0.10943(8)
C9BB C 0.35604(11) 0.71056(11) 0.10104(12)
H2BB H 0.3707 0.7179 0.1095
C10BB C 0.28189(9) 0.65866(13) 0.12268(12)
H3BB H 0.2685 0.6583 0.1092
H4BB H 0.2840 0.6764 0.1291
H5BB H 0.2767 0.6473 0.1371
C11BB C 0.31062(15) 0.62785(8) 0.09136(11)
H6BB H 0.3293 0.6265 0.0883
H7BB H 0.3018 0.6322 0.0751
H8BB H 0.3041 0.6112 0.0978
C12BB C 0.34121(13) 0.72008(9) 0.07387(12)
H9BB H 0.3482 0.7342 0.0643
Y1Q Y 0.26689(4) 0.68654(6) 0.0000
O1Q O 0.23572(17) 0.68384(17) 0.02996(13)
O2Q O 0.2024(3) 0.7099(3) 0.0284(3)
C1Q C 0.21275(14) 0.69247(17) 0.03626(10)
C2Q C 0.20671(10) 0.68343(12) 0.06396(9)
C3Q C 0.18467(10) 0.68921(11) 0.07155(7)
H1Q H 0.1722 0.6961 0.0598
C4Q C 0.17749(8) 0.68508(8) 0.10095(7)
C5Q C 0.15004(9) 0.69486(10) 0.11239(9)
C6Q C 0.14970(10) 0.67179(10) 0.13205(8)
C7Q C 0.16843(11) 0.65143(9) 0.13296(8)
C8Q C 0.18519(8) 0.66146(8) 0.10943(8)
C9Q C 0.21056(11) 0.64396(11) 0.10104(12)
H2Q H 0.2179 0.6293 0.1095
C10Q C 0.15866(13) 0.71811(9) 0.12268(12)
H3Q H 0.1583 0.7315 0.1092
H4Q H 0.1764 0.7160 0.1291
H5Q H 0.1473 0.7233 0.1371
C11Q C 0.12785(8) 0.68938(15) 0.09136(11)
H6Q H 0.1265 0.6707 0.0883
H7Q H 0.1322 0.6982 0.0751
H8Q H 0.1112 0.6959 0.0978
C12Q C 0.22008(9) 0.65879(13) 0.07387(12)
H9Q H 0.2342 0.6518 0.0643
O1LA O 0.02996(13) 0.73572(17) 0.18384(17)
O2LA O 0.0284(3) 0.7024(3) 0.2099(3)
C1LA C 0.03626(10) 0.71275(14) 0.19247(17)
C2LA C 0.06396(9) 0.70671(10) 0.18343(12)
C3LA C 0.07155(7) 0.68467(10) 0.18921(11)
H1LA H 0.0598 0.6722 0.1961
C4LA C 0.10095(7) 0.67749(8) 0.18508(8)
C5LA C 0.11239(9) 0.65004(9) 0.19486(10)
C6LA C 0.13205(8) 0.64970(10) 0.17179(10)
C7LA C 0.13296(8) 0.66843(11) 0.15143(9)
C8LA C 0.10943(8) 0.68519(8) 0.16146(8)
C9LA C 0.10104(12) 0.71056(11) 0.14396(11)
H2LA H 0.1095 0.7179 0.1293
C10LA C 0.12268(12) 0.65866(13) 0.21811(9)
H3LA H 0.1092 0.6583 0.2315
H4LA H 0.1291 0.6764 0.2160
H5LA H 0.1371 0.6473 0.2233
C11LA C 0.09136(11) 0.62785(8) 0.18938(15)
H6LA H 0.0883 0.6265 0.1707
H7LA H 0.0751 0.6322 0.1982
H8LA H 0.0978 0.6112 0.1959
C12LA C 0.07387(12) 0.72008(9) 0.15879(13)
H9LA H 0.0643 0.7342 0.1518
O1NC O 0.18384(17) 0.52996(13) 0.23572(17)
O2NC O 0.2099(3) 0.5284(3) 0.2024(3)
C1NC C 0.19247(17) 0.53626(10) 0.21275(14)
C2NC C 0.18343(12) 0.56396(9) 0.20671(10)
C3NC C 0.18921(11) 0.57155(7) 0.18467(10)
H1NC H 0.1961 0.5598 0.1722
C4NC C 0.18508(8) 0.60095(7) 0.17749(8)
C5NC C 0.19486(10) 0.61239(9) 0.15004(9)
C6NC C 0.17179(10) 0.63205(8) 0.14970(10)
C7NC C 0.15143(9) 0.63296(8) 0.16843(11)
C8NC C 0.16146(8) 0.60943(8) 0.18519(8)
C9NC C 0.14396(11) 0.60104(12) 0.21056(11)
H2NC H 0.1293 0.6095 0.2179
C10NC C 0.21811(9) 0.62268(12) 0.15866(13)
H3NC H 0.2315 0.6092 0.1583
H4NC H 0.2160 0.6291 0.1764
H5NC H 0.2233 0.6371 0.1473
C11NC C 0.18938(15) 0.59136(11) 0.12785(8)
H6NC H 0.1707 0.5883 0.1265
H7NC H 0.1982 0.5751 0.1322
H8NC H 0.1959 0.5978 0.1112
C12NC C 0.15879(13) 0.57387(12) 0.22008(9)
H9NC H 0.1518 0.5643 0.2342
Y1BA Y 0.18654(6) 0.73311(4) 0.0000
Y1GA Y 0.5000 0.68654(6) 0.26689(4)
Y1LA Y 0.0000 0.76689(4) 0.18654(6)
Y1TA Y 0.31346(6) 0.5000 0.23311(4)
Y1BB Y 0.31346(6) 0.76689(4) 0.0000
Y1KB Y 0.5000 0.73311(4) 0.18654(6)
Y1BC Y 0.0000 0.68654(6) 0.23311(4)
Y1NC Y 0.18654(6) 0.5000 0.26689(4)
O1BA O 0.18384(17) 0.76428(17) 0.02996(13)
O1TC O 0.26428(17) 0.47004(13) 0.18384(17)
O1KD O 0.23572(17) 0.68384(17) -0.02996(13)
O1VD O 0.18384(17) 0.76428(17) -0.02996(13)
O2KD O 0.2024(3) 0.7099(3) -0.0284(3)
O2RE O 0.2901(3) 0.7024(3) -0.0284(3)
O2HG O 0.2099(3) 0.4716(3) 0.2024(3)
loop_
_geom_bond_atom_site_label_1
_geom_bond_atom_site_label_2
_geom_bond_site_symmetry_1
_geom_bond_site_symmetry_2
Y1 O1 1_555 1_555
O1 C1 1_555 1_555
O2 C1 1_555 1_555
C1 C2 1_555 1_555
C2 C3 1_555 1_555
C3 H1 1_555 1_555
C4 C3 1_555 1_555
C5 C4 1_555 1_555
C6 C5 1_555 1_555
C7 C6 1_555 1_555
C8 C4 1_555 1_555
C9 C8 1_555 1_555
H2 C9 1_555 1_555
C10 C5 1_555 1_555
H3 C10 1_555 1_555
H4 C10 1_555 1_555
H5 C10 1_555 1_555
C11 C5 1_555 1_555
H6 C11 1_555 1_555
H7 C11 1_555 1_555
H8 C11 1_555 1_555
C12 C2 1_555 1_555
H9 C12 1_555 1_555
O1GA C1GA 1_555 1_555
O2GA C1GA 1_555 1_555
C1GA C2GA 1_555 1_555
C2GA C3GA 1_555 1_555
C3GA H1GA 1_555 1_555
C4GA C3GA 1_555 1_555
C5GA C4GA 1_555 1_555
C6GA C5GA 1_555 1_555
C7GA C6 1_555 1_555
C8GA C4GA 1_555 1_555
C9GA C8GA 1_555 1_555
H2GA C9GA 1_555 1_555
C10GA C5GA 1_555 1_555
H3GA C10GA 1_555 1_555
H4GA C10GA 1_555 1_555
H5GA C10GA 1_555 1_555
C11GA C5GA 1_555 1_555
H6GA C11GA 1_555 1_555
H7GA C11GA 1_555 1_555
H8GA C11GA 1_555 1_555
C12GA C2GA 1_555 1_555
H9GA C12GA 1_555 1_555
O1BB C1BB 1_555 1_555
O2BB C1BB 1_555 1_555
C1BB C2BB 1_555 1_555
C2BB C3BB 1_555 1_555
C3BB H1BB 1_555 1_555
C4BB C3BB 1_555 1_555
C5BB C4BB 1_555 1_555
C6BB C7 1_555 1_555
C7BB C6GA 1_555 1_555
C8BB C4BB 1_555 1_555
C9BB C8BB 1_555 1_555
H2BB C9BB 1_555 1_555
C10BB C5BB 1_555 1_555
H3BB C10BB 1_555 1_555
H4BB C10BB 1_555 1_555
H5BB C10BB 1_555 1_555
C11BB C5BB 1_555 1_555
H6BB C11BB 1_555 1_555
H7BB C11BB 1_555 1_555
H8BB C11BB 1_555 1_555
C12BB C2BB 1_555 1_555
H9BB C12BB 1_555 1_555
Y1Q O2BB 1_555 1_555
O1Q Y1Q 1_555 1_555
O2Q C1Q 1_555 1_555
C1Q O1Q 1_555 1_555
C2Q C1Q 1_555 1_555
C3Q C2Q 1_555 1_555
H1Q C3Q 1_555 1_555
C4Q C3Q 1_555 1_555
C5Q C4Q 1_555 1_555
C6Q C5Q 1_555 1_555
C7Q C6Q 1_555 1_555
C8Q C4Q 1_555 1_555
C9Q C8Q 1_555 1_555
H2Q C9Q 1_555 1_555
C10Q C5Q 1_555 1_555
H3Q C10Q 1_555 1_555
H4Q C10Q 1_555 1_555
H5Q C10Q 1_555 1_555
C11Q C5Q 1_555 1_555
H6Q C11Q 1_555 1_555
H7Q C11Q 1_555 1_555
H8Q C11Q 1_555 1_555
C12Q C2Q 1_555 1_555
H9Q C12Q 1_555 1_555
O1LA C1LA 1_555 1_555
O2LA C1LA 1_555 1_555
C1LA C2LA 1_555 1_555
C2LA C3LA 1_555 1_555
C3LA H1LA 1_555 1_555
C4LA C3LA 1_555 1_555
C5LA C4LA 1_555 1_555
C6LA C5LA 1_555 1_555
C7LA C6Q 1_555 1_555
C8LA C4LA 1_555 1_555
C9LA C8LA 1_555 1_555
H2LA C9LA 1_555 1_555
C10LA C5LA 1_555 1_555
H3LA C10LA 1_555 1_555
H4LA C10LA 1_555 1_555
H5LA C10LA 1_555 1_555
C11LA C5LA 1_555 1_555
H6LA C11LA 1_555 1_555
H7LA C11LA 1_555 1_555
H8LA C11LA 1_555 1_555
C12LA C2LA 1_555 1_555
H9LA C12LA 1_555 1_555
O1NC C1NC 1_555 1_555
O2NC Y1 1_555 1_555
C1NC O2NC 1_555 1_555
C2NC C1NC 1_555 1_555
C3NC C2NC 1_555 1_555
H1NC C3NC 1_555 1_555
C4NC C3NC 1_555 1_555
C5NC C4NC 1_555 1_555
C6NC C7Q 1_555 1_555
C7NC C6LA 1_555 1_555
C8NC C4NC 1_555 1_555
C9NC C8NC 1_555 1_555
H2NC C9NC 1_555 1_555
C10NC C5NC 1_555 1_555
H3NC C10NC 1_555 1_555
H4NC C10NC 1_555 1_555
H5NC C10NC 1_555 1_555
C11NC C5NC 1_555 1_555
H6NC C11NC 1_555 1_555
H7NC C11NC 1_555 1_555
H8NC C11NC 1_555 1_555
C12NC C2NC 1_555 1_555
H9NC C12NC 1_555 1_555
Y1BA O2Q 1_555 1_555
Y1GA O1GA 1_555 1_555
Y1LA O1LA 1_555 1_555
Y1TA O2 1_555 1_555
Y1BB O1BB 1_555 1_555
Y1KB O2GA 1_555 1_555
Y1BC O2LA 1_555 1_555
Y1NC O1NC 1_555 1_555
O1BA Y1BA 1_555 1_555
O1TC Y1 1_555 1_555
O1KD Y1Q 1_555 1_555
O1VD Y1BA 1_555 1_555
O2KD Y1BA 1_555 1_555
O2RE Y1Q 1_555 1_555
O2HG Y1 1_555 1_555
C7 C8 1_555 1_555
C9 C12 1_555 1_555
C6GA C7GA 1_555 1_555
C7GA C8GA 1_555 1_555
C9GA C12GA 1_555 1_555
C5BB C6BB 1_555 1_555
C6BB C7BB 1_555 1_555
C7BB C8BB 1_555 1_555
C9BB C12BB 1_555 1_555
C7Q C8Q 1_555 1_555
C9Q C12Q 1_555 1_555
C6LA C7LA 1_555 1_555
C7LA C8LA 1_555 1_555
C9LA C12LA 1_555 1_555
C5NC C6NC 1_555 1_555
C6NC C7NC 1_555 1_555
C7NC C8NC 1_555 1_555
C9NC C12NC 1_555 1_555

#END
