
#######################################################################
#
#                 Cambridge Crystallographic Data Centre
#                                CCDC 
#
#######################################################################
#
# If this CIF has been generated from an entry in the Cambridge 
# Structural Database, then it will include bibliographic, chemical, 
# crystal, experimental, refinement or atomic coordinate data resulting 
# from the CCDC's data processing and validation procedures.
#
#######################################################################

data_PUBRUA
_chemical_formula_moiety         '(C34 H22 Cu2 O10)n,n(C3 H7 N1 O1),3n(H2 O1)'
_chemical_name_systematic        
"catena-[(\m~8~-1,1':4',1'':4'',1''':4''':1''''-quinquephenyl-3,3'''',5,5''''-tetracarboxylato)-diaqua-di-copper(ii) dimethylformamide solvate trihydrate]"
_symmetry_cell_setting           rhombohedral
_symmetry_space_group_name_H-M   'R -3 m'
_symmetry_Int_Tables_number      166
_space_group_name_Hall           '-R 3 2"'
loop_
_symmetry_equiv_pos_site_id
_symmetry_equiv_pos_as_xyz
1 x,y,z
2 -y,x-y,z
3 -x+y,-x,z
4 y,x,-z
5 x-y,-y,-z
6 -x,-x+y,-z
7 2/3+x,1/3+y,1/3+z
8 2/3-y,1/3+x-y,1/3+z
9 2/3-x+y,1/3-x,1/3+z
10 2/3+y,1/3+x,1/3-z
11 2/3+x-y,1/3-y,1/3-z
12 2/3-x,1/3-x+y,1/3-z
13 1/3+x,2/3+y,2/3+z
14 1/3-y,2/3+x-y,2/3+z
15 1/3-x+y,2/3-x,2/3+z
16 1/3+y,2/3+x,2/3-z
17 1/3+x-y,2/3-y,2/3-z
18 1/3-x,2/3-x+y,2/3-z
19 -x,-y,-z
20 y,-x+y,-z
21 x-y,x,-z
22 -y,-x,z
23 -x+y,y,z
24 x,x-y,z
25 1/3-x,2/3-y,2/3-z
26 1/3+y,2/3-x+y,2/3-z
27 1/3+x-y,2/3+x,2/3-z
28 1/3-y,2/3-x,2/3+z
29 1/3-x+y,2/3+y,2/3+z
30 1/3+x,2/3+x-y,2/3+z
31 2/3-x,1/3-y,1/3-z
32 2/3+y,1/3-x+y,1/3-z
33 2/3+x-y,1/3+x,1/3-z
34 2/3-y,1/3-x,1/3+z
35 2/3-x+y,1/3+y,1/3+z
36 2/3+x,1/3+x-y,1/3+z
_cell_length_a                   18.348(1)
_cell_length_b                   18.348(1)
_cell_length_c                   65.094(2)
_cell_angle_alpha                90
_cell_angle_beta                 90
_cell_angle_gamma                120
_cell_volume                     18977.9
_exptl_crystal_colour            blue
_exptl_crystal_description       plate
_cell_formula_units_Z            18
loop_
_atom_site_label
_atom_site_type_symbol
_atom_site_fract_x
_atom_site_fract_y
_atom_site_fract_z
Cu1 Cu -0.05045(14) 0.47478(10) -0.43337(4)
Cu2 Cu 0.04869(13) 0.52435(9) -0.40050(4)
C1 C -0.0901(23) 0.3631(18) -0.3994(2)
C2 C -0.1596(20) 0.2918(16) -0.3884(2)
C3 C -0.2296(33) 0.2294(13) -0.3988(4)
H1 H -0.2346 0.2346 -0.4131
C4 C -0.1636(32) 0.2904(25) -0.3668(3)
H2 H -0.1241 0.3386 -0.3594
C5 C -0.2214(33) 0.2216(14) -0.3562(3)
C6 C -0.2302(23) 0.2298(12) -0.3324(2)
C7 C -0.1544(23) 0.2812(15) -0.3226(4)
C8 C -0.1507(26) 0.284(2) -0.3013(4)
C9 C -0.223(4) 0.236(3) -0.2898(2)
C10 C -0.2054(22) 0.2056(10) -0.26866(19)
C11 C -0.1480(16) 0.2759(13) -0.2576(2)
C12 C -0.1432(17) 0.2711(14) -0.2364(2)
C13 C -0.1962(25) 0.1969(21) -0.22628(19)
C14 C -0.1811(21) 0.1811(9) -0.20341(19)
C15 C -0.2130(12) 0.0991(8) -0.1963(3)
C16 C -0.2081(20) 0.0844(15) -0.1756(3)
C17 C -0.1715(27) 0.152(2) -0.16194(18)
C18 C -0.2338(26) 0.1403(18) -0.1690(3)
C19 C -0.1453(14) 0.2484(8) -0.1898(4)
C20 C -0.1463(22) 0.1467(10) -0.1391(3)
C21 C -0.0744(22) 0.2040(18) -0.1297(2)
H3 H -0.0350 0.2548 -0.1364
C22 C -0.0601(22) 0.1846(18) -0.1094(2)
C23 C -0.1144(13) 0.1145(6) -0.1013(3)
H4 H -0.1017 0.1016 -0.0881
C24 C 0.0260(22) 0.2392(18) -0.1002(3)
O1 O -0.0240(7) 0.4139(11) -0.39006(16)
O2 O -0.1112(6) 0.3710(10) -0.41795(14)
O3 O 0.0371(16) 0.2257(13) -0.08301(17)
O4 O 0.0772(15) 0.3039(12) -0.11050(16)
O5 O 0.1243(13) 0.5622(9) -0.3731(3)
O6 O -0.1367(7) 0.4317(5) -0.4598(3)
Cu1H Cu 0.19190(17) 0.38378(14) -0.10004(4)
Cu1U Cu -0.47478(10) 0.05045(14) -0.43337(4)
Cu1IA Cu -0.38378(14) -0.19190(17) -0.10004(4)
Cu2H Cu 0.14233(16) 0.28464(13) -0.06717(4)
Cu2U Cu -0.52435(9) -0.04869(13) -0.40050(4)
Cu2IA Cu -0.28464(13) -0.14233(16) -0.06717(4)
C1U C -0.3631(18) 0.0901(23) -0.3994(2)
C2U C -0.2918(16) 0.1596(20) -0.3884(2)
C4U C -0.2904(25) 0.1636(32) -0.3668(3)
H2U H -0.3386 0.1241 -0.3594
C7U C -0.2812(15) 0.1544(23) -0.3226(4)
C8U C -0.284(2) 0.1507(26) -0.3013(4)
C9U C -0.236(3) 0.223(4) -0.2898(2)
C11U C -0.2759(13) 0.1480(16) -0.2576(2)
C12U C -0.2711(14) 0.1432(17) -0.2364(2)
C15U C -0.0991(8) 0.2130(12) -0.1963(3)
C16U C -0.0844(15) 0.2081(20) -0.1756(3)
C17U C -0.152(2) 0.1715(27) -0.16194(18)
C18U C -0.1403(18) 0.2338(26) -0.1690(3)
C19U C -0.2484(8) 0.1453(14) -0.1898(4)
C21U C -0.2040(18) 0.0744(22) -0.1297(2)
H3U H -0.2548 0.0350 -0.1364
C22U C -0.1846(18) 0.0601(22) -0.1094(2)
C24U C -0.2392(18) -0.0260(22) -0.1002(3)
O1U O -0.4139(11) 0.0240(7) -0.39006(16)
O1W O -0.0240(7) 0.5621(13) -0.39006(16)
O2U O -0.3710(10) 0.1112(6) -0.41795(14)
O2W O -0.1112(6) 0.5178(12) -0.41795(14)
O3U O -0.2257(13) -0.0371(16) -0.08301(17)
O3M O 0.1076(13) 0.4781(21) -0.41634(17)
O3AA O 0.1076(13) 0.6296(16) -0.41634(17)
O4U O -0.3039(12) -0.0772(15) -0.11050(16)
O4M O 0.0294(12) 0.4400(19) -0.44383(16)
O4AA O 0.0294(12) 0.5895(15) -0.44383(16)
loop_
_geom_bond_atom_site_label_1
_geom_bond_atom_site_label_2
_geom_bond_site_symmetry_1
_geom_bond_site_symmetry_2
Cu1 O2 1_555 1_555
Cu2 O1 1_555 1_555
C1 C2 1_555 1_555
C2 C3 1_555 1_555
C3 H1 1_555 1_555
C4 C2 1_555 1_555
H2 C4 1_555 1_555
C5 C4 1_555 1_555
C6 C5 1_555 1_555
C7 C6 1_555 1_555
C8 C7 1_555 1_555
C9 C8 1_555 1_555
C10 C9 1_555 1_555
C11 C10 1_555 1_555
C12 C11 1_555 1_555
C13 C12 1_555 1_555
C14 C13 1_555 1_555
C15 C14 1_555 1_555
C16 C15 1_555 1_555
C17 C16 1_555 1_555
C18 C16 1_555 1_555
C19 C14 1_555 1_555
C20 C17 1_555 1_555
C21 C20 1_555 1_555
H3 C21 1_555 1_555
C22 C21 1_555 1_555
C23 C22 1_555 1_555
H4 C23 1_555 1_555
C24 C22 1_555 1_555
O1 C1 1_555 1_555
O2 C1 1_555 1_555
O3 C24 1_555 1_555
O4 C24 1_555 1_555
O5 Cu2 1_555 1_555
O6 Cu1 1_555 1_555
Cu1H O4 1_555 1_555
Cu1U O2U 1_555 1_555
Cu1IA O4U 1_555 1_555
Cu2H O3 1_555 1_555
Cu2U O1U 1_555 1_555
Cu2IA O3U 1_555 1_555
C1U C2U 1_555 1_555
C2U C3 1_555 1_555
C4U C5 1_555 1_555
H2U C4U 1_555 1_555
C7U C6 1_555 1_555
C8U C9 1_555 1_555
C9U C8 1_555 1_555
C11U C10 1_555 1_555
C12U C13 1_555 1_555
C15U C14 1_555 1_555
C16U C17 1_555 1_555
C17U C16 1_555 1_555
C18U C17 1_555 1_555
C19U C14 1_555 1_555
C21U C20 1_555 1_555
H3U C21U 1_555 1_555
C22U C23 1_555 1_555
C24U C22U 1_555 1_555
O1U C1U 1_555 1_555
O1W Cu2 1_555 1_555
O2U C1U 1_555 1_555
O2W Cu1 1_555 1_555
O3U C24U 1_555 1_555
O3M Cu2 1_555 1_555
O3AA Cu2 1_555 1_555
O4U C24U 1_555 1_555
O4M Cu1 1_555 1_555
O4AA Cu1 1_555 1_555
C9 C9U 1_555 1_555
C10 C9U 1_555 1_555
C15 C19U 1_555 1_555
C17 C18 1_555 1_555
C17 C17U 1_555 1_555
C18 C17U 1_555 1_555
C18 C18U 1_555 1_555
C18 C19U 1_555 1_555
C19 C15U 1_555 1_555
C19 C18U 1_555 1_555
C20 C17U 1_555 1_555
C2U C4U 1_555 1_555
C7U C8U 1_555 1_555
C8U C9U 1_555 1_555
C11U C12U 1_555 1_555
C15U C16U 1_555 1_555
C16U C17U 1_555 1_555
C16U C18U 1_555 1_555
C17U C18U 1_555 1_555
C21U C22U 1_555 1_555

#END
