
#######################################################################
#
#                 Cambridge Crystallographic Data Centre
#                                CCDC 
#
#######################################################################
#
# If this CIF has been generated from an entry in the Cambridge 
# Structural Database, then it will include bibliographic, chemical, 
# crystal, experimental, refinement or atomic coordinate data resulting 
# from the CCDC's data processing and validation procedures.
#
#######################################################################

data_PUBSEL
_chemical_formula_moiety         
'(C24 H18 Cu2 O10)n,0.25n(C3 H7 N1 O1),n(H2 O1)'
_chemical_name_systematic        
"catena-[(\m~8~-2',5'-Dimethyl-1,1':4',1''-terphenyl-3,3'',5,5''-tetracarboxylato)-diaqua-di-copper(ii) dimethylformamide solvate monohydrate]"
_symmetry_cell_setting           rhombohedral
_symmetry_space_group_name_H-M   'R -3 m'
_symmetry_Int_Tables_number      166
_space_group_name_Hall           '-R 3 2"'
loop_
_symmetry_equiv_pos_site_id
_symmetry_equiv_pos_as_xyz
1 x,y,z
2 -y,x-y,z
3 -x+y,-x,z
4 y,x,-z
5 x-y,-y,-z
6 -x,-x+y,-z
7 2/3+x,1/3+y,1/3+z
8 2/3-y,1/3+x-y,1/3+z
9 2/3-x+y,1/3-x,1/3+z
10 2/3+y,1/3+x,1/3-z
11 2/3+x-y,1/3-y,1/3-z
12 2/3-x,1/3-x+y,1/3-z
13 1/3+x,2/3+y,2/3+z
14 1/3-y,2/3+x-y,2/3+z
15 1/3-x+y,2/3-x,2/3+z
16 1/3+y,2/3+x,2/3-z
17 1/3+x-y,2/3-y,2/3-z
18 1/3-x,2/3-x+y,2/3-z
19 -x,-y,-z
20 y,-x+y,-z
21 x-y,x,-z
22 -y,-x,z
23 -x+y,y,z
24 x,x-y,z
25 1/3-x,2/3-y,2/3-z
26 1/3+y,2/3-x+y,2/3-z
27 1/3+x-y,2/3+x,2/3-z
28 1/3-y,2/3-x,2/3+z
29 1/3-x+y,2/3+y,2/3+z
30 1/3+x,2/3+x-y,2/3+z
31 2/3-x,1/3-y,1/3-z
32 2/3+y,1/3-x+y,1/3-z
33 2/3+x-y,1/3+x,1/3-z
34 2/3-y,1/3-x,1/3+z
35 2/3-x+y,1/3+y,1/3+z
36 2/3+x,1/3+x-y,1/3+z
_cell_length_a                   18.504(2)
_cell_length_b                   18.504(2)
_cell_length_c                   39.035(5)
_cell_angle_alpha                90
_cell_angle_beta                 90
_cell_angle_gamma                120
_cell_volume                     11574.9
_exptl_crystal_colour            blue
_exptl_crystal_description       block
_cell_formula_units_Z            9
loop_
_atom_site_label
_atom_site_type_symbol
_atom_site_fract_x
_atom_site_fract_y
_atom_site_fract_z
Cu1 Cu 1.190983(16) 0.809019(34) 0.305978(13)
C1 C 1.0260(3) 0.7827(2) 0.30541(8)
C2 C 0.9453(3) 0.7606(2) 0.28819(9)
C3 C 0.88847(45) 0.7769(3) 0.30458(12)
H1 H 0.8997 0.7993 0.3271
C4 C 0.9298(3) 0.7300(2) 0.25543(9)
H2 H 0.9691 0.7192 0.2442
C5 C 0.85729(45) 0.7145(3) 0.23815(13)
C6 C 0.84372(59) 0.6874(4) 0.20182(13)
C7 C 0.8504(7) 0.6172(5) 0.1894(2)
C8 C 0.9061(7) 0.7346(5) 0.17822(19)
H3 H 0.9555 0.7820 0.1863
C9 C 0.8662(8) 0.5622(6) 0.2130(2)
H4 H 0.8546 0.5111 0.2009
H5 H 0.8297 0.5477 0.2331
H6 H 0.9247 0.5920 0.2204
O1 O 1.2301(3) 0.76987(34) 0.26137(13)
O2 O 1.07851(23) 0.77315(16) 0.28871(7)
O3 O 1.03816(18) 0.81391(29) 0.33559(6)
Cu1V Cu 0.618036(38) 0.809019(34) 0.305978(13)
Cu1O Cu 1.142352(34) 0.857650(16) 0.360689(13)
Cu1Z Cu 0.715297(38) 0.857650(16) 0.360689(13)
Cu1J Cu 1.048631(38) 0.524314(34) 0.027355(13)
Cu1N Cu 0.951369(38) 0.475684(16) -0.027355(13)
Cu1DA Cu 0.475684(16) 0.524314(34) 0.027355(13)
Cu1AA Cu 0.524314(34) 0.475684(16) -0.027355(13)
C1V C 0.7567(4) 0.7827(2) 0.30541(8)
C1J C 0.9100(4) 0.5506(2) 0.02792(8)
C1DA C 0.6407(3) 0.5506(2) 0.02792(8)
C2V C 0.8153(4) 0.7606(2) 0.28819(9)
C2J C 0.8514(4) 0.5727(2) 0.04514(9)
C2DA C 0.7214(3) 0.5727(2) 0.04514(9)
C3J C 0.77824(54) 0.5564(3) 0.02875(12)
H1J H 0.7671 0.5340 0.0062
C4V C 0.8002(4) 0.7300(2) 0.25543(9)
C4J C 0.8665(4) 0.6033(2) 0.07790(9)
C4DA C 0.7369(3) 0.6033(2) 0.07790(9)
H2V H 0.7501 0.7192 0.2442
H2DA H 0.6976 0.6141 0.0891
H2J H 0.9166 0.6141 0.0891
C5J C 0.80946(54) 0.6188(3) 0.09518(13)
C6J C 0.82299(71) 0.6459(4) 0.13151(13)
C7V C 0.7668(9) 0.6172(5) 0.1894(2)
C7J C 0.8999(9) 0.7161(5) 0.1439(2)
C7DA C 0.8163(7) 0.7161(5) 0.1439(2)
C8V C 0.8285(9) 0.7346(5) 0.17822(19)
C8J C 0.8382(9) 0.5987(5) 0.15511(19)
C8DA C 0.7606(7) 0.5987(5) 0.15511(19)
H3V H 0.8265 0.7820 0.1863
H3DA H 0.7112 0.5513 0.1470
H3J H 0.8402 0.5513 0.1470
C9J C 0.9707(10) 0.7711(6) 0.1203(2)
C9DA C 0.8005(8) 0.7711(6) 0.1203(2)
C9V C 0.6960(10) 0.5622(6) 0.2130(2)
H4J H 1.0102 0.8222 0.1324
H4DA H 0.8121 0.8222 0.1324
H4V H 0.6565 0.5111 0.2009
H5J H 0.9487 0.7856 0.1002
H5DA H 0.8370 0.7856 0.1002
H5V H 0.7180 0.5477 0.2331
H6J H 0.9994 0.7413 0.1129
H6DA H 0.7420 0.7413 0.1129
H6V H 0.6673 0.5920 0.2204
O1V O 0.53977(45) 0.76987(34) 0.26137(13)
O2V O 0.69464(28) 0.77315(16) 0.28871(7)
O2J O 0.97203(28) 0.56018(16) 0.04462(7)
O2DA O 0.58816(23) 0.56018(16) 0.04462(7)
O2U O 1.22685(16) 0.92149(23) 0.28871(7)
O2B O 0.69464(28) 0.92149(23) 0.28871(7)
O3V O 0.77575(34) 0.81391(29) 0.33559(6)
O3J O 0.89092(34) 0.51942(29) -0.00226(6)
O3DA O 0.62851(18) 0.51942(29) -0.00226(6)
O3O O 1.14724(29) 0.70483(18) 0.33108(6)
O3X O 1.29517(18) 0.85276(29) 0.33108(6)
O3Z O 0.55758(34) 0.70483(18) 0.33108(6)
O3P O 0.55758(34) 0.85276(29) 0.33108(6)
loop_
_geom_bond_atom_site_label_1
_geom_bond_atom_site_label_2
_geom_bond_site_symmetry_1
_geom_bond_site_symmetry_2
Cu1 O1 1_555 1_555
C1 C2 1_555 1_555
C2 C3 1_555 1_555
C3 H1 1_555 1_555
C4 C2 1_555 1_555
H2 C4 1_555 1_555
C5 C4 1_555 1_555
C6 C5 1_555 1_555
C7 C6 1_555 1_555
C8 C6 1_555 1_555
H3 C8 1_555 1_555
C9 C7 1_555 1_555
H4 C9 1_555 1_555
H5 C9 1_555 1_555
H6 C9 1_555 1_555
O2 Cu1 1_555 1_555
O3 C1 1_555 1_555
Cu1V O1V 1_555 1_555
Cu1O O3 1_555 1_555
Cu1Z O3V 1_555 1_555
Cu1J O2J 1_555 1_555
Cu1N O3J 1_555 1_555
Cu1DA O2DA 1_555 1_555
Cu1AA O3DA 1_555 1_555
C1V C2V 1_555 1_555
C1J C2J 1_555 1_555
C1DA C2DA 1_555 1_555
C2V C3 1_555 1_555
C2J C3J 1_555 1_555
C2DA C3J 1_555 1_555
C3J H1J 1_555 1_555
C4V C5 1_555 1_555
C4J C2J 1_555 1_555
C4DA C2DA 1_555 1_555
H2V C4V 1_555 1_555
H2DA C4DA 1_555 1_555
H2J C4J 1_555 1_555
C5J C4J 1_555 1_555
C6J C5J 1_555 1_555
C7V C6 1_555 1_555
C7J C8 1_555 1_555
C7DA C6J 1_555 1_555
C8V C6 1_555 1_555
C8J C7 1_555 1_555
C8DA C6J 1_555 1_555
H3V C8V 1_555 1_555
H3DA C8DA 1_555 1_555
H3J C8J 1_555 1_555
C9J C7J 1_555 1_555
C9DA C7DA 1_555 1_555
C9V C7V 1_555 1_555
H4J C9J 1_555 1_555
H4DA C9DA 1_555 1_555
H4V C9V 1_555 1_555
H5J C9J 1_555 1_555
H5DA C9DA 1_555 1_555
H5V C9V 1_555 1_555
H6J C9J 1_555 1_555
H6DA C9DA 1_555 1_555
H6V C9V 1_555 1_555
O2V Cu1V 1_555 1_555
O2J C1J 1_555 1_555
O2DA C1DA 1_555 1_555
O2U Cu1 1_555 1_555
O2B Cu1V 1_555 1_555
O3V C1V 1_555 1_555
O3J C1J 1_555 1_555
O3DA C1DA 1_555 1_555
O3O Cu1 1_555 1_555
O3X Cu1 1_555 1_555
O3Z Cu1V 1_555 1_555
O3P Cu1V 1_555 1_555
C1 O2 1_555 1_555
C7 C7V 1_555 1_555
C8 C8V 1_555 1_555
C1V O2V 1_555 1_555
C2V C4V 1_555 1_555
C4DA C5J 1_555 1_555
C6J C7J 1_555 1_555
C6J C8J 1_555 1_555
C7V C8DA 1_555 1_555
C7J C7DA 1_555 1_555
C7DA C8V 1_555 1_555
C8J C8DA 1_555 1_555

#END
