
#######################################################################
#
#                 Cambridge Crystallographic Data Centre
#                                CCDC 
#
#######################################################################
#
# If this CIF has been generated from an entry in the Cambridge 
# Structural Database, then it will include bibliographic, chemical, 
# crystal, experimental, refinement or atomic coordinate data resulting 
# from the CCDC's data processing and validation procedures.
#
#######################################################################

data_NIYZIG
_chemical_formula_moiety         '(C21 H15 O9 P1 Zn2)n'
_chemical_name_systematic        
"catena-((\m~7~-4,4',4''-Phosphoryltribenzoato)-(\m~3~-hydroxo)-aqua-di-zinc unknown solvate)"
_symmetry_cell_setting           monoclinic
_symmetry_space_group_name_H-M   'P 21/c'
_symmetry_Int_Tables_number      14
_space_group_name_Hall           '-P 2ybc'
loop_
_symmetry_equiv_pos_site_id
_symmetry_equiv_pos_as_xyz
1 x,y,z
2 -x,1/2+y,1/2-z
3 -x,-y,-z
4 x,1/2-y,1/2+z
_cell_length_a                   13.710(3)
_cell_length_b                   14.753(3)
_cell_length_c                   20.027(4)
_cell_angle_alpha                90
_cell_angle_beta                 107.969(3)
_cell_angle_gamma                90
_cell_volume                     3853.15
_exptl_crystal_colour            colorless
_exptl_crystal_description       prism
_cell_formula_units_Z            4
loop_
_atom_site_label
_atom_site_type_symbol
_atom_site_fract_x
_atom_site_fract_y
_atom_site_fract_z
Zn1 Zn 0.40155(2) 0.974803(19) 0.437866(15)
Zn2 Zn 0.64838(2) 0.90111(3) 0.447148(15)
P1 P 0.72426(5) 0.97341(4) 0.30400(3)
O1 O 0.67001(14) 0.95921(13) 0.35710(9)
O2 O 0.45182(17) 1.31415(14) 0.11301(12)
C1 C 0.70116(19) 0.88159(18) 0.24157(13)
C2 C 0.8604(2) 0.98347(18) 0.34254(14)
O3 O 1.21072(16) 1.06765(18) 0.49370(12)
O4 O 0.63642(19) 0.58086(16) 0.12536(12)
C3 C 0.6784(2) 1.07458(17) 0.25363(14)
O5 O 0.60718(19) 1.35672(16) 0.10874(13)
O6 O 1.24359(16) 0.95582(18) 0.42823(15)
C4 C 0.5939(2) 1.22473(18) 0.17097(15)
C5 C 0.5469(2) 1.30510(18) 0.12709(14)
O7 O 0.6284(2) 0.67218(18) 0.03597(12)
C6 C 0.5319(2) 1.1652(2) 0.1940(2)
H1 H 0.4617 1.1755 0.1819
C7 C 0.6975(2) 1.2065(2) 0.1888(2)
H2 H 0.7398 1.2448 0.1732
H3 H 0.567(3) 1.0513(19) 0.435(2)
O8 O 0.56004(14) 1.00525(15) 0.45858(10)
C8 C 1.0710(2) 0.9985(2) 0.41064(15)
C9 C 0.5744(2) 1.0911(2) 0.2345(2)
H4 H 0.5322 1.0517 0.2493
C10 C 1.1854(2) 1.0076(2) 0.44694(15)
C11 C 0.6722(3) 0.8000(2) 0.26099(17)
H5 H 0.6652 0.7927 0.3054
C12 C 0.8986(2) 1.0478(3) 0.3945(2)
H6 H 0.8533 1.0862 0.4070
C13 C 1.0019(2) 1.0560(3) 0.42765(19)
H7 H 1.0259 1.1003 0.4618
C14 C 0.7393(2) 1.1322(2) 0.2294(2)
H8 H 0.8092 1.1208 0.2406
C15 C 0.7126(4) 0.8913(2) 0.17612(19)
H9 H 0.7333 0.9466 0.1628
C16 C 0.6531(4) 0.7274(2) 0.21437(19)
H10 H 0.6333 0.6719 0.2280
C17 C 0.6931(4) 0.8184(3) 0.12984(18)
H11 H 0.7006 0.8254 0.0855
C18 C 1.0341(3) 0.9340(3) 0.3606(3)
H12 H 1.0796 0.8945 0.3494
C19 C 0.9298(3) 0.9260(3) 0.3258(3)
H13 H 0.9063 0.8821 0.2913
H14 H 0.731(3) 0.7155(12) 0.435(3)
H15 H 0.8140(11) 0.760(3) 0.455(3)
O9 O 0.7456(5) 0.7752(4) 0.4365(3)
C20 C 0.6629(2) 0.7367(2) 0.14880(15)
C21 C 0.6405(2) 0.6573(2) 0.09895(16)
Zn1_2 Zn 1.40155(2) 0.974803(19) 0.437866(15)
Zn1A Zn 0.59845(2) 0.474803(19) 0.062134(15)
Zn1A_2 Zn 0.59845(2) 1.474803(19) 0.062134(15)
Zn1B Zn 0.59845(2) 1.025197(19) 0.562134(15)
Zn2A Zn 0.35162(2) 1.40111(3) 0.052852(15)
Zn2B Zn 1.35162(2) 1.09889(3) 0.552852(15)
Zn2C Zn 0.64838(2) 0.59889(3) -0.052852(15)
O2A O 0.54818(17) 0.81415(14) 0.38699(12)
O3B O 0.78928(16) 0.93235(18) 0.50630(12)
O4A O 0.36358(19) 1.08086(16) 0.37464(12)
O5A O 0.39282(19) 0.85672(16) 0.39126(13)
O6_2 O 0.24359(16) 0.95582(18) 0.42823(15)
O7C O 0.6284(2) 0.82782(18) 0.53597(12)
O8B O 0.43996(14) 0.99475(15) 0.54142(10)
loop_
_geom_bond_atom_site_label_1
_geom_bond_atom_site_label_2
_geom_bond_site_symmetry_1
_geom_bond_site_symmetry_2
Zn1 O8 1_555 1_555
Zn2 O1 1_555 1_555
P1 O1 1_555 1_555
O2 C5 1_555 1_555
C1 P1 1_555 1_555
C2 P1 1_555 1_555
O3 C10 1_555 1_555
O4 C21 1_555 1_555
C3 P1 1_555 1_555
O5 C5 1_555 1_555
O6 C10 1_555 1_555
C4 C5 1_555 1_555
O7 C21 1_555 1_555
C6 C4 1_555 1_555
H1 C6 1_555 1_555
C7 C4 1_555 1_555
H2 C7 1_555 1_555
H3 O8 1_555 1_555
O8 Zn2 1_555 1_555
C8 C10 1_555 1_555
C9 C3 1_555 1_555
H4 C9 1_555 1_555
C11 C1 1_555 1_555
H5 C11 1_555 1_555
C12 C2 1_555 1_555
H6 C12 1_555 1_555
C13 C8 1_555 1_555
H7 C13 1_555 1_555
C14 C3 1_555 1_555
H8 C14 1_555 1_555
C15 C1 1_555 1_555
H9 C15 1_555 1_555
C16 C11 1_555 1_555
H10 C16 1_555 1_555
C17 C15 1_555 1_555
H11 C17 1_555 1_555
C18 C8 1_555 1_555
H12 C18 1_555 1_555
C19 C2 1_555 1_555
H13 C19 1_555 1_555
H14 O9 1_555 1_555
H15 O9 1_555 1_555
O9 Zn2 1_555 1_555
C20 C16 1_555 1_555
C21 C20 1_555 1_555
Zn1_2 O6 1_555 1_555
Zn1A O4 1_555 1_555
Zn1A_2 O5 1_555 1_555
Zn1B O8 1_555 1_555
Zn2A O2 1_555 1_555
Zn2B O3 1_555 1_555
Zn2C O7 1_555 1_555
O2A Zn2 1_555 1_555
O3B Zn2 1_555 1_555
O4A Zn1 1_555 1_555
O5A Zn1 1_555 1_555
O6_2 Zn1 1_555 1_555
O7C Zn2 1_555 1_555
O8B Zn1 1_555 1_555
C6 C9 1_555 1_555
C7 C14 1_555 1_555
C12 C13 1_555 1_555
C17 C20 1_555 1_555
C18 C19 1_555 1_555
Zn1B O8B 1_555 1_555

#END
