
#######################################################################
#
#                 Cambridge Crystallographic Data Centre
#                                CCDC 
#
#######################################################################
#
# If this CIF has been generated from an entry in the Cambridge 
# Structural Database, then it will include bibliographic, chemical, 
# crystal, experimental, refinement or atomic coordinate data resulting 
# from the CCDC's data processing and validation procedures.
#
#######################################################################

data_NIYZOM
_chemical_formula_moiety         '(C42 H24 O15 P2 Zn3)n'
_chemical_name_systematic        
"catena-(bis(\m~9~-4,4',4''-Phosphoryltribenzoato)-(\m~6~-oxo)-hexa-zinc unknown solvate)"
_symmetry_cell_setting           cubic
_symmetry_space_group_name_H-M   'I a -3'
_symmetry_Int_Tables_number      206
_space_group_name_Hall           '-I 2b 2c 3'
loop_
_symmetry_equiv_pos_site_id
_symmetry_equiv_pos_as_xyz
1 x,y,z
2 z,x,y
3 y,z,x
4 -y,1/2-z,x
5 z,-x,1/2-y
6 1/2-y,z,-x
7 -z,1/2-x,y
8 1/2-z,x,-y
9 y,-z,1/2-x
10 -x,1/2-y,z
11 x,-y,1/2-z
12 1/2-x,y,-z
13 1/2+x,1/2+y,1/2+z
14 1/2+z,1/2+x,1/2+y
15 1/2+y,1/2+z,1/2+x
16 1/2-y,-z,1/2+x
17 1/2+z,1/2-x,-y
18 -y,1/2+z,1/2-x
19 1/2-z,-x,1/2+y
20 -z,1/2+x,1/2-y
21 1/2+y,1/2-z,-x
22 1/2-x,-y,1/2+z
23 1/2+x,1/2-y,-z
24 -x,1/2+y,1/2-z
25 -x,-y,-z
26 -z,-x,-y
27 -y,-z,-x
28 y,1/2+z,-x
29 -z,x,1/2+y
30 1/2+y,-z,x
31 z,1/2+x,-y
32 1/2+z,-x,y
33 -y,z,1/2+x
34 x,1/2+y,-z
35 -x,y,1/2+z
36 1/2+x,-y,z
37 1/2-x,1/2-y,1/2-z
38 1/2-z,1/2-x,1/2-y
39 1/2-y,1/2-z,1/2-x
40 1/2+y,z,1/2-x
41 1/2-z,1/2+x,y
42 y,1/2-z,1/2+x
43 1/2+z,x,1/2-y
44 z,1/2-x,1/2+y
45 1/2-y,1/2+z,x
46 1/2+x,y,1/2-z
47 1/2-x,1/2+y,z
48 x,1/2-y,1/2+z
_cell_length_a                   22.9082(3)
_cell_length_b                   22.9082(3)
_cell_length_c                   22.9082(3)
_cell_angle_alpha                90
_cell_angle_beta                 90
_cell_angle_gamma                90
_cell_volume                     12021.9
_exptl_crystal_colour            colorless
_exptl_crystal_description       block
_cell_formula_units_Z            8
loop_
_atom_site_label
_atom_site_type_symbol
_atom_site_fract_x
_atom_site_fract_y
_atom_site_fract_z
_atom_site_U_iso_or_equiv
_atom_site_thermal_displace_type
Zn1 Zn 0.46311(7) 0.51994(7) 0.57453(7) 0.0584 Uani
P1 P 0.39307(7) 0.89307(7) 0.60693(7) 0.0575 Uani
O1 O 0.5000 0.5000 0.5000 0.0540 Uani
O2 O 0.4438(3) 0.6021(2) 0.5889(3) 0.0983 Uani
C1 C 0.4057(3) 0.8167(3) 0.5935(3) 0.0583 Uani
C2 C 0.4098(4) 0.7758(3) 0.6368(3) 0.0880 Uani
H1 H 0.4054 0.7873 0.6764 0.1050 Uiso
C3 C 0.4282(4) 0.7005(3) 0.5660(3) 0.0787 Uani
C4 C 0.4100(5) 0.7994(4) 0.5371(3) 0.1073 Uani
H2 H 0.4061 0.8269 0.5063 0.1290 Uiso
C5 C 0.4202(5) 0.7407(4) 0.5251(4) 0.1177 Uani
H3 H 0.4215 0.7287 0.4854 0.1410 Uiso
C6 C 0.4201(4) 0.7182(3) 0.6237(4) 0.0890 Uani
H4 H 0.4217 0.6901 0.6542 0.1070 Uiso
C7 C 0.4453(5) 0.6390(4) 0.5494(4) 0.1063 Uani
O3 O 0.4260(6) 0.6180(4) 0.5056(5) 0.0913 Uani
O4 O 0.4297(2) 0.9297(2) 0.5703(2) 0.0300 Uani
O2S O 0.4111(3) 0.9438(3) 0.8979(2) 0.0983 Uani
C1S C 0.4065(3) 0.9057(3) 0.6833(3) 0.0583 Uani
C2S C 0.3632(3) 0.9098(4) 0.7242(3) 0.0880 Uani
H1S H 0.3236 0.9054 0.7127 0.1050 Uiso
C3S C 0.4340(3) 0.9282(4) 0.7995(3) 0.0787 Uani
C4S C 0.4629(3) 0.9100(5) 0.7006(4) 0.1073 Uani
H2S H 0.4937 0.9061 0.6731 0.1290 Uiso
C5S C 0.4749(4) 0.9202(5) 0.7593(4) 0.1177 Uani
H3S H 0.5146 0.9215 0.7713 0.1410 Uiso
C6S C 0.3763(4) 0.9201(4) 0.7818(3) 0.0890 Uani
H4S H 0.3458 0.9217 0.8099 0.1070 Uiso
C7S C 0.4506(4) 0.9453(5) 0.8610(4) 0.1063 Uani
O3S O 0.4944(5) 0.9260(6) 0.8820(4) 0.0913 Uani
O2T O 0.1021(2) 0.9111(3) 0.5562(3) 0.0983 Uani
C1T C 0.3167(3) 0.9065(3) 0.5943(3) 0.0583 Uani
C2T C 0.2758(3) 0.8632(3) 0.5902(4) 0.0880 Uani
H1T H 0.2873 0.8236 0.5946 0.1050 Uiso
C3T C 0.2005(3) 0.9340(3) 0.5718(4) 0.0787 Uani
C4T C 0.2994(4) 0.9629(3) 0.5900(5) 0.1073 Uani
H2T H 0.3269 0.9937 0.5939 0.1290 Uiso
C5T C 0.2407(4) 0.9749(4) 0.5798(5) 0.1177 Uani
H3T H 0.2287 1.0146 0.5785 0.1410 Uiso
C6T C 0.2182(3) 0.8763(4) 0.5799(4) 0.0890 Uani
H4T H 0.1901 0.8458 0.5783 0.1070 Uiso
C7T C 0.1390(4) 0.9506(4) 0.5547(5) 0.1063 Uani
O3T O 0.1180(4) 0.9944(5) 0.5740(6) 0.0913 Uani
Zn1A Zn 0.57453(7) 0.46311(7) 0.51994(7) 0.0584 Uani
Zn1B Zn 0.51994(7) 0.57453(7) 0.46311(7) 0.0584 Uani
Zn1X Zn 0.53689(7) 0.48006(7) 0.42547(7) 0.0584 Uani
P1X P 0.60693(7) 0.10693(7) 0.39307(7) 0.0575 Uani
O2X O 0.5562(3) 0.3979(2) 0.4111(3) 0.0983 Uani
C1X C 0.5943(3) 0.1833(3) 0.4065(3) 0.0583 Uani
C2X C 0.5902(4) 0.2242(3) 0.3632(3) 0.0880 Uani
H1X H 0.5946 0.2127 0.3236 0.1050 Uiso
C3X C 0.5718(4) 0.2995(3) 0.4340(3) 0.0787 Uani
C4X C 0.5900(5) 0.2006(4) 0.4629(3) 0.1073 Uani
H2X H 0.5939 0.1731 0.4937 0.1290 Uiso
C5X C 0.5798(5) 0.2593(4) 0.4749(4) 0.1177 Uani
H3X H 0.5785 0.2713 0.5146 0.1410 Uiso
C6X C 0.5799(4) 0.2818(3) 0.3763(4) 0.0890 Uani
H4X H 0.5783 0.3099 0.3458 0.1070 Uiso
C7X C 0.5547(5) 0.3610(4) 0.4506(4) 0.1063 Uani
O3X O 0.5740(6) 0.3820(4) 0.4944(5) 0.0913 Uani
O4X O 0.5703(2) 0.0703(2) 0.4297(2) 0.0300 Uani
O2QA O 0.5889(3) 0.0562(3) 0.1021(2) 0.0983 Uani
C1QA C 0.5935(3) 0.0943(3) 0.3167(3) 0.0583 Uani
C2QA C 0.6368(3) 0.0902(4) 0.2758(3) 0.0880 Uani
H1QA H 0.6764 0.0946 0.2873 0.1050 Uiso
C3QA C 0.5660(3) 0.0718(4) 0.2005(3) 0.0787 Uani
C4QA C 0.5371(3) 0.0900(5) 0.2994(4) 0.1073 Uani
H2QA H 0.5063 0.0939 0.3269 0.1290 Uiso
C5QA C 0.5251(4) 0.0798(5) 0.2407(4) 0.1177 Uani
H3QA H 0.4854 0.0785 0.2287 0.1410 Uiso
C6QA C 0.6237(4) 0.0799(4) 0.2182(3) 0.0890 Uani
H4QA H 0.6542 0.0783 0.1901 0.1070 Uiso
C7QA C 0.5494(4) 0.0547(5) 0.1390(4) 0.1063 Uani
O3QA O 0.5056(5) 0.0740(6) 0.1180(4) 0.0913 Uani
O2RA O 0.8979(2) 0.0889(3) 0.4438(3) 0.0983 Uani
C1RA C 0.6833(3) 0.0935(3) 0.4057(3) 0.0583 Uani
C2RA C 0.7242(3) 0.1368(3) 0.4098(4) 0.0880 Uani
H1RA H 0.7127 0.1764 0.4054 0.1050 Uiso
C3RA C 0.7995(3) 0.0660(3) 0.4282(4) 0.0787 Uani
C4RA C 0.7006(4) 0.0371(3) 0.4100(5) 0.1073 Uani
H2RA H 0.6731 0.0063 0.4061 0.1290 Uiso
C5RA C 0.7593(4) 0.0251(4) 0.4202(5) 0.1177 Uani
H3RA H 0.7713 -0.0146 0.4215 0.1410 Uiso
C6RA C 0.7818(3) 0.1237(4) 0.4201(4) 0.0890 Uani
H4RA H 0.8099 0.1542 0.4217 0.1070 Uiso
C7RA C 0.8610(4) 0.0494(4) 0.4453(5) 0.1063 Uani
O3RA O 0.8820(4) 0.0056(5) 0.4260(6) 0.0913 Uani
Zn1Y Zn 0.42547(7) 0.53689(7) 0.48006(7) 0.0584 Uani
Zn1Z Zn 0.48006(7) 0.42547(7) 0.53689(7) 0.0584 Uani
Zn1P Zn 0.07453(7) 1.03689(7) 0.48006(7) 0.0584 Uani
Zn1Q Zn 0.48006(7) 0.07453(7) 0.03689(7) 0.0584 Uani
Zn1S Zn 0.42547(7) 0.96311(7) 0.98006(7) 0.0584 Uani
Zn1T Zn 0.01994(7) 0.92547(7) 0.53689(7) 0.0584 Uani
Zn1V Zn 0.96311(7) -0.01994(7) 0.42547(7) 0.0584 Uani
Zn1W Zn 0.53689(7) 1.01994(7) 0.92547(7) 0.0584 Uani
Zn1NA Zn 0.92547(7) -0.03689(7) 0.51994(7) 0.0584 Uani
Zn1OA Zn 0.51994(7) 0.92547(7) 0.96311(7) 0.0584 Uani
Zn1QA Zn 0.57453(7) 0.03689(7) 0.01994(7) 0.0584 Uani
Zn1RA Zn 0.98006(7) 0.07453(7) 0.46311(7) 0.0584 Uani
Zn1TA Zn 0.03689(7) 1.01994(7) 0.57453(7) 0.0584 Uani
Zn1UA Zn 0.46311(7) -0.01994(7) 0.07453(7) 0.0584 Uani
O2A O 0.5889(3) 0.4438(3) 0.6021(2) 0.0983 Uani
O2B O 0.6021(2) 0.5889(3) 0.4438(3) 0.0983 Uani
O2Y O 0.4111(3) 0.5562(3) 0.3979(2) 0.0983 Uani
O2Z O 0.3979(2) 0.4111(3) 0.5562(3) 0.0983 Uani
O3A O 0.5056(5) 0.4260(6) 0.6180(4) 0.0913 Uani
O3B O 0.6180(4) 0.5056(5) 0.4260(6) 0.0913 Uani
O3Y O 0.4944(5) 0.5740(6) 0.3820(4) 0.0913 Uani
O3Z O 0.3820(4) 0.4944(5) 0.5740(6) 0.0913 Uani
O5? O 0.4774(5) 0.6380(4) 0.4979(3) 0.0563 Uani
O6? O 0.5507(3) 0.5507(3) 0.5507(3) 0.0196 Uani
loop_
_atom_site_aniso_label
_atom_site_aniso_U_11
_atom_site_aniso_U_22
_atom_site_aniso_U_33
_atom_site_aniso_U_23
_atom_site_aniso_U_13
_atom_site_aniso_U_12
Zn1 0.0736(11) 0.0518(9) 0.0499(8) 0.0069(7) 0.0104(8) 0.0139(8)
P1 0.0575(7) 0.0575(7) 0.0575(7) -0.0051(7) -0.0051(7) 0.0051(7)
O1 0.054(2) 0.054(2) 0.054(2) -0.005(2) -0.005(2) -0.005(2)
O2 0.119(5) 0.074(3) 0.102(4) -0.007(3) -0.017(3) 0.013(3)
C1 0.063(4) 0.060(3) 0.052(3) -0.008(3) -0.011(3) 0.014(3)
C2 0.139(7) 0.064(4) 0.061(4) -0.011(3) 0.003(4) 0.008(4)
C3 0.103(5) 0.072(4) 0.061(4) -0.015(3) -0.024(4) 0.032(4)
C4 0.179(10) 0.088(6) 0.055(4) -0.003(4) -0.011(5) 0.069(6)
C5 0.206(11) 0.081(5) 0.066(5) -0.019(4) -0.031(6) 0.068(7)
C6 0.114(6) 0.068(5) 0.085(5) 0.003(4) -0.002(5) -0.004(4)
C7 0.177(10) 0.070(5) 0.072(5) -0.006(4) -0.048(6) 0.045(6)
O3 0.116(10) 0.074(6) 0.084(7) -0.021(5) 0.007(6) 0.000(6)
O4 0.030(2) 0.030(2) 0.030(2) 0.012(2) 0.012(2) -0.012(2)
O2S 0.102 0.119 0.074 -0.013 -0.007 0.017
C1S 0.052 0.063 0.06 -0.014 -0.008 0.011
C2S 0.061 0.139 0.064 -0.008 -0.011 -0.003
C3S 0.061 0.103 0.072 -0.032 -0.015 0.024
C4S 0.055 0.179 0.088 -0.069 -0.003 0.011
C5S 0.066 0.206 0.081 -0.068 -0.019 0.031
C6S 0.085 0.114 0.068 0.004 0.003 0.002
C7S 0.072 0.177 0.07 -0.045 -0.006 0.048
O3S 0.084 0.116 0.074 0 -0.021 -0.007
O2T 0.074 0.102 0.119 -0.017 -0.013 0.007
C1T 0.06 0.052 0.063 -0.011 -0.014 0.008
C2T 0.064 0.061 0.139 0.003 -0.008 0.011
C3T 0.072 0.061 0.103 -0.024 -0.032 0.015
C4T 0.088 0.055 0.179 -0.011 -0.069 0.003
C5T 0.081 0.066 0.206 -0.031 -0.068 0.019
C6T 0.068 0.085 0.114 -0.002 0.004 -0.003
C7T 0.07 0.072 0.177 -0.048 -0.045 0.006
O3T 0.074 0.084 0.116 0.007 0 0.021
Zn1A 0.0499 0.0736 0.0518 0.0139 0.0069 0.0104
Zn1B 0.0518 0.0499 0.0736 0.0104 0.0139 0.0069
Zn1X 0.0736 0.0518 0.0499 0.0069 0.0104 0.0139
P1X 0.0575 0.0575 0.0575 -0.0051 -0.0051 0.0051
O2X 0.119 0.074 0.102 -0.007 -0.017 0.013
C1X 0.063 0.06 0.052 -0.008 -0.011 0.014
C2X 0.139 0.064 0.061 -0.011 0.003 0.008
C3X 0.103 0.072 0.061 -0.015 -0.024 0.032
C4X 0.179 0.088 0.055 -0.003 -0.011 0.069
C5X 0.206 0.081 0.066 -0.019 -0.031 0.068
C6X 0.114 0.068 0.085 0.003 -0.002 -0.004
C7X 0.177 0.07 0.072 -0.006 -0.048 0.045
O3X 0.116 0.074 0.084 -0.021 0.007 0
O4X 0.03 0.03 0.03 0.012 0.012 -0.012
O2QA 0.102 0.119 0.074 -0.013 -0.007 0.017
C1QA 0.052 0.063 0.06 -0.014 -0.008 0.011
C2QA 0.061 0.139 0.064 -0.008 -0.011 -0.003
C3QA 0.061 0.103 0.072 -0.032 -0.015 0.024
C4QA 0.055 0.179 0.088 -0.069 -0.003 0.011
C5QA 0.066 0.206 0.081 -0.068 -0.019 0.031
C6QA 0.085 0.114 0.068 0.004 0.003 0.002
C7QA 0.072 0.177 0.07 -0.045 -0.006 0.048
O3QA 0.084 0.116 0.074 0 -0.021 -0.007
O2RA 0.074 0.102 0.119 -0.017 -0.013 0.007
C1RA 0.06 0.052 0.063 -0.011 -0.014 0.008
C2RA 0.064 0.061 0.139 0.003 -0.008 0.011
C3RA 0.072 0.061 0.103 -0.024 -0.032 0.015
C4RA 0.088 0.055 0.179 -0.011 -0.069 0.003
C5RA 0.081 0.066 0.206 -0.031 -0.068 0.019
C6RA 0.068 0.085 0.114 -0.002 0.004 -0.003
C7RA 0.07 0.072 0.177 -0.048 -0.045 0.006
O3RA 0.074 0.084 0.116 0.007 0 0.021
Zn1Y 0.0499 0.0736 0.0518 0.0139 0.0069 0.0104
Zn1Z 0.0518 0.0499 0.0736 0.0104 0.0139 0.0069
Zn1P 0.0499 0.0736 0.0518 0.0139 -0.0069 -0.0104
Zn1Q 0.0518 0.0499 0.0736 -0.0104 0.0139 -0.0069
Zn1S 0.0499 0.0736 0.0518 -0.0139 0.0069 -0.0104
Zn1T 0.0518 0.0499 0.0736 0.0104 -0.0139 -0.0069
Zn1V 0.0736 0.0518 0.0499 0.0069 -0.0104 -0.0139
Zn1W 0.0736 0.0518 0.0499 -0.0069 0.0104 -0.0139
Zn1NA 0.0499 0.0736 0.0518 0.0139 -0.0069 -0.0104
Zn1OA 0.0518 0.0499 0.0736 -0.0104 0.0139 -0.0069
Zn1QA 0.0499 0.0736 0.0518 -0.0139 0.0069 -0.0104
Zn1RA 0.0518 0.0499 0.0736 0.0104 -0.0139 -0.0069
Zn1TA 0.0736 0.0518 0.0499 0.0069 -0.0104 -0.0139
Zn1UA 0.0736 0.0518 0.0499 -0.0069 0.0104 -0.0139
O2A 0.102 0.119 0.074 0.013 -0.007 -0.017
O2B 0.074 0.102 0.119 -0.017 0.013 -0.007
O2Y 0.102 0.119 0.074 0.013 -0.007 -0.017
O2Z 0.074 0.102 0.119 -0.017 0.013 -0.007
O3A 0.084 0.116 0.074 0 -0.021 0.007
O3B 0.074 0.084 0.116 0.007 0 -0.021
O3Y 0.084 0.116 0.074 0 -0.021 0.007
O3Z 0.074 0.084 0.116 0.007 0 -0.021
O5? 0.079(8) 0.056(5) 0.034(4) -0.005(3) -0.015(4) 0.027(5)
O6? 0.0196 0.0196 0.0196 0.005 0.005 0.005
loop_
_geom_bond_atom_site_label_1
_geom_bond_atom_site_label_2
_geom_bond_site_symmetry_1
_geom_bond_site_symmetry_2
Zn1 O1 1_555 1_555
P1 C1 1_555 1_555
O1 Zn1A 1_555 1_555
O2 Zn1 1_555 1_555
C1 C2 1_555 1_555
C2 H1 1_555 1_555
C3 C5 1_555 1_555
C4 C1 1_555 1_555
H2 C4 1_555 1_555
C5 C4 1_555 1_555
H3 C5 1_555 1_555
C6 C2 1_555 1_555
H4 C6 1_555 1_555
C7 O2 1_555 1_555
O3 C7 1_555 1_555
O4 P1 1_555 1_555
O2S C7S 1_555 1_555
C1S P1 1_555 1_555
C2S C1S 1_555 1_555
H1S C2S 1_555 1_555
C3S C5S 1_555 1_555
C4S C1S 1_555 1_555
H2S C4S 1_555 1_555
C5S C4S 1_555 1_555
H3S C5S 1_555 1_555
C6S C2S 1_555 1_555
H4S C6S 1_555 1_555
C7S C3S 1_555 1_555
O3S C7S 1_555 1_555
O2T C7T 1_555 1_555
C1T P1 1_555 1_555
C2T C1T 1_555 1_555
H1T C2T 1_555 1_555
C3T C5T 1_555 1_555
C4T C1T 1_555 1_555
H2T C4T 1_555 1_555
C5T C4T 1_555 1_555
H3T C5T 1_555 1_555
C6T C2T 1_555 1_555
H4T C6T 1_555 1_555
C7T C3T 1_555 1_555
O3T C7T 1_555 1_555
Zn1A O3X 1_555 1_555
Zn1B O1 1_555 1_555
Zn1X O1 1_555 1_555
P1X C1X 1_555 1_555
O2X Zn1X 1_555 1_555
C1X C2X 1_555 1_555
C2X H1X 1_555 1_555
C3X C5X 1_555 1_555
C4X C1X 1_555 1_555
H2X C4X 1_555 1_555
C5X C4X 1_555 1_555
H3X C5X 1_555 1_555
C6X C2X 1_555 1_555
H4X C6X 1_555 1_555
C7X O2X 1_555 1_555
O3X C7X 1_555 1_555
O4X P1X 1_555 1_555
O2QA C7QA 1_555 1_555
C1QA P1X 1_555 1_555
C2QA C1QA 1_555 1_555
H1QA C2QA 1_555 1_555
C3QA C5QA 1_555 1_555
C4QA C1QA 1_555 1_555
H2QA C4QA 1_555 1_555
C5QA C4QA 1_555 1_555
H3QA C5QA 1_555 1_555
C6QA C2QA 1_555 1_555
H4QA C6QA 1_555 1_555
C7QA C3QA 1_555 1_555
O3QA C7QA 1_555 1_555
O2RA C7RA 1_555 1_555
C1RA P1X 1_555 1_555
C2RA C1RA 1_555 1_555
H1RA C2RA 1_555 1_555
C3RA C5RA 1_555 1_555
C4RA C1RA 1_555 1_555
H2RA C4RA 1_555 1_555
C5RA C4RA 1_555 1_555
H3RA C5RA 1_555 1_555
C6RA C2RA 1_555 1_555
H4RA C6RA 1_555 1_555
C7RA C3RA 1_555 1_555
O3RA C7RA 1_555 1_555
Zn1Y O1 1_555 1_555
Zn1Z O1 1_555 1_555
Zn1P O3T 1_555 1_555
Zn1Q O3QA 1_555 1_555
Zn1S O2S 1_555 1_555
Zn1T O2T 1_555 1_555
Zn1V O3RA 1_555 1_555
Zn1W O3S 1_555 1_555
Zn1NA O3RA 1_555 1_555
Zn1OA O3S 1_555 1_555
Zn1QA O2QA 1_555 1_555
Zn1RA O2RA 1_555 1_555
Zn1TA O3T 1_555 1_555
Zn1UA O3QA 1_555 1_555
O2A Zn1A 1_555 1_555
O2B Zn1B 1_555 1_555
O2Y Zn1Y 1_555 1_555
O2Z Zn1Z 1_555 1_555
O3A Zn1 1_555 1_555
O3B Zn1A 1_555 1_555
O3Y Zn1B 1_555 1_555
O3Z Zn1 1_555 1_555
C3 C6 1_555 1_555
C3 C7 1_555 1_555
O3 Zn1B 1_555 1_555
O3 Zn1Y 1_555 1_555
C3S C6S 1_555 1_555
C3T C6T 1_555 1_555
Zn1X O3B 1_555 1_555
Zn1X O3Y 1_555 1_555
C3X C6X 1_555 1_555
C3X C7X 1_555 1_555
O3X Zn1Z 1_555 1_555
C3QA C6QA 1_555 1_555
C3RA C6RA 1_555 1_555
Zn1Y O3Z 1_555 1_555
Zn1Z O3A 1_555 1_555

#END
