
#######################################################################
#
#                 Cambridge Crystallographic Data Centre
#                                CCDC 
#
#######################################################################
#
# If this CIF has been generated from an entry in the Cambridge 
# Structural Database, then it will include bibliographic, chemical, 
# crystal, experimental, refinement or atomic coordinate data resulting 
# from the CCDC's data processing and validation procedures.
#
#######################################################################

data_XAFFUH
_chemical_name_common            DUT-12(Cu)
_chemical_formula_moiety         '(C40 H28 Cu2 N2 O10)n'
_chemical_name_systematic        
"catena-((\m~8~-4,4',4'',4'''-(biphenyl-4,4'-diyldinitrilo)tetrabenzoato)-diaqua-di-copper unknown solvate)"
_symmetry_cell_setting           tetragonal
_symmetry_space_group_name_H-M   'P 4/m n c'
_symmetry_Int_Tables_number      128
_space_group_name_Hall           '-P 4 2n'
loop_
_symmetry_equiv_pos_site_id
_symmetry_equiv_pos_as_xyz
1 x,y,z
2 1/2+x,1/2-y,1/2-z
3 -x,-y,z
4 1/2-x,1/2+y,1/2-z
5 1/2+y,1/2+x,1/2-z
6 y,-x,z
7 -y,x,z
8 1/2-y,1/2-x,1/2-z
9 -x,-y,-z
10 1/2-x,1/2+y,1/2+z
11 x,y,-z
12 1/2+x,1/2-y,1/2+z
13 1/2-y,1/2-x,1/2+z
14 -y,x,-z
15 y,-x,-z
16 1/2+y,1/2+x,1/2+z
_cell_length_a                   36.3295(5)
_cell_length_b                   36.3295(5)
_cell_length_c                   24.0870(3)
_cell_angle_alpha                90
_cell_angle_beta                 90
_cell_angle_gamma                90
_cell_volume                     31790.8
_exptl_crystal_colour            green
_exptl_crystal_description       block
_cell_formula_units_Z            8
loop_
_atom_site_label
_atom_site_type_symbol
_atom_site_fract_x
_atom_site_fract_y
_atom_site_fract_z
C1 C 0.67273(7) 0.17273(7) 0.7500
C2 C 0.72697(7) 0.22697(7) 0.7500
C3 C 0.75543(7) 0.25543(7) 0.7500
C4 C 0.77458(11) 0.26534(10) 0.70301(13)
H1 H 0.7691 0.2535 0.6698
C5 C 0.84245(8) 0.41462(7) 0.62012(11)
C6 C 0.81002(7) 0.31002(7) 0.7500
C7 C 0.83958(9) 0.36310(9) 0.70551(12)
C8 C 0.87419(9) 0.39979(9) 0.64223(12)
H2 H 0.8970 0.4071 0.6287
C9 C 0.64444(9) 0.11854(9) 0.79401(12)
C10 C 0.64597(8) 0.06687(7) 0.87924(10)
C11 C 0.61236(8) 0.10533(9) 0.81576(12)
H3 H 0.5900 0.1137 0.8020
C12 C 0.61276(8) 0.07965(8) 0.85788(11)
H4 H 0.5907 0.0708 0.8721
C13 C 0.80910(9) 0.40337(9) 0.64158(12)
H5 H 0.7874 0.4130 0.6271
C14 C 0.70728(11) 0.21933(10) 0.79682(13)
H6 H 0.7123 0.2318 0.8297
C15 C 0.67809(8) 0.08040(9) 0.85760(12)
H7 H 0.7005 0.0722 0.8714
C16 C 0.87218(9) 0.37405(9) 0.68465(12)
H8 H 0.8938 0.3641 0.6990
C17 C 0.67922(11) 0.19249(11) 0.79548(13)
H9 H 0.6650 0.1885 0.8270
C18 C 0.80086(11) 0.29143(11) 0.70317(14)
H10 H 0.8131 0.2969 0.6703
C19 C 0.67746(8) 0.10631(9) 0.81519(13)
H11 H 0.6995 0.1154 0.8010
C20 C 0.80755(10) 0.37827(10) 0.68390(13)
H12 H 0.7848 0.3713 0.6983
C21 C 0.84462(9) 0.44255(7) 0.57517(10)
C22 C 0.64638(8) 0.03950(7) 0.92448(11)
N1 N 0.64484(6) 0.14484(6) 0.7500
N2 N 0.83751(6) 0.33751(6) 0.7500
Cu1 Cu 0.812870(11) 0.493470(11) 0.5000
Cu2 Cu 0.615070(11) -0.011180(11) 1.0000
O1 O 0.75411(8) 0.49897(10) 0.5000
O2 O 0.81463(5) 0.45530(5) 0.55759(7)
O3 O 0.55600(8) -0.02167(10) 1.0000
O4 O 0.61686(5) 0.02682(5) 0.94211(7)
O5 O 0.87560(5) 0.45184(5) 0.55798(7)
O6 O 0.67803(5) 0.03044(5) 0.94231(7)
C4D C 0.76534(10) 0.27458(11) 0.79699(13)
H1D H 0.7535 0.2691 0.8302
C5D C 0.91462(7) 0.34245(8) 0.87988(11)
C7D C 0.86310(9) 0.33958(9) 0.79449(12)
C8D C 0.89979(9) 0.37419(9) 0.85777(12)
H2D H 0.9071 0.3970 0.8713
C9D C 0.61854(9) 0.14444(9) 0.70599(12)
C10D C 0.56687(7) 0.14597(8) 0.62076(10)
C11D C 0.60533(9) 0.11236(8) 0.68424(12)
H3D H 0.6137 0.0900 0.6980
C12D C 0.57965(8) 0.11276(8) 0.64212(11)
H4D H 0.5708 0.0907 0.6279
C13D C 0.90337(9) 0.30910(9) 0.85842(12)
H5D H 0.9130 0.2874 0.8729
C14D C 0.71933(10) 0.20728(11) 0.70318(13)
H6D H 0.7318 0.2123 0.6703
C15D C 0.58040(9) 0.17809(8) 0.64240(12)
H7D H 0.5722 0.2005 0.6286
C16D C 0.87405(9) 0.37218(9) 0.81535(12)
H8D H 0.8641 0.3938 0.8010
C17D C 0.69249(11) 0.17922(11) 0.70452(13)
H9D H 0.6885 0.1650 0.6730
C18D C 0.79143(11) 0.30086(11) 0.79683(14)
H10D H 0.7969 0.3131 0.8297
C19D C 0.60631(9) 0.17746(8) 0.68481(13)
H11D H 0.6154 0.1995 0.6990
C20D C 0.87827(10) 0.30755(10) 0.81610(13)
H12D H 0.8713 0.2848 0.8017
C21D C 0.94255(7) 0.34462(9) 0.92483(10)
C22D C 0.53950(7) 0.14638(8) 0.57552(11)
Cu1C Cu 0.687130(11) -0.006530(11) 1.0000
Cu1D Cu 0.993470(11) 0.312870(11) 1.0000
Cu1E Cu 0.493470(11) 0.187130(11) 0.5000
Cu2C Cu 0.884930(11) 0.488820(11) 0.5000
Cu2E Cu 0.988820(11) 0.384930(11) 1.0000
Cu2D Cu 0.488820(11) 0.115070(11) 0.5000
O2D O 0.95530(5) 0.31463(5) 0.94241(7)
O2J O 0.81463(5) 0.45530(5) 0.44241(7)
O4D O 0.52682(5) 0.11686(5) 0.55789(7)
O4J O 0.61686(5) 0.02682(5) 1.05789(7)
O5D O 0.95184(5) 0.37560(5) 0.94202(7)
O5I O 0.62440(5) -0.04816(5) 1.05798(7)
O5C O 0.62440(5) -0.04816(5) 0.94202(7)
O6D O 0.53044(5) 0.17803(5) 0.55769(7)
O6I O 0.82197(5) 0.53044(5) 0.44231(7)
O6C O 0.82197(5) 0.53044(5) 0.55769(7)
loop_
_geom_bond_atom_site_label_1
_geom_bond_atom_site_label_2
_geom_bond_site_symmetry_1
_geom_bond_site_symmetry_2
C1 C17 1_555 1_555
C2 C3 1_555 1_555
C3 C4 1_555 1_555
C4 H1 1_555 1_555
C5 C8 1_555 1_555
C6 C18 1_555 1_555
C7 C16 1_555 1_555
C8 H2 1_555 1_555
C9 C11 1_555 1_555
C10 C12 1_555 1_555
C11 H3 1_555 1_555
C12 C11 1_555 1_555
H4 C12 1_555 1_555
C13 C5 1_555 1_555
H5 C13 1_555 1_555
C14 C2 1_555 1_555
H6 C14 1_555 1_555
C15 C10 1_555 1_555
H7 C15 1_555 1_555
C16 C8 1_555 1_555
H8 C16 1_555 1_555
C17 C14 1_555 1_555
H9 C17 1_555 1_555
C18 C4 1_555 1_555
H10 C18 1_555 1_555
C19 C9 1_555 1_555
H11 C19 1_555 1_555
C20 C7 1_555 1_555
H12 C20 1_555 1_555
C21 C5 1_555 1_555
C22 C10 1_555 1_555
N1 C1 1_555 1_555
N2 C6 1_555 1_555
Cu1 O1 1_555 1_555
Cu2 O3 1_555 1_555
O2 C21 1_555 1_555
O4 C22 1_555 1_555
O5 C21 1_555 1_555
O6 C22 1_555 1_555
C4D C3 1_555 1_555
H1D C4D 1_555 1_555
C5D C8D 1_555 1_555
C7D N2 1_555 1_555
C8D H2D 1_555 1_555
C9D N1 1_555 1_555
C10D C12D 1_555 1_555
C11D C9D 1_555 1_555
H3D C11D 1_555 1_555
C12D C11D 1_555 1_555
H4D C12D 1_555 1_555
C13D C5D 1_555 1_555
H5D C13D 1_555 1_555
C14D C2 1_555 1_555
H6D C14D 1_555 1_555
C15D C10D 1_555 1_555
H7D C15D 1_555 1_555
C16D C7D 1_555 1_555
H8D C16D 1_555 1_555
C17D C1 1_555 1_555
H9D C17D 1_555 1_555
C18D C6 1_555 1_555
H10D C18D 1_555 1_555
C19D C9D 1_555 1_555
H11D C19D 1_555 1_555
C20D C7D 1_555 1_555
H12D C20D 1_555 1_555
C21D C5D 1_555 1_555
C22D C10D 1_555 1_555
Cu1C O6 1_555 1_555
Cu1D O2D 1_555 1_555
Cu1E O6D 1_555 1_555
Cu2C O5 1_555 1_555
Cu2E O5D 1_555 1_555
Cu2D O4D 1_555 1_555
O2D C21D 1_555 1_555
O2J Cu1 1_555 1_555
O4D C22D 1_555 1_555
O4J Cu2 1_555 1_555
O5D C21D 1_555 1_555
O5I Cu2 1_555 1_555
O5C Cu2 1_555 1_555
O6D C22D 1_555 1_555
O6I Cu1 1_555 1_555
O6C Cu1 1_555 1_555
C7 N2 1_555 1_555
C9 N1 1_555 1_555
C13 C20 1_555 1_555
C15 C19 1_555 1_555
Cu1 O2 1_555 1_555
Cu2 O4 1_555 1_555
C4D C18D 1_555 1_555
C8D C16D 1_555 1_555
C13D C20D 1_555 1_555
C14D C17D 1_555 1_555
C15D C19D 1_555 1_555

#END
