
#######################################################################
#
#                 Cambridge Crystallographic Data Centre
#                                CCDC 
#
#######################################################################
#
# If this CIF has been generated from an entry in the Cambridge 
# Structural Database, then it will include bibliographic, chemical, 
# crystal, experimental, refinement or atomic coordinate data resulting 
# from the CCDC's data processing and validation procedures.
#
#######################################################################

data_XAFFER
_chemical_name_common            DUT-11
_chemical_formula_moiety         '(C40 H28 N2 O10 Zn2)n'
_chemical_name_systematic        
"catena-((\m~8~-4,4',4'',4'''-(biphenyl-4,4'-diyldinitrilo)tetrabenzoato)-diaqua-di-zinc unknown solvate)"
_symmetry_cell_setting           orthorhombic
_symmetry_space_group_name_H-M   'C c c m'
_symmetry_Int_Tables_number      66
_space_group_name_Hall           '-C 2 2c'
loop_
_symmetry_equiv_pos_site_id
_symmetry_equiv_pos_as_xyz
1 x,y,z
2 -x,-y,z
3 -x,y,1/2-z
4 x,-y,1/2-z
5 1/2+x,1/2+y,z
6 1/2-x,1/2-y,z
7 1/2-x,1/2+y,1/2-z
8 1/2+x,1/2-y,1/2-z
9 -x,-y,-z
10 x,y,-z
11 x,-y,1/2+z
12 -x,y,1/2+z
13 1/2-x,1/2-y,-z
14 1/2+x,1/2+y,-z
15 1/2+x,1/2-y,1/2+z
16 1/2-x,1/2+y,1/2+z
_cell_length_a                   17.953(4)
_cell_length_b                   35.340(7)
_cell_length_c                   23.023(5)
_cell_angle_alpha                90
_cell_angle_beta                 90
_cell_angle_gamma                90
_cell_volume                     14607.2
_exptl_crystal_colour            colorless
_exptl_crystal_description       needle
_cell_formula_units_Z            4
loop_
_atom_site_label
_atom_site_type_symbol
_atom_site_fract_x
_atom_site_fract_y
_atom_site_fract_z
_atom_site_U_iso_or_equiv
_atom_site_thermal_displace_type
C1 C 0.67105(17) 0.28267(8) 0.07848(10) 0.1157 Uani
C2 C 0.62687(17) 0.30239(7) 0.12303(10) 0.1191 Uani
C3 C 0.55977(19) 0.28819(6) 0.14279(11) 0.1338 Uani
H1 H 0.5428 0.2654 0.1277 0.1610 Uiso
C4 C 0.54249(18) 0.34020(7) 0.20807(10) 0.1291 Uani
C5 C 0.6084(2) 0.35435(7) 0.18934(12) 0.1490 Uani
H2 H 0.6260 0.3768 0.2055 0.1790 Uiso
C6 C 0.65061(17) 0.33642(7) 0.14667(11) 0.1345 Uani
H3 H 0.6949 0.3473 0.1340 0.1610 Uiso
C7 C 0.51740(17) 0.30619(7) 0.18348(12) 0.1449 Uani
H4 H 0.4720 0.2959 0.1949 0.1740 Uiso
C8 C 0.5000 0.40011(9) 0.2500 0.1373 Uani
C9 C 0.48617(18) 0.41987(7) 0.20005(11) 0.1525 Uani
H5 H 0.4765 0.4069 0.1657 0.1830 Uiso
C10 C 0.48648(18) 0.45852(7) 0.20014(11) 0.1515 Uani
H6 H 0.4773 0.4714 0.1657 0.1820 Uiso
C11 C 0.5000 0.47882(8) 0.2500 0.1255 Uani
N1 N 0.5000 0.35946(7) 0.2500 0.1564 Uani
O1 O 0.64757(10) 0.25103(5) 0.06143(6) 0.1317 Uani
O2 O 0.72981(12) 0.29888(5) 0.06115(8) 0.1359 Uani
O3 O 0.62837(18) 0.17371(7) 0.0000 0.1829 Uani
Zn1 Zn 0.69637(2) 0.218282(8) 0.0000 0.1016 Uani
C1A C 0.32895(17) 0.71733(8) 0.07848(10) 0.1157 Uani
C1B C 0.32895(17) 0.28267(8) 0.42152(10) 0.1157 Uani
C1C C 0.67105(17) 0.71733(8) 0.42152(10) 0.1157 Uani
C2A C 0.37313(17) 0.69761(7) 0.12303(10) 0.1191 Uani
C2B C 0.37313(17) 0.30239(7) 0.37697(10) 0.1191 Uani
C2C C 0.62687(17) 0.69761(7) 0.37697(10) 0.1191 Uani
C3A C 0.44023(19) 0.71181(6) 0.14279(11) 0.1338 Uani
C3B C 0.44023(19) 0.28819(6) 0.35721(11) 0.1338 Uani
C3C C 0.55977(19) 0.71181(6) 0.35721(11) 0.1338 Uani
H1A H 0.4572 0.7346 0.1277 0.1610 Uiso
H1B H 0.4572 0.2654 0.3723 0.1610 Uiso
H1C H 0.5428 0.7346 0.3723 0.1610 Uiso
C4A C 0.45751(18) 0.65980(7) 0.20807(10) 0.1291 Uani
C4B C 0.45751(18) 0.34020(7) 0.29193(10) 0.1291 Uani
C4C C 0.54249(18) 0.65980(7) 0.29193(10) 0.1291 Uani
C5A C 0.3916(2) 0.64565(7) 0.18934(12) 0.1490 Uani
C5B C 0.3916(2) 0.35435(7) 0.31066(12) 0.1490 Uani
C5C C 0.6084(2) 0.64565(7) 0.31066(12) 0.1490 Uani
H2A H 0.3740 0.6232 0.2055 0.1790 Uiso
H2B H 0.3740 0.3768 0.2945 0.1790 Uiso
H2C H 0.6260 0.6232 0.2945 0.1790 Uiso
C6A C 0.34939(17) 0.66358(7) 0.14667(11) 0.1345 Uani
C6B C 0.34939(17) 0.33642(7) 0.35333(11) 0.1345 Uani
C6C C 0.65061(17) 0.66358(7) 0.35333(11) 0.1345 Uani
H3A H 0.3051 0.6527 0.1340 0.1610 Uiso
H3B H 0.3051 0.3473 0.3660 0.1610 Uiso
H3C H 0.6949 0.6527 0.3660 0.1610 Uiso
C7A C 0.48260(17) 0.69381(7) 0.18348(12) 0.1449 Uani
C7B C 0.48260(17) 0.30619(7) 0.31652(12) 0.1449 Uani
C7C C 0.51740(17) 0.69381(7) 0.31652(12) 0.1449 Uani
H4A H 0.5280 0.7041 0.1949 0.1740 Uiso
H4B H 0.5280 0.2959 0.3051 0.1740 Uiso
H4C H 0.4720 0.7041 0.3051 0.1740 Uiso
C8A C 0.5000 0.59989(9) 0.2500 0.1373 Uani
C9A C 0.51383(18) 0.58013(7) 0.20005(11) 0.1525 Uani
C9B C 0.51383(18) 0.41987(7) 0.29995(11) 0.1525 Uani
C9C C 0.48617(18) 0.58013(7) 0.29995(11) 0.1525 Uani
H5A H 0.5235 0.5931 0.1657 0.1830 Uiso
H5B H 0.5235 0.4069 0.3343 0.1830 Uiso
H5C H 0.4765 0.5931 0.3343 0.1830 Uiso
C10A C 0.51352(18) 0.54148(7) 0.20014(11) 0.1515 Uani
C10B C 0.51352(18) 0.45852(7) 0.29986(11) 0.1515 Uani
C10C C 0.48648(18) 0.54148(7) 0.29986(11) 0.1515 Uani
H6A H 0.5227 0.5286 0.1657 0.1820 Uiso
H6B H 0.5227 0.4714 0.3343 0.1820 Uiso
H6C H 0.4773 0.5286 0.3343 0.1820 Uiso
C11A C 0.5000 0.52118(8) 0.2500 0.1255 Uani
N1A N 0.5000 0.64054(7) 0.2500 0.1564 Uani
O1A O 0.35243(10) 0.74897(5) 0.06143(6) 0.1317 Uani
O1B O 0.35243(10) 0.25103(5) 0.43857(6) 0.1317 Uani
O1C O 0.64757(10) 0.74897(5) 0.43857(6) 0.1317 Uani
O1H O 0.35243(10) 0.74897(5) -0.06143(6) 0.1317 Uani
O1I O 0.64757(10) 0.25103(5) -0.06143(6) 0.1317 Uani
O2A O 0.27019(12) 0.70112(5) 0.06115(8) 0.1359 Uani
O2B O 0.27019(12) 0.29888(5) 0.43885(8) 0.1359 Uani
O2C O 0.72981(12) 0.70112(5) 0.43885(8) 0.1359 Uani
O2D O 0.22981(12) 0.79888(5) 0.06115(8) 0.1359 Uani
O2E O 0.77019(12) 0.20112(5) 0.06115(8) 0.1359 Uani
O2L O 0.77019(12) 0.20112(5) -0.06115(8) 0.1359 Uani
O2M O 0.22981(12) 0.79888(5) -0.06115(8) 0.1359 Uani
O3A O 0.37163(18) 0.82629(7) 0.0000 0.1829 Uani
Zn1A Zn 0.30363(2) 0.781718(8) 0.0000 0.1016 Uani
Zn1D Zn 0.19637(2) 0.718282(8) 0.0000 0.1016 Uani
Zn1E Zn 0.80363(2) 0.281718(8) 0.0000 0.1016 Uani
Zn1F Zn 0.80363(2) 0.718282(8) 0.5000 0.1016 Uani
Zn1G Zn 0.19637(2) 0.281718(8) 0.5000 0.1016 Uani
Zn1C Zn 0.69637(2) 0.781718(8) 0.5000 0.1016 Uani
Zn1B Zn 0.30363(2) 0.218282(8) 0.5000 0.1016 Uani
loop_
_atom_site_aniso_label
_atom_site_aniso_U_11
_atom_site_aniso_U_22
_atom_site_aniso_U_33
_atom_site_aniso_U_23
_atom_site_aniso_U_13
_atom_site_aniso_U_12
C1 0.147(2) 0.1119(19) 0.0883(16) 0.0067(15) 0.0087(15) 0.0303(19)
C2 0.156(2) 0.0970(16) 0.1042(17) 0.0050(13) 0.0197(16) 0.0074(16)
C3 0.185(3) 0.0976(15) 0.1189(18) -0.0121(13) 0.0410(19) -0.0012(17)
C4 0.170(3) 0.0907(15) 0.1267(18) 0.0055(14) 0.0553(18) -0.0023(16)
C5 0.203(3) 0.1019(16) 0.142(2) -0.0140(15) 0.056(2) -0.0160(19)
C6 0.159(2) 0.1148(18) 0.1297(19) -0.0040(15) 0.0385(18) -0.0131(17)
C7 0.175(3) 0.1066(17) 0.153(2) -0.0055(16) 0.054(2) -0.0197(17)
C8 0.208(4) 0.086(2) 0.118(3) 0.000 0.051(3) 0.000
C9 0.239(3) 0.0974(17) 0.1210(19) -0.0145(14) 0.0254(19) 0.0060(18)
C10 0.248(3) 0.0924(16) 0.1142(18) -0.0026(13) 0.0040(19) 0.0101(18)
C11 0.187(3) 0.0875(16) 0.102(2) 0.000 0.008(2) 0.000
N1 0.239(4) 0.0861(17) 0.144(2) 0.000 0.092(2) 0.000
O1 0.1707(17) 0.1081(11) 0.1163(11) -0.0126(9) 0.0220(10) 0.0134(11)
O2 0.1582(16) 0.1204(12) 0.1292(13) -0.0077(10) 0.0310(12) 0.0088(12)
O3 0.200(3) 0.1217(18) 0.227(3) 0.000 0.000 -0.0518(19)
Zn1 0.1303(4) 0.0800(2) 0.0946(3) 0.000 0.000 -0.00911(19)
C1A 0.147 0.1119 0.0883 -0.0067 -0.0087 0.0303
C1B 0.147 0.1119 0.0883 -0.0067 0.0087 -0.0303
C1C 0.147 0.1119 0.0883 0.0067 -0.0087 -0.0303
C2A 0.156 0.097 0.1042 -0.005 -0.0197 0.0074
C2B 0.156 0.097 0.1042 -0.005 0.0197 -0.0074
C2C 0.156 0.097 0.1042 0.005 -0.0197 -0.0074
C3A 0.185 0.0976 0.1189 0.0121 -0.041 -0.0012
C3B 0.185 0.0976 0.1189 0.0121 0.041 0.0012
C3C 0.185 0.0976 0.1189 -0.0121 -0.041 0.0012
C4A 0.17 0.0907 0.1267 -0.0055 -0.0553 -0.0023
C4B 0.17 0.0907 0.1267 -0.0055 0.0553 0.0023
C4C 0.17 0.0907 0.1267 0.0055 -0.0553 0.0023
C5A 0.203 0.1019 0.142 0.014 -0.056 -0.016
C5B 0.203 0.1019 0.142 0.014 0.056 0.016
C5C 0.203 0.1019 0.142 -0.014 -0.056 0.016
C6A 0.159 0.1148 0.1297 0.004 -0.0385 -0.0131
C6B 0.159 0.1148 0.1297 0.004 0.0385 0.0131
C6C 0.159 0.1148 0.1297 -0.004 -0.0385 0.0131
C7A 0.175 0.1066 0.153 0.0055 -0.054 -0.0197
C7B 0.175 0.1066 0.153 0.0055 0.054 0.0197
C7C 0.175 0.1066 0.153 -0.0055 -0.054 0.0197
C8A 0.208 0.086 0.118 0 -0.051 0
C9A 0.239 0.0974 0.121 0.0145 -0.0254 0.006
C9B 0.239 0.0974 0.121 0.0145 0.0254 -0.006
C9C 0.239 0.0974 0.121 -0.0145 -0.0254 -0.006
C10A 0.248 0.0924 0.1142 0.0026 -0.004 0.0101
C10B 0.248 0.0924 0.1142 0.0026 0.004 -0.0101
C10C 0.248 0.0924 0.1142 -0.0026 -0.004 -0.0101
C11A 0.187 0.0875 0.102 0 -0.008 0
N1A 0.239 0.0861 0.144 0 -0.092 0
O1A 0.1707 0.1081 0.1163 0.0126 -0.022 0.0134
O1B 0.1707 0.1081 0.1163 0.0126 0.022 -0.0134
O1C 0.1707 0.1081 0.1163 -0.0126 -0.022 -0.0134
O1H 0.1707 0.1081 0.1163 -0.0126 0.022 0.0134
O1I 0.1707 0.1081 0.1163 0.0126 -0.022 0.0134
O2A 0.1582 0.1204 0.1292 0.0077 -0.031 0.0088
O2B 0.1582 0.1204 0.1292 0.0077 0.031 -0.0088
O2C 0.1582 0.1204 0.1292 -0.0077 -0.031 -0.0088
O2D 0.1582 0.1204 0.1292 -0.0077 0.031 0.0088
O2E 0.1582 0.1204 0.1292 0.0077 -0.031 0.0088
O2L 0.1582 0.1204 0.1292 -0.0077 0.031 0.0088
O2M 0.1582 0.1204 0.1292 0.0077 -0.031 0.0088
O3A 0.2 0.1217 0.227 0 0 -0.0518
Zn1A 0.1303 0.08 0.0946 0 0 -0.00911
Zn1D 0.1303 0.08 0.0946 0 0 -0.00911
Zn1E 0.1303 0.08 0.0946 0 0 -0.00911
Zn1F 0.1303 0.08 0.0946 0 0 0.00911
Zn1G 0.1303 0.08 0.0946 0 0 0.00911
Zn1C 0.1303 0.08 0.0946 0 0 0.00911
Zn1B 0.1303 0.08 0.0946 0 0 0.00911
loop_
_geom_bond_atom_site_label_1
_geom_bond_atom_site_label_2
_geom_bond_site_symmetry_1
_geom_bond_site_symmetry_2
C1 C2 1_555 1_555
C2 C3 1_555 1_555
C3 H1 1_555 1_555
C4 C5 1_555 1_555
C5 H2 1_555 1_555
C6 C2 1_555 1_555
H3 C6 1_555 1_555
C7 C3 1_555 1_555
H4 C7 1_555 1_555
C8 C9 1_555 1_555
C9 H5 1_555 1_555
C10 C9 1_555 1_555
H6 C10 1_555 1_555
C11 C10 1_555 1_555
N1 C4 1_555 1_555
O1 C1 1_555 1_555
O2 C1 1_555 1_555
O3 Zn1 1_555 1_555
Zn1 O1 1_555 1_555
C1A C2A 1_555 1_555
C1B C2B 1_555 1_555
C1C C2C 1_555 1_555
C2A C3A 1_555 1_555
C2B C3B 1_555 1_555
C2C C3C 1_555 1_555
C3A H1A 1_555 1_555
C3B H1B 1_555 1_555
C3C H1C 1_555 1_555
C4A C5A 1_555 1_555
C4B N1 1_555 1_555
C4C C5C 1_555 1_555
C5A H2A 1_555 1_555
C5B C4B 1_555 1_555
C5C H2C 1_555 1_555
H2B C5B 1_555 1_555
C6A C2A 1_555 1_555
C6B C2B 1_555 1_555
C6C C2C 1_555 1_555
H3A C6A 1_555 1_555
H3B C6B 1_555 1_555
H3C C6C 1_555 1_555
C7A C3A 1_555 1_555
C7B C3B 1_555 1_555
C7C C3C 1_555 1_555
H4A C7A 1_555 1_555
H4B C7B 1_555 1_555
H4C C7C 1_555 1_555
C8A C9A 1_555 1_555
C9A H5A 1_555 1_555
C9B C8 1_555 1_555
C9C C8A 1_555 1_555
H5B C9B 1_555 1_555
H5C C9C 1_555 1_555
C10A C9A 1_555 1_555
C10B C11 1_555 1_555
C10C C9C 1_555 1_555
H6A C10A 1_555 1_555
H6B C10B 1_555 1_555
H6C C10C 1_555 1_555
C11A C11 1_555 1_555
N1A C4A 1_555 1_555
O1A C1A 1_555 1_555
O1B C1B 1_555 1_555
O1C C1C 1_555 1_555
O1H Zn1A 1_555 1_555
O1I Zn1 1_555 1_555
O2A C1A 1_555 1_555
O2B C1B 1_555 1_555
O2C C1C 1_555 1_555
O2D Zn1A 1_555 1_555
O2E Zn1 1_555 1_555
O2L Zn1 1_555 1_555
O2M Zn1A 1_555 1_555
O3A Zn1A 1_555 1_555
Zn1A O1A 1_555 1_555
Zn1D O2A 1_555 1_555
Zn1E O2 1_555 1_555
Zn1F O2C 1_555 1_555
Zn1G O2B 1_555 1_555
Zn1C O1C 1_555 1_555
Zn1B O1B 1_555 1_555
C4 C7 1_555 1_555
C5 C6 1_555 1_555
C8 N1 1_555 1_555
C4A C7A 1_555 1_555
C4B C7B 1_555 1_555
C4C C7C 1_555 1_555
C4C N1A 1_555 1_555
C5A C6A 1_555 1_555
C5B C6B 1_555 1_555
C5C C6C 1_555 1_555
C8A N1A 1_555 1_555
C9B C10B 1_555 1_555
C10A C11A 1_555 1_555
C10C C11A 1_555 1_555

#END
