
#######################################################################
#
#                 Cambridge Crystallographic Data Centre
#                                CCDC 
#
#######################################################################
#
# If this CIF has been generated from an entry in the Cambridge 
# Structural Database, then it will include bibliographic, chemical, 
# crystal, experimental, refinement or atomic coordinate data resulting 
# from the CCDC's data processing and validation procedures.
#
#######################################################################

data_XAFFOB
_chemical_name_common            DUT-10(Cu)
_chemical_formula_moiety         '(C40 H28 Cu2 N2 O10)n'
_chemical_name_systematic        
"catena-((\m~8~-4,4',4'',4'''-(biphenyl-4,4'-diyldinitrilo)tetrabenzoato)-diaqua-di-copper unknown solvate)"
_symmetry_cell_setting           orthorhombic
_symmetry_space_group_name_H-M   'I m m a'
_symmetry_Int_Tables_number      74
_space_group_name_Hall           '-I 2b 2'
loop_
_symmetry_equiv_pos_site_id
_symmetry_equiv_pos_as_xyz
1 x,y,z
2 -x,1/2-y,z
3 1/2+x,1/2+y,1/2+z
4 1/2-x,-y,1/2+z
5 x,-y,-z
6 -x,1/2+y,-z
7 1/2+x,1/2-y,1/2-z
8 1/2-x,y,1/2-z
9 -x,-y,-z
10 x,1/2+y,-z
11 1/2-x,1/2-y,1/2-z
12 1/2+x,y,1/2-z
13 -x,y,z
14 x,1/2-y,z
15 1/2-x,1/2+y,1/2+z
16 1/2+x,-y,1/2+z
_cell_length_a                   23.2640(10)
_cell_length_b                   35.595(4)
_cell_length_c                   17.217(4)
_cell_angle_alpha                90
_cell_angle_beta                 90
_cell_angle_gamma                90
_cell_volume                     14257.1
_exptl_crystal_colour            green
_exptl_crystal_description       blocks
_cell_formula_units_Z            4
loop_
_atom_site_label
_atom_site_type_symbol
_atom_site_fract_x
_atom_site_fract_y
_atom_site_fract_z
_atom_site_U_iso_or_equiv
_atom_site_thermal_displace_type
C1 C 0.14257(10) 0.03900(6) 0.30742(17) 0.0830 Uani
H1 H 0.1275 0.0166 0.2885 0.1000 Uiso
C2 C 0.18410(11) 0.05715(6) 0.26621(17) 0.0906 Uani
H2 H 0.1968 0.0472 0.2193 0.1090 Uiso
C3 C 0.20772(10) 0.09053(6) 0.29370(18) 0.0886 Uani
C4 C 0.18824(11) 0.10509(6) 0.36340(18) 0.0992 Uani
H3 H 0.2044 0.1270 0.3829 0.1190 Uiso
C5 C 0.14508(10) 0.08728(6) 0.40406(17) 0.0866 Uani
H4 H 0.1311 0.0980 0.4496 0.1040 Uiso
C6 C 0.12232(8) 0.05353(5) 0.37780(15) 0.0715 Uani
C7 C 0.07685(9) 0.03411(5) 0.42294(14) 0.0635 Uani
C8 C 0.2500 0.15013(8) 0.2500 0.0919 Uani
C9 C 0.20196(12) 0.16994(7) 0.2330(2) 0.1246 Uani
H5 H 0.1684 0.1571 0.2206 0.1500 Uiso
C10 C 0.20153(12) 0.20871(6) 0.2337(2) 0.1227 Uani
H6 H 0.1674 0.2213 0.2229 0.1470 Uiso
C11 C 0.2500 0.22913(8) 0.2500 0.0881 Uani
N1 N 0.2500 0.10998(6) 0.2500 0.1033 Uani
O1 O 0.05956(6) 0.04924(4) 0.48349(10) 0.0742 Uani
O2 O 0.0000 0.07271(7) 0.63486(19) 0.1146 Uani
O3 O 0.05928(6) 0.00275(4) 0.39630(10) 0.0740 Uani
Cu1 Cu 0.0000 0.027359(8) 0.55129(2) 0.0540 Uani
C1G C 0.35743(10) 0.03900(6) 0.19258(17) 0.0830 Uani
C1J C 0.35743(10) 0.46100(6) 0.19258(17) 0.0830 Uani
C1M C 0.14257(10) 0.46100(6) 0.30742(17) 0.0830 Uani
H1G H 0.3725 0.0166 0.2115 0.1000 Uiso
H1J H 0.3725 0.4834 0.2115 0.1000 Uiso
H1M H 0.1275 0.4834 0.2885 0.1000 Uiso
C2G C 0.31590(11) 0.05715(6) 0.23379(17) 0.0906 Uani
C2J C 0.31590(11) 0.44285(6) 0.23379(17) 0.0906 Uani
C2M C 0.18410(11) 0.44285(6) 0.26621(17) 0.0906 Uani
H2G H 0.3032 0.0472 0.2807 0.1090 Uiso
H2J H 0.3032 0.4528 0.2807 0.1090 Uiso
H2M H 0.1968 0.4528 0.2193 0.1090 Uiso
C3G C 0.29228(10) 0.09053(6) 0.20630(18) 0.0886 Uani
C3J C 0.29228(10) 0.40947(6) 0.20630(18) 0.0886 Uani
C3M C 0.20772(10) 0.40947(6) 0.29370(18) 0.0886 Uani
C4G C 0.31176(11) 0.10509(6) 0.13660(18) 0.0992 Uani
C4J C 0.31176(11) 0.39491(6) 0.13660(18) 0.0992 Uani
C4M C 0.18824(11) 0.39491(6) 0.36340(18) 0.0992 Uani
H3G H 0.2956 0.1270 0.1171 0.1190 Uiso
H3J H 0.2956 0.3730 0.1171 0.1190 Uiso
H3M H 0.2044 0.3730 0.3829 0.1190 Uiso
C5G C 0.35492(10) 0.08728(6) 0.09594(17) 0.0866 Uani
C5J C 0.35492(10) 0.41272(6) 0.09594(17) 0.0866 Uani
C5M C 0.14508(10) 0.41272(6) 0.40406(17) 0.0866 Uani
H4G H 0.3689 0.0980 0.0504 0.1040 Uiso
H4J H 0.3689 0.4020 0.0504 0.1040 Uiso
H4M H 0.1311 0.4020 0.4496 0.1040 Uiso
C6G C 0.37768(8) 0.05353(5) 0.12220(15) 0.0715 Uani
C6J C 0.37768(8) 0.44647(5) 0.12220(15) 0.0715 Uani
C6M C 0.12232(8) 0.44647(5) 0.37780(15) 0.0715 Uani
C7G C 0.42315(9) 0.03411(5) 0.07706(14) 0.0635 Uani
C7J C 0.42315(9) 0.46589(5) 0.07706(14) 0.0635 Uani
C7M C 0.07685(9) 0.46589(5) 0.42294(14) 0.0635 Uani
C8J C 0.2500 0.34987(8) 0.2500 0.0919 Uani
C9G C 0.29804(12) 0.16994(7) 0.2670(2) 0.1246 Uani
C9J C 0.29804(12) 0.33006(7) 0.2670(2) 0.1246 Uani
C9M C 0.20196(12) 0.33006(7) 0.2330(2) 0.1246 Uani
H5G H 0.3316 0.1571 0.2794 0.1500 Uiso
H5M H 0.1684 0.3429 0.2206 0.1500 Uiso
H5J H 0.3316 0.3429 0.2794 0.1500 Uiso
C10G C 0.29847(12) 0.20871(6) 0.2663(2) 0.1227 Uani
C10J C 0.29847(12) 0.29129(6) 0.2663(2) 0.1227 Uani
C10M C 0.20153(12) 0.29129(6) 0.2337(2) 0.1227 Uani
H6G H 0.3326 0.2213 0.2771 0.1470 Uiso
H6M H 0.1674 0.2787 0.2229 0.1470 Uiso
H6J H 0.3326 0.2787 0.2771 0.1470 Uiso
C11J C 0.2500 0.27087(8) 0.2500 0.0881 Uani
N1J N 0.2500 0.39002(6) 0.2500 0.1033 Uani
O1G O 0.44044(6) 0.04924(4) 0.01651(10) 0.0742 Uani
O1J O 0.44044(6) 0.45076(4) 0.01651(10) 0.0742 Uani
O1M O 0.05956(6) 0.45076(4) 0.48349(10) 0.0742 Uani
O1L O -0.05956(6) 0.04924(4) 0.48349(10) 0.0742 Uani
O1A O -0.05956(6) 0.45076(4) 0.48349(10) 0.0742 Uani
O2A O 0.0000 0.42729(7) 0.63486(19) 0.1146 Uani
O3G O 0.44072(6) 0.00275(4) 0.10370(10) 0.0740 Uani
O3J O 0.44072(6) 0.49725(4) 0.10370(10) 0.0740 Uani
O3M O 0.05928(6) 0.49725(4) 0.39630(10) 0.0740 Uani
O3D O 0.05928(6) -0.00275(4) 0.60370(10) 0.0740 Uani
O3H O -0.05928(6) -0.00275(4) 0.60370(10) 0.0740 Uani
O3E O -0.05928(6) 0.50275(4) 0.60370(10) 0.0740 Uani
O3I O 0.05928(6) 0.50275(4) 0.60370(10) 0.0740 Uani
Cu1G Cu 0.5000 0.027359(8) -0.05129(2) 0.0540 Uani
Cu1D Cu 0.0000 -0.027359(8) 0.44871(2) 0.0540 Uani
Cu1C Cu 0.5000 -0.027359(8) 0.05129(2) 0.0540 Uani
Cu1F Cu 0.5000 0.472641(8) -0.05129(2) 0.0540 Uani
Cu1B Cu 0.5000 0.527359(8) 0.05129(2) 0.0540 Uani
Cu1A Cu 0.0000 0.472641(8) 0.55129(2) 0.0540 Uani
Cu1E Cu 0.0000 0.527359(8) 0.44871(2) 0.0540 Uani
loop_
_atom_site_aniso_label
_atom_site_aniso_U_11
_atom_site_aniso_U_22
_atom_site_aniso_U_33
_atom_site_aniso_U_23
_atom_site_aniso_U_13
_atom_site_aniso_U_12
C1 0.0763(14) 0.0628(11) 0.110(2) -0.0063(12) 0.0297(14) -0.0095(10)
C2 0.0882(16) 0.0645(12) 0.119(2) -0.0077(12) 0.0493(16) -0.0050(11)
C3 0.0728(14) 0.0571(11) 0.136(2) 0.0015(13) 0.0507(15) 0.0017(10)
C4 0.0978(17) 0.0599(12) 0.140(2) -0.0157(14) 0.0545(18) -0.0216(12)
C5 0.0849(15) 0.0659(12) 0.109(2) -0.0087(12) 0.0416(15) -0.0099(11)
C6 0.0585(11) 0.0561(10) 0.1000(17) 0.0071(10) 0.0179(12) -0.0016(8)
C7 0.0518(11) 0.0551(10) 0.0836(14) 0.0105(10) 0.0075(10) 0.0029(8)
C8 0.078(2) 0.0487(14) 0.149(3) 0.000 0.059(2) 0.000
C9 0.0787(16) 0.0602(13) 0.235(4) 0.0043(18) 0.035(2) -0.0133(12)
C10 0.0791(16) 0.0589(13) 0.230(4) 0.0153(18) 0.034(2) 0.0011(11)
C11 0.073(2) 0.0522(15) 0.139(3) 0.000 0.049(2) 0.000
N1 0.0928(19) 0.0461(12) 0.171(3) 0.000 0.080(2) 0.000
O1 0.0661(9) 0.0654(8) 0.0912(11) 0.0047(8) 0.0184(8) -0.0106(7)
O2 0.130(2) 0.0887(17) 0.125(2) -0.0381(16) 0.000 0.000
O3 0.0631 0.065 0.0938 0.0032 0.016 -0.0111
Cu1 0.0444(2) 0.0484(2) 0.0692(2) 0.00317(14) 0.000 0.000
C1G 0.0763 0.0628 0.11 0.0063 0.0297 0.0095
C1J 0.0763 0.0628 0.11 -0.0063 0.0297 -0.0095
C1M 0.0763 0.0628 0.11 0.0063 0.0297 0.0095
C2G 0.0882 0.0645 0.119 0.0077 0.0493 0.005
C2J 0.0882 0.0645 0.119 -0.0077 0.0493 -0.005
C2M 0.0882 0.0645 0.119 0.0077 0.0493 0.005
C3G 0.0728 0.0571 0.136 -0.0015 0.0507 -0.0017
C3J 0.0728 0.0571 0.136 0.0015 0.0507 0.0017
C3M 0.0728 0.0571 0.136 -0.0015 0.0507 -0.0017
C4G 0.0978 0.0599 0.14 0.0157 0.0545 0.0216
C4J 0.0978 0.0599 0.14 -0.0157 0.0545 -0.0216
C4M 0.0978 0.0599 0.14 0.0157 0.0545 0.0216
C5G 0.0849 0.0659 0.109 0.0087 0.0416 0.0099
C5J 0.0849 0.0659 0.109 -0.0087 0.0416 -0.0099
C5M 0.0849 0.0659 0.109 0.0087 0.0416 0.0099
C6G 0.0585 0.0561 0.1 -0.0071 0.0179 0.0016
C6J 0.0585 0.0561 0.1 0.0071 0.0179 -0.0016
C6M 0.0585 0.0561 0.1 -0.0071 0.0179 0.0016
C7G 0.0518 0.0551 0.0836 -0.0105 0.0075 -0.0029
C7J 0.0518 0.0551 0.0836 0.0105 0.0075 0.0029
C7M 0.0518 0.0551 0.0836 -0.0105 0.0075 -0.0029
C8J 0.078 0.0487 0.149 0 0.059 0
C9G 0.0787 0.0602 0.235 -0.0043 0.035 0.0133
C9J 0.0787 0.0602 0.235 0.0043 0.035 -0.0133
C9M 0.0787 0.0602 0.235 -0.0043 0.035 0.0133
C10G 0.0791 0.0589 0.23 -0.0153 0.034 -0.0011
C10J 0.0791 0.0589 0.23 0.0153 0.034 0.0011
C10M 0.0791 0.0589 0.23 -0.0153 0.034 -0.0011
C11J 0.073 0.0522 0.139 0 0.049 0
N1J 0.0928 0.0461 0.171 0 0.08 0
O1G 0.0661 0.0654 0.0912 -0.0047 0.0184 0.0106
O1J 0.0661 0.0654 0.0912 0.0047 0.0184 -0.0106
O1M 0.0661 0.0654 0.0912 -0.0047 0.0184 0.0106
O1L 0.0661 0.0654 0.0912 0.0047 -0.0184 0.0106
O1A 0.0661 0.0654 0.0912 -0.0047 -0.0184 -0.0106
O2A 0.13 0.0887 0.125 0.0381 0 0
O3G 0.0631 0.065 0.0938 -0.0032 0.016 0.0111
O3J 0.0631 0.065 0.0938 0.0032 0.016 -0.0111
O3M 0.0631 0.065 0.0938 -0.0032 0.016 0.0111
O3D 0.0631 0.065 0.0938 0.0032 -0.016 0.0111
O3H 0.0631 0.065 0.0938 0.0032 0.016 -0.0111
O3E 0.0631 0.065 0.0938 -0.0032 0.016 0.0111
O3I 0.0631 0.065 0.0938 -0.0032 -0.016 -0.0111
Cu1G 0.0444 0.0484 0.0692 -0.00317 0 0
Cu1D 0.0444 0.0484 0.0692 0.00317 0 0
Cu1C 0.0444 0.0484 0.0692 -0.00317 0 0
Cu1F 0.0444 0.0484 0.0692 0.00317 0 0
Cu1B 0.0444 0.0484 0.0692 0.00317 0 0
Cu1A 0.0444 0.0484 0.0692 -0.00317 0 0
Cu1E 0.0444 0.0484 0.0692 -0.00317 0 0
loop_
_geom_bond_atom_site_label_1
_geom_bond_atom_site_label_2
_geom_bond_site_symmetry_1
_geom_bond_site_symmetry_2
C1 H1 1_555 1_555
C2 C1 1_555 1_555
H2 C2 1_555 1_555
C3 C2 1_555 1_555
C4 C3 1_555 1_555
H3 C4 1_555 1_555
C5 C4 1_555 1_555
H4 C5 1_555 1_555
C6 C1 1_555 1_555
C7 C6 1_555 1_555
C8 C9 1_555 1_555
C9 H5 1_555 1_555
C10 C9 1_555 1_555
H6 C10 1_555 1_555
C11 C10 1_555 1_555
N1 C3 1_555 1_555
O1 C7 1_555 1_555
O2 Cu1 1_555 1_555
O3 C7 1_555 1_555
Cu1 O1 1_555 1_555
C1G H1G 1_555 1_555
C1J H1J 1_555 1_555
C1M H1M 1_555 1_555
C2G C1G 1_555 1_555
C2J C1J 1_555 1_555
C2M C1M 1_555 1_555
H2G C2G 1_555 1_555
H2J C2J 1_555 1_555
H2M C2M 1_555 1_555
C3G N1 1_555 1_555
C3J C2J 1_555 1_555
C3M C2M 1_555 1_555
C4G C3G 1_555 1_555
C4J C3J 1_555 1_555
C4M C3M 1_555 1_555
H3G C4G 1_555 1_555
H3J C4J 1_555 1_555
H3M C4M 1_555 1_555
C5G C4G 1_555 1_555
C5J C4J 1_555 1_555
C5M C4M 1_555 1_555
H4G C5G 1_555 1_555
H4J C5J 1_555 1_555
H4M C5M 1_555 1_555
C6G C1G 1_555 1_555
C6J C1J 1_555 1_555
C6M C1M 1_555 1_555
C7G C6G 1_555 1_555
C7J C6J 1_555 1_555
C7M C6M 1_555 1_555
C8J C9J 1_555 1_555
C9G C8 1_555 1_555
C9J H5J 1_555 1_555
C9M C8J 1_555 1_555
H5G C9G 1_555 1_555
H5M C9M 1_555 1_555
C10G C11 1_555 1_555
C10J C9J 1_555 1_555
C10M C9M 1_555 1_555
H6G C10G 1_555 1_555
H6M C10M 1_555 1_555
H6J C10J 1_555 1_555
C11J C11 1_555 1_555
N1J C3J 1_555 1_555
O1G C7G 1_555 1_555
O1J C7J 1_555 1_555
O1M C7M 1_555 1_555
O1L Cu1 1_555 1_555
O1A Cu1A 1_555 1_555
O2A Cu1A 1_555 1_555
O3G C7G 1_555 1_555
O3J C7J 1_555 1_555
O3M C7M 1_555 1_555
O3D Cu1 1_555 1_555
O3H Cu1 1_555 1_555
O3E Cu1A 1_555 1_555
O3I Cu1A 1_555 1_555
Cu1G O1G 1_555 1_555
Cu1D O3 1_555 1_555
Cu1C O3G 1_555 1_555
Cu1F O1J 1_555 1_555
Cu1B O3J 1_555 1_555
Cu1A O1M 1_555 1_555
Cu1E O3M 1_555 1_555
C5 C6 1_555 1_555
C8 N1 1_555 1_555
C2G C3G 1_555 1_555
C3M N1J 1_555 1_555
C5G C6G 1_555 1_555
C5J C6J 1_555 1_555
C5M C6M 1_555 1_555
C8J N1J 1_555 1_555
C9G C10G 1_555 1_555
C10J C11J 1_555 1_555
C10M C11J 1_555 1_555

#END
