
#######################################################################
#
#                 Cambridge Crystallographic Data Centre
#                                CCDC 
#
#######################################################################
#
# If this CIF has been generated from an entry in the Cambridge 
# Structural Database, then it will include bibliographic, chemical, 
# crystal, experimental, refinement or atomic coordinate data resulting 
# from the CCDC's data processing and validation procedures.
#
#######################################################################

data_YABHIV
_chemical_name_common            PCN-426(Ni)
_chemical_formula_moiety         '(C32 H36 Ni3 O16)n,0.17(Ni1)'
_chemical_name_systematic        
"catena-[(\m-2',3'',5'',6'-tetramethyl-1,1':4',1'':4'',1'''-quaterphenyl-3,3''',5,5'''-tetracarboxylato)-(\m~3~-oxido)-hepta-aqua-tri-nickel nickel unknown anion unknown solvate]"
_symmetry_cell_setting           cubic
_symmetry_space_group_name_H-M   'F m -3 m'
_symmetry_Int_Tables_number      225
_space_group_name_Hall           '-F 4 2 3'
loop_
_symmetry_equiv_pos_site_id
_symmetry_equiv_pos_as_xyz
1 x,y,z
2 -y,x,z
3 -x,-y,z
4 y,-x,z
5 x,-z,y
6 x,-y,-z
7 x,z,-y
8 z,y,-x
9 -x,y,-z
10 -z,y,x
11 z,x,y
12 y,z,x
13 -y,-z,x
14 z,-x,-y
15 -y,z,-x
16 -z,-x,y
17 -z,x,-y
18 y,-z,-x
19 y,x,-z
20 -y,-x,-z
21 -x,z,y
22 -x,-z,-y
23 z,-y,x
24 -z,-y,-x
25 x,1/2+y,1/2+z
26 -y,1/2+x,1/2+z
27 -x,1/2-y,1/2+z
28 y,1/2-x,1/2+z
29 x,1/2-z,1/2+y
30 x,1/2-y,1/2-z
31 x,1/2+z,1/2-y
32 z,1/2+y,1/2-x
33 -x,1/2+y,1/2-z
34 -z,1/2+y,1/2+x
35 z,1/2+x,1/2+y
36 y,1/2+z,1/2+x
37 -y,1/2-z,1/2+x
38 z,1/2-x,1/2-y
39 -y,1/2+z,1/2-x
40 -z,1/2-x,1/2+y
41 -z,1/2+x,1/2-y
42 y,1/2-z,1/2-x
43 y,1/2+x,1/2-z
44 -y,1/2-x,1/2-z
45 -x,1/2+z,1/2+y
46 -x,1/2-z,1/2-y
47 z,1/2-y,1/2+x
48 -z,1/2-y,1/2-x
49 1/2+x,y,1/2+z
50 1/2-y,x,1/2+z
51 1/2-x,-y,1/2+z
52 1/2+y,-x,1/2+z
53 1/2+x,-z,1/2+y
54 1/2+x,-y,1/2-z
55 1/2+x,z,1/2-y
56 1/2+z,y,1/2-x
57 1/2-x,y,1/2-z
58 1/2-z,y,1/2+x
59 1/2+z,x,1/2+y
60 1/2+y,z,1/2+x
61 1/2-y,-z,1/2+x
62 1/2+z,-x,1/2-y
63 1/2-y,z,1/2-x
64 1/2-z,-x,1/2+y
65 1/2-z,x,1/2-y
66 1/2+y,-z,1/2-x
67 1/2+y,x,1/2-z
68 1/2-y,-x,1/2-z
69 1/2-x,z,1/2+y
70 1/2-x,-z,1/2-y
71 1/2+z,-y,1/2+x
72 1/2-z,-y,1/2-x
73 1/2+x,1/2+y,z
74 1/2-y,1/2+x,z
75 1/2-x,1/2-y,z
76 1/2+y,1/2-x,z
77 1/2+x,1/2-z,y
78 1/2+x,1/2-y,-z
79 1/2+x,1/2+z,-y
80 1/2+z,1/2+y,-x
81 1/2-x,1/2+y,-z
82 1/2-z,1/2+y,x
83 1/2+z,1/2+x,y
84 1/2+y,1/2+z,x
85 1/2-y,1/2-z,x
86 1/2+z,1/2-x,-y
87 1/2-y,1/2+z,-x
88 1/2-z,1/2-x,y
89 1/2-z,1/2+x,-y
90 1/2+y,1/2-z,-x
91 1/2+y,1/2+x,-z
92 1/2-y,1/2-x,-z
93 1/2-x,1/2+z,y
94 1/2-x,1/2-z,-y
95 1/2+z,1/2-y,x
96 1/2-z,1/2-y,-x
97 -x,-y,-z
98 y,-x,-z
99 x,y,-z
100 -y,x,-z
101 -x,z,-y
102 -x,y,z
103 -x,-z,y
104 -z,-y,x
105 x,-y,z
106 z,-y,-x
107 -z,-x,-y
108 -y,-z,-x
109 y,z,-x
110 -z,x,y
111 y,-z,x
112 z,x,-y
113 z,-x,y
114 -y,z,x
115 -y,-x,z
116 y,x,z
117 x,-z,-y
118 x,z,y
119 -z,y,-x
120 z,y,x
121 -x,1/2-y,1/2-z
122 y,1/2-x,1/2-z
123 x,1/2+y,1/2-z
124 -y,1/2+x,1/2-z
125 -x,1/2+z,1/2-y
126 -x,1/2+y,1/2+z
127 -x,1/2-z,1/2+y
128 -z,1/2-y,1/2+x
129 x,1/2-y,1/2+z
130 z,1/2-y,1/2-x
131 -z,1/2-x,1/2-y
132 -y,1/2-z,1/2-x
133 y,1/2+z,1/2-x
134 -z,1/2+x,1/2+y
135 y,1/2-z,1/2+x
136 z,1/2+x,1/2-y
137 z,1/2-x,1/2+y
138 -y,1/2+z,1/2+x
139 -y,1/2-x,1/2+z
140 y,1/2+x,1/2+z
141 x,1/2-z,1/2-y
142 x,1/2+z,1/2+y
143 -z,1/2+y,1/2-x
144 z,1/2+y,1/2+x
145 1/2-x,-y,1/2-z
146 1/2+y,-x,1/2-z
147 1/2+x,y,1/2-z
148 1/2-y,x,1/2-z
149 1/2-x,z,1/2-y
150 1/2-x,y,1/2+z
151 1/2-x,-z,1/2+y
152 1/2-z,-y,1/2+x
153 1/2+x,-y,1/2+z
154 1/2+z,-y,1/2-x
155 1/2-z,-x,1/2-y
156 1/2-y,-z,1/2-x
157 1/2+y,z,1/2-x
158 1/2-z,x,1/2+y
159 1/2+y,-z,1/2+x
160 1/2+z,x,1/2-y
161 1/2+z,-x,1/2+y
162 1/2-y,z,1/2+x
163 1/2-y,-x,1/2+z
164 1/2+y,x,1/2+z
165 1/2+x,-z,1/2-y
166 1/2+x,z,1/2+y
167 1/2-z,y,1/2-x
168 1/2+z,y,1/2+x
169 1/2-x,1/2-y,-z
170 1/2+y,1/2-x,-z
171 1/2+x,1/2+y,-z
172 1/2-y,1/2+x,-z
173 1/2-x,1/2+z,-y
174 1/2-x,1/2+y,z
175 1/2-x,1/2-z,y
176 1/2-z,1/2-y,x
177 1/2+x,1/2-y,z
178 1/2+z,1/2-y,-x
179 1/2-z,1/2-x,-y
180 1/2-y,1/2-z,-x
181 1/2+y,1/2+z,-x
182 1/2-z,1/2+x,y
183 1/2+y,1/2-z,x
184 1/2+z,1/2+x,-y
185 1/2+z,1/2-x,y
186 1/2-y,1/2+z,x
187 1/2-y,1/2-x,z
188 1/2+y,1/2+x,z
189 1/2+x,1/2-z,-y
190 1/2+x,1/2+z,y
191 1/2-z,1/2+y,-x
192 1/2+z,1/2+y,x
_cell_length_a                   40.9779(8)
_cell_length_b                   40.9779(8)
_cell_length_c                   40.9779(8)
_cell_angle_alpha                90
_cell_angle_beta                 90
_cell_angle_gamma                90
_cell_volume                     68809.6
_exptl_crystal_colour            green
_exptl_crystal_description       Block
_cell_formula_units_Z            24
loop_
_atom_site_label
_atom_site_type_symbol
_atom_site_fract_x
_atom_site_fract_y
_atom_site_fract_z
_atom_site_U_iso_or_equiv
_atom_site_thermal_displace_type
Ni3 Ni 0.0000 0.5000 0.0000 0.1880 Uani
Ni1 Ni 0.13785(3) 0.5000 0.0000 0.0505 Uani
O1 O 0.18840(16) 0.5000 0.0000 0.0740 Uani
O2 O 0.18638(13) 0.43533(15) 0.0103(3) 0.1157 Uani
O3 O 0.13550(9) 0.44979(9) 0.0000 0.0720 Uani
O4 O 0.08623(18) 0.5000 0.0000 0.0780 Uani
C1 C 0.17144(6) 0.37011(6) 0.0000 0.1030 Uani
H1 H 0.1938 0.3761 0.0000 0.1230 Uiso
C2 C 0.14746(6) 0.39410(6) 0.0000 0.0760 Uani
C3 C 0.15693(15) 0.42959(16) 0.0000 0.0820 Uani
C4 C 0.16267(6) 0.33733(6) 0.0000 0.0990 Uani
C5 C 0.11468(6) 0.38532(6) 0.0000 0.0670 Uani
H2 H 0.0983 0.4017 0.0000 0.0800 Uiso
C6 C 0.18881(9) 0.31119(9) 0.0000 0.1687 Uani
C7 C 0.23679(9) 0.26321(9) 0.0000 0.1687 Uani
C8 C 0.20081(9) 0.29919(9) 0.029380(12) 0.1687 Uani
C9 C 0.22480(9) 0.27520(9) 0.029379(11) 0.1687 Uani
H3 H 0.2330 0.2670 0.0495 0.2030 Uiso
C10 C 0.18689(13) 0.31311(13) 0.0618(2) 0.1687 Uani
H4 H 0.1704 0.3297 0.0569 0.2530 Uiso
H5 H 0.2046 0.3230 0.0744 0.2530 Uiso
Ni2 Ni 0.21488(7) 0.47337(6) 0.02663(6) 0.1616 Uani
O5 O 0.2384(4) 0.4405(2) 0.0595(2) 0.2577 Uani
O6 O 0.2468(2) 0.4893(4) 0.0394(3) 0.2577 Uani
O2R O 0.43533(15) 0.18638(13) -0.0103(3) 0.1157 Uani
O3R O 0.44979(9) 0.13550(9) 0.0000 0.0720 Uani
C1R C 0.37011(6) 0.17144(6) 0.0000 0.1030 Uani
H1R H 0.3761 0.1938 0.0000 0.1230 Uiso
C2R C 0.39410(6) 0.14746(6) 0.0000 0.0760 Uani
C3R C 0.42959(16) 0.15693(15) 0.0000 0.0820 Uani
C4R C 0.33733(6) 0.16267(6) 0.0000 0.0990 Uani
C5R C 0.38532(6) 0.11468(6) 0.0000 0.0670 Uani
H2R H 0.4017 0.0983 0.0000 0.0800 Uiso
C6R C 0.31119(9) 0.18881(9) 0.0000 0.1687 Uani
C7R C 0.26321(9) 0.23679(9) 0.0000 0.1687 Uani
C8R C 0.29919(9) 0.20081(9) -0.029380(12) 0.1687 Uani
C9R C 0.27520(9) 0.22480(9) -0.029379(11) 0.1687 Uani
H3R H 0.2670 0.2330 -0.0495 0.2030 Uiso
C10R C 0.31311(13) 0.18689(13) -0.0618(2) 0.1687 Uani
H4R H 0.3297 0.1704 -0.0569 0.2530 Uiso
H5R H 0.3230 0.2046 -0.0744 0.2530 Uiso
O2VB O 0.31362(13) 0.06467(15) 0.0103(3) 0.1157 Uani
O3VB O 0.36450(9) 0.05021(9) 0.0000 0.0720 Uani
C1VB C 0.32856(6) 0.12989(6) 0.0000 0.1030 Uani
H1VB H 0.3062 0.1239 0.0000 0.1230 Uiso
C2VB C 0.35254(6) 0.10590(6) 0.0000 0.0760 Uani
C3VB C 0.34307(15) 0.07041(16) 0.0000 0.0820 Uani
C8VB C 0.29919(9) 0.20081(9) 0.029380(12) 0.1687 Uani
C9VB C 0.27520(9) 0.22480(9) 0.029379(11) 0.1687 Uani
H3VB H 0.2670 0.2330 0.0495 0.2030 Uiso
C10VB C 0.31311(13) 0.18689(13) 0.0618(2) 0.1687 Uani
H4VB H 0.3296 0.1703 0.0569 0.2530 Uiso
H5VB H 0.2954 0.1770 0.0744 0.2530 Uiso
O2MC O 0.06467(15) 0.31362(13) -0.0103(3) 0.1157 Uani
O3MC O 0.05021(9) 0.36450(9) 0.0000 0.0720 Uani
C1MC C 0.12989(6) 0.32856(6) 0.0000 0.1030 Uani
H1MC H 0.1239 0.3062 0.0000 0.1230 Uiso
C2MC C 0.10590(6) 0.35254(6) 0.0000 0.0760 Uani
C3MC C 0.07041(16) 0.34307(15) 0.0000 0.0820 Uani
C8MC C 0.20081(9) 0.29919(9) -0.029380(12) 0.1687 Uani
C9MC C 0.22480(9) 0.27520(9) -0.029379(11) 0.1687 Uani
H3MC H 0.2330 0.2670 -0.0495 0.2030 Uiso
C10MC C 0.18689(13) 0.31311(13) -0.0618(2) 0.1687 Uani
H4MC H 0.1703 0.3296 -0.0569 0.2530 Uiso
H5MC H 0.1770 0.2954 -0.0744 0.2530 Uiso
O2TC O 0.18638(13) 0.43533(15) -0.0103(3) 0.1157 Uani
H5TC H 0.2046 0.3230 -0.0744 0.2530 Uiso
O2KD O 0.43533(15) 0.18638(13) 0.0103(3) 0.1157 Uani
H5KD H 0.3230 0.2046 0.0744 0.2530 Uiso
O2LF O 0.31362(13) 0.06467(15) -0.0103(3) 0.1157 Uani
H5LF H 0.2954 0.1770 -0.0744 0.2530 Uiso
O2DG O 0.06467(15) 0.31362(13) 0.0103(3) 0.1157 Uani
H5DG H 0.1770 0.2954 0.0744 0.2530 Uiso
Ni2E Ni 0.21488(7) 0.52663(6) -0.02663(6) 0.1616 Uani
O5E O 0.2384(4) 0.5595(2) -0.0595(2) 0.2577 Uani
O6E O 0.2468(2) 0.5107(4) -0.0394(3) 0.2577 Uani
O6BA O 0.2468(2) 0.4606(3) -0.0107(4) 0.2577 Uani
O6DA O 0.2468(2) 0.5394(3) 0.0107(4) 0.2577 Uani
Ni2DA Ni 0.21488(7) 0.52663(6) 0.02663(6) 0.1616 Uani
O5DA O 0.2384(4) 0.5595(2) 0.0595(2) 0.2577 Uani
Ni2BA Ni 0.21488(7) 0.47337(6) -0.02663(6) 0.1616 Uani
O5BA O 0.2384(4) 0.4405(2) -0.0595(2) 0.2577 Uani
O6ZC O 0.2468(2) 0.5107(4) 0.0394(3) 0.2577 Uani
O6JE O 0.2468(2) 0.4606(3) 0.0107(4) 0.2577 Uani
Ni1A Ni 0.5000 0.13785(3) 0.0000 0.0505 Uani
Ni1KA Ni 0.0000 0.36215(3) 0.0000 0.0505 Uani
Ni1PB Ni 0.36215(3) 0.0000 0.0000 0.0505 Uani
O2E O 0.18638(13) 0.56467(15) -0.0103(3) 0.1157 Uani
O2BA O 0.18638(13) 0.4897(3) -0.06467(15) 0.1157 Uani
O2DA O 0.18638(13) 0.5103(3) 0.06467(15) 0.1157 Uani
O2ZC O 0.18638(13) 0.56467(15) 0.0103(3) 0.1157 Uani
O2JE O 0.18638(13) 0.4897(3) 0.06467(15) 0.1157 Uani
O2KE O 0.18638(13) 0.5103(3) -0.06467(15) 0.1157 Uani
O3E O 0.13550(9) 0.55021(9) 0.0000 0.0720 Uani
O3BA O 0.13550(9) 0.5000 -0.05021(9) 0.0720 Uani
O3DA O 0.13550(9) 0.5000 0.05021(9) 0.0720 Uani
Ni2R Ni 0.47337(6) 0.21488(7) -0.02663(6) 0.1616 Uani
Ni2KA Ni 0.02663(6) 0.28512(7) 0.02663(6) 0.1616 Uani
Ni2LB Ni 0.47337(6) 0.21488(7) 0.02663(6) 0.1616 Uani
Ni2PB Ni 0.28512(7) 0.02663(6) -0.02663(6) 0.1616 Uani
Ni2VB Ni 0.28512(7) 0.02663(6) 0.02663(6) 0.1616 Uani
Ni2MC Ni 0.02663(6) 0.28512(7) -0.02663(6) 0.1616 Uani
O6TC O 0.2468(2) 0.4893(4) -0.0394(3) 0.2577 Uani
O6KE O 0.2468(2) 0.5394(3) -0.0107(4) 0.2577 Uani
loop_
_atom_site_aniso_label
_atom_site_aniso_U_11
_atom_site_aniso_U_22
_atom_site_aniso_U_33
_atom_site_aniso_U_23
_atom_site_aniso_U_13
_atom_site_aniso_U_12
Ni3 0.188(4) 0.188(4) 0.188(4) 0.000 0.000 0.000
Ni1 0.0286(7) 0.0615(6) 0.0615(6) 0.000 0.000 0.000
O1 0.022(4) 0.100(4) 0.100(4) 0.000 0.000 0.000
O2 0.057(3) 0.085(4) 0.205(19) -0.013(5) -0.018(5) 0.007(3)
O3 0.059(3) 0.057(2) 0.100(3) 0.000 0.000 0.004(2)
O4 0.050(5) 0.092(4) 0.092(4) 0.000 0.000 0.000
C1 0.056(4) 0.071(4) 0.182(8) 0.000 0.000 0.016(3)
C2 0.056(4) 0.067(4) 0.105(5) 0.000 0.000 0.014(3)
C3 0.048(4) 0.070(4) 0.128(6) 0.000 0.000 0.004(3)
C4 0.073(4) 0.073(4) 0.151(11) 0.000 0.000 0.028(5)
C5 0.057(3) 0.057(3) 0.087(6) 0.000 0.000 0.020(4)
C6 0.160(3) 0.160(3) 0.186(6) 0.000 0.000 0.102(4)
C7 0.160(3) 0.160(3) 0.186(6) 0.000 0.000 0.102(4)
C8 0.160(3) 0.160(3) 0.186(6) 0.000 0.000 0.102(4)
C9 0.160(3) 0.160(3) 0.186(6) 0.000 0.000 0.102(4)
C10 0.160(3) 0.160(3) 0.186(6) 0.000 0.000 0.102(4)
Ni2 0.0916(17) 0.1966(19) 0.1966(19) -0.002(2) -0.0159(13) 0.0159(13)
O5 0.127(6) 0.323(10) 0.323(10) -0.063(14) -0.041(7) 0.041(7)
O6 0.127(6) 0.323(10) 0.323(10) -0.063(14) -0.041(7) 0.041(7)
O2R 0.085 0.057 0.205 0.018 0.013 0.007
O3R 0.057 0.059 0.1 0 0 0.004
C1R 0.071 0.056 0.182 0 0 0.016
C2R 0.067 0.056 0.105 0 0 0.014
C3R 0.07 0.048 0.128 0 0 0.004
C4R 0.073 0.073 0.151 0 0 0.028
C5R 0.057 0.057 0.087 0 0 0.02
C6R 0.16 0.16 0.186 0 0 0.102
C7R 0.16 0.16 0.186 0 0 0.102
C8R 0.16 0.16 0.186 0 0 0.102
C9R 0.16 0.16 0.186 0 0 0.102
C10R 0.16 0.16 0.186 0 0 0.102
O2VB 0.057 0.085 0.205 0.013 0.018 0.007
O3VB 0.059 0.057 0.1 0 0 0.004
C1VB 0.056 0.071 0.182 0 0 0.016
C2VB 0.056 0.067 0.105 0 0 0.014
C3VB 0.048 0.07 0.128 0 0 0.004
C8VB 0.16 0.16 0.186 0 0 0.102
C9VB 0.16 0.16 0.186 0 0 0.102
C10VB 0.16 0.16 0.186 0 0 0.102
O2MC 0.085 0.057 0.205 -0.018 -0.013 0.007
O3MC 0.057 0.059 0.1 0 0 0.004
C1MC 0.071 0.056 0.182 0 0 0.016
C2MC 0.067 0.056 0.105 0 0 0.014
C3MC 0.07 0.048 0.128 0 0 0.004
C8MC 0.16 0.16 0.186 0 0 0.102
C9MC 0.16 0.16 0.186 0 0 0.102
C10MC 0.16 0.16 0.186 0 0 0.102
O2TC 0.057 0.085 0.205 0.013 0.018 0.007
O2KD 0.085 0.057 0.205 -0.018 -0.013 0.007
O2LF 0.057 0.085 0.205 -0.013 -0.018 0.007
O2DG 0.085 0.057 0.205 0.018 0.013 0.007
Ni2E 0.0916 0.1966 0.1966 -0.002 0.0159 -0.0159
O5E 0.127 0.323 0.323 -0.063 0.041 -0.041
O6E 0.127 0.323 0.323 -0.063 0.041 -0.041
O6BA 0.127 0.323 0.323 0.063 0.041 0.041
O6DA 0.127 0.323 0.323 0.063 -0.041 -0.041
Ni2DA 0.0916 0.1966 0.1966 0.002 -0.0159 -0.0159
O5DA 0.127 0.323 0.323 0.063 -0.041 -0.041
Ni2BA 0.0916 0.1966 0.1966 0.002 0.0159 0.0159
O5BA 0.127 0.323 0.323 0.063 0.041 0.041
O6ZC 0.127 0.323 0.323 0.063 -0.041 -0.041
O6JE 0.127 0.323 0.323 -0.063 -0.041 0.041
Ni1A 0.0615 0.0286 0.0615 0 0 0
Ni1KA 0.0615 0.0286 0.0615 0 0 0
Ni1PB 0.0286 0.0615 0.0615 0 0 0
O2E 0.057 0.085 0.205 -0.013 0.018 -0.007
O2BA 0.057 0.205 0.085 0.013 0.007 0.018
O2DA 0.057 0.205 0.085 0.013 -0.007 -0.018
O2ZC 0.057 0.085 0.205 0.013 -0.018 -0.007
O2JE 0.057 0.205 0.085 -0.013 -0.007 0.018
O2KE 0.057 0.205 0.085 -0.013 0.007 -0.018
O3E 0.059 0.057 0.1 0 0 -0.004
O3BA 0.059 0.1 0.057 0 0.004 0
O3DA 0.059 0.1 0.057 0 -0.004 0
Ni2R 0.1966 0.0916 0.1966 0.0159 0.002 0.0159
Ni2KA 0.1966 0.0916 0.1966 0.0159 0.002 0.0159
Ni2LB 0.1966 0.0916 0.1966 -0.0159 -0.002 0.0159
Ni2PB 0.0916 0.1966 0.1966 -0.002 -0.0159 0.0159
Ni2VB 0.0916 0.1966 0.1966 0.002 0.0159 0.0159
Ni2MC 0.1966 0.0916 0.1966 -0.0159 -0.002 0.0159
O6TC 0.127 0.323 0.323 0.063 0.041 0.041
O6KE 0.127 0.323 0.323 -0.063 0.041 -0.041
loop_
_geom_bond_atom_site_label_1
_geom_bond_atom_site_label_2
_geom_bond_site_symmetry_1
_geom_bond_site_symmetry_2
Ni1 O1 1_555 1_555
O1 Ni2 1_555 1_555
O2 C3 1_555 1_555
O3 Ni1 1_555 1_555
O4 Ni1 1_555 1_555
C1 H1 1_555 1_555
C2 C1 1_555 1_555
C3 O3 1_555 1_555
C4 C1 1_555 1_555
C5 C2 1_555 1_555
H2 C5 1_555 1_555
C6 C4 1_555 1_555
C7 C9 1_555 1_555
C8 C6 1_555 1_555
C9 C8 1_555 1_555
H3 C9 1_555 1_555
C10 C8 1_555 1_555
H4 C10 1_555 1_555
H5 C10 1_555 1_555
Ni2 O2 1_555 1_555
O5 Ni2 1_555 1_555
O6 Ni2 1_555 1_555
O2R C3R 1_555 1_555
O3R C3R 1_555 1_555
C1R H1R 1_555 1_555
C2R C1R 1_555 1_555
C3R C2R 1_555 1_555
C4R C1R 1_555 1_555
C5R C2R 1_555 1_555
H2R C5R 1_555 1_555
C6R C4R 1_555 1_555
C7R C7 1_555 1_555
C8R C6R 1_555 1_555
C9R C7R 1_555 1_555
H3R C9R 1_555 1_555
C10R C8R 1_555 1_555
H4R C10R 1_555 1_555
H5R C10R 1_555 1_555
O2VB C3VB 1_555 1_555
O3VB C3VB 1_555 1_555
C1VB C4R 1_555 1_555
H1VB C1VB 1_555 1_555
C2VB C5R 1_555 1_555
C3VB C2VB 1_555 1_555
C8VB C6R 1_555 1_555
C9VB C7R 1_555 1_555
H3VB C9VB 1_555 1_555
C10VB C8VB 1_555 1_555
H4VB C10VB 1_555 1_555
H5VB C10VB 1_555 1_555
O2MC C3MC 1_555 1_555
O3MC C3MC 1_555 1_555
C1MC C4 1_555 1_555
H1MC C1MC 1_555 1_555
C2MC C5 1_555 1_555
C3MC C2MC 1_555 1_555
C8MC C6 1_555 1_555
C9MC C7 1_555 1_555
H3MC C9MC 1_555 1_555
C10MC C8MC 1_555 1_555
H4MC C10MC 1_555 1_555
H5MC C10MC 1_555 1_555
O2TC C3 1_555 1_555
H5TC C10MC 1_555 1_555
O2KD C3R 1_555 1_555
H5KD C10VB 1_555 1_555
O2LF C3VB 1_555 1_555
H5LF C10R 1_555 1_555
O2DG C3MC 1_555 1_555
H5DG C10 1_555 1_555
Ni2E O1 1_555 1_555
O5E Ni2E 1_555 1_555
O6E Ni2E 1_555 1_555
O6BA Ni2 1_555 1_555
O6DA Ni2E 1_555 1_555
Ni2DA O1 1_555 1_555
O5DA Ni2DA 1_555 1_555
Ni2BA O1 1_555 1_555
O5BA Ni2BA 1_555 1_555
O6ZC Ni2 1_555 1_555
O6JE Ni2 1_555 1_555
Ni1A O3R 1_555 1_555
Ni1KA O3MC 1_555 1_555
Ni1PB O3VB 1_555 1_555
O2E Ni2E 1_555 1_555
O2BA Ni2E 1_555 1_555
O2DA Ni2 1_555 1_555
O2ZC Ni2E 1_555 1_555
O2JE Ni2 1_555 1_555
O2KE Ni2E 1_555 1_555
O3E Ni1 1_555 1_555
O3BA Ni1 1_555 1_555
O3DA Ni1 1_555 1_555
Ni2R O2R 1_555 1_555
Ni2KA O2MC 1_555 1_555
Ni2LB O2R 1_555 1_555
Ni2PB O2VB 1_555 1_555
Ni2VB O2VB 1_555 1_555
Ni2MC O2MC 1_555 1_555
O6TC Ni2E 1_555 1_555
O6KE Ni2E 1_555 1_555
O2 Ni2BA 1_555 1_555
C2 C3 1_555 1_555
Ni2 O2TC 1_555 1_555
O6 Ni2DA 1_555 1_555
C8R C9R 1_555 1_555
C1VB C2VB 1_555 1_555
C8VB C9VB 1_555 1_555
C1MC C2MC 1_555 1_555
C8MC C9MC 1_555 1_555
O2TC Ni2BA 1_555 1_555
O2KD Ni2R 1_555 1_555
O2KD Ni2LB 1_555 1_555
O2LF Ni2PB 1_555 1_555
O2LF Ni2VB 1_555 1_555
O2DG Ni2KA 1_555 1_555
O2DG Ni2MC 1_555 1_555
O6E Ni2BA 1_555 1_555
O6BA Ni2BA 1_555 1_555
O6DA Ni2DA 1_555 1_555
Ni2DA O6ZC 1_555 1_555
Ni2DA O2E 1_555 1_555
Ni2DA O2DA 1_555 1_555
Ni2DA O2ZC 1_555 1_555
Ni2DA O2JE 1_555 1_555
Ni2DA O6KE 1_555 1_555
Ni2BA O6JE 1_555 1_555
Ni2BA O2BA 1_555 1_555
Ni2BA O2KE 1_555 1_555
Ni2BA O6TC 1_555 1_555

#END
