
#######################################################################
#
#                 Cambridge Crystallographic Data Centre
#                                CCDC 
#
#######################################################################
#
# If this CIF has been generated from an entry in the Cambridge 
# Structural Database, then it will include bibliographic, chemical, 
# crystal, experimental, refinement or atomic coordinate data resulting 
# from the CCDC's data processing and validation procedures.
#
#######################################################################

data_YICDAR
_chemical_formula_moiety         '(C16 H22 Mg2 N4 O10)n'
_chemical_name_systematic        
catena-[(\m~4~-2,5-Diaminoterephthalato)-bis(\m~2~-formato)-bis(N,N-dimethylformamide)-di-magnesium]
_symmetry_cell_setting           rhombohedral
_symmetry_space_group_name_H-M   'R -3'
_symmetry_Int_Tables_number      148
_space_group_name_Hall           '-R 3'
loop_
_symmetry_equiv_pos_site_id
_symmetry_equiv_pos_as_xyz
1 x,y,z
2 -y,x-y,z
3 -x+y,-x,z
4 2/3+x,1/3+y,1/3+z
5 2/3-y,1/3+x-y,1/3+z
6 2/3-x+y,1/3-x,1/3+z
7 1/3+x,2/3+y,2/3+z
8 1/3-y,2/3+x-y,2/3+z
9 1/3-x+y,2/3-x,2/3+z
10 -x,-y,-z
11 y,-x+y,-z
12 x-y,x,-z
13 1/3-x,2/3-y,2/3-z
14 1/3+y,2/3-x+y,2/3-z
15 1/3+x-y,2/3+x,2/3-z
16 2/3-x,1/3-y,1/3-z
17 2/3+y,1/3-x+y,1/3-z
18 2/3+x-y,1/3+x,1/3-z
_cell_length_a                   27.3840(6)
_cell_length_b                   27.3840(6)
_cell_length_c                   9.1140(4)
_cell_angle_alpha                90
_cell_angle_beta                 90
_cell_angle_gamma                120
_cell_volume                     5918.8
_exptl_crystal_colour            colorless
_exptl_crystal_description       'rhombic dodecahedra'
_cell_formula_units_Z            9
loop_
_atom_site_label
_atom_site_type_symbol
_atom_site_fract_x
_atom_site_fract_y
_atom_site_fract_z
_atom_site_U_iso_or_equiv
_atom_site_thermal_displace_type
Mg1 Mg 0.11046(5) 0.12253(5) 0.08540(15) 0.0349 Uani
O1 O 0.19447(11) 0.14681(11) 0.0790(4) 0.0478 Uani
O2 O 0.19285(12) 0.06620(17) 0.0281(4) 0.0456 Uani
C1 C 0.21726(16) 0.11679(17) 0.0710(5) 0.0379 Uani
C2 C 0.27708(16) 0.14222(17) 0.1178(5) 0.0385 Uani
C3 C 0.30527(18) 0.19646(19) 0.1744(6) 0.0486 Uani
C4 C 0.30559(17) 0.11150(18) 0.1104(5) 0.0466 Uani
N1 N 0.2830(4) 0.0565(4) 0.0516(14) 0.0663 Uani
C5 C 0.07726(17) 0.00506(18) 0.2166(5) 0.0409 Uani
H1 H 0.0656 -0.0145 0.3049 0.0490 Uiso
O3 O 0.09599(12) 0.05642(12) 0.2220(3) 0.0443 Uani
O4 O 0.07236(16) -0.02334(11) 0.1039(3) 0.0389 Uani
O5 O 0.12691(17) 0.17056(14) 0.2798(4) 0.0626 Uani
C6 C 0.1571(7) 0.1771(7) 0.3692(17) 0.1014 Uani
H2 H 0.1842 0.1675 0.3448 0.1210 Uiso
N2 N 0.1615(6) 0.1979(6) 0.5163(16) 0.1204 Uani
C7 C 0.1086(11) 0.1992(15) 0.544(4) 0.2130 Uiso
H3 H 0.1093 0.2126 0.6417 0.3190 Uiso
H4 H 0.0769 0.1618 0.5337 0.3190 Uiso
H5 H 0.1056 0.2238 0.4746 0.3190 Uiso
C8 C 0.1946(10) 0.1876(11) 0.630(3) 0.2040 Uiso
H6 H 0.1920 0.2034 0.7219 0.3060 Uiso
H7 H 0.2333 0.2051 0.6002 0.3060 Uiso
H8 H 0.1796 0.1478 0.6411 0.3060 Uiso
O1O O 0.47220(11) 0.18652(11) 0.2543(4) 0.0478 Uani
C1O C 0.44941(16) 0.21654(17) 0.2623(5) 0.0379 Uani
C2O C 0.38959(16) 0.19111(17) 0.2155(5) 0.0385 Uani
C3O C 0.36140(18) 0.13687(19) 0.1589(6) 0.0486 Uani
C4O C 0.36108(17) 0.22183(18) 0.2229(5) 0.0466 Uani
N1O N 0.3837(4) 0.2768(4) 0.2817(14) 0.0663 Uani
O2O O 0.47382(12) 0.26713(17) 0.3052(4) 0.0456 Uani
Mg1A Mg -0.12253(5) -0.01207(7) 0.08540(15) 0.0349 Uani
C5A C -0.00506(18) 0.07220(25) 0.2166(5) 0.0409 Uani
H1A H 0.0145 0.0801 0.3049 0.0490 Uiso
O3A O -0.05642(12) 0.03957(17) 0.2220(3) 0.0443 Uani
O4A O 0.02334(11) 0.09570(19) 0.1039(3) 0.0389 Uani
O5A O -0.17056(14) -0.04365(22) 0.2798(4) 0.0626 Uani
C6A C -0.1771(7) -0.0200(10) 0.3692(17) 0.1014 Uani
H2A H -0.1675 0.0167 0.3448 0.1210 Uiso
N2A N -0.1979(6) -0.0364(8) 0.5163(16) 0.1204 Uani
C7A C -0.1992(15) -0.0906(19) 0.544(4) 0.2130 Uiso
H3A H -0.2126 -0.1033 0.6417 0.3190 Uiso
H4A H -0.1618 -0.0849 0.5337 0.3190 Uiso
H5A H -0.2238 -0.1182 0.4746 0.3190 Uiso
C8A C -0.1876(11) 0.0070(15) 0.630(3) 0.2040 Uiso
H6A H -0.2034 -0.0114 0.7219 0.3060 Uiso
H7A H -0.2051 0.0282 0.6002 0.3060 Uiso
H8A H -0.1478 0.0318 0.6411 0.3060 Uiso
Mg1B Mg 0.01207(7) -0.11046(5) 0.08540(15) 0.0349 Uani
Mg1D Mg 0.54414(5) 0.32126(7) 0.41873(15) 0.0349 Uani
Mg1J Mg 0.12253(5) 0.01207(7) -0.08540(15) 0.0349 Uani
Mg1K Mg -0.01207(7) 0.11046(5) -0.08540(15) 0.0349 Uani
Mg1O Mg 0.55621(5) 0.21080(5) 0.24793(15) 0.0349 Uani
O1A O -0.14681(11) 0.04766(16) 0.0790(4) 0.0478 Uani
O2I O -0.19285(12) -0.06620(17) -0.0281(4) 0.0456 Uani
O2K O 0.12665(21) 0.19285(12) -0.0281(4) 0.0456 Uani
O4B O -0.09570(19) -0.07236(16) 0.1039(3) 0.0389 Uani
O4I O -0.07236(16) 0.02334(11) -0.1039(3) 0.0389 Uani
O4K O 0.09570(19) 0.07236(16) -0.1039(3) 0.0389 Uani
N3? N 0.2820(17) 0.2272(17) 0.197(6) 0.0663 Uani
C9? C 0.1644(7) 0.2191(6) 0.2948(15) 0.0841 Uani
H9? H 0.1834 0.2398 0.2121 0.1010 Uiso
N4? N 0.1787(8) 0.2432(7) 0.424(2) 0.1460 Uani
C10? C 0.1376(14) 0.2236(17) 0.545(4) 0.2130 Uiso
H10? H 0.1542 0.2476 0.6289 0.3190 Uiso
H11? H 0.1273 0.1856 0.5706 0.3190 Uiso
H12? H 0.1047 0.2248 0.5151 0.3190 Uiso
C11? C 0.2159(11) 0.3037(9) 0.449(3) 0.2040 Uiso
H13? H 0.2145 0.3122 0.5504 0.3060 Uiso
H14? H 0.2036 0.3245 0.3894 0.3060 Uiso
H15? H 0.2538 0.3140 0.4228 0.3060 Uiso
loop_
_atom_site_aniso_label
_atom_site_aniso_U_11
_atom_site_aniso_U_22
_atom_site_aniso_U_33
_atom_site_aniso_U_23
_atom_site_aniso_U_13
_atom_site_aniso_U_12
Mg1 0.0265(7) 0.0258(7) 0.0526(9) -0.0011(6) -0.0026(6) 0.0133(6)
O1 0.0258(15) 0.0317(16) 0.082(2) -0.0028(15) -0.0050(14) 0.0114(13)
O2 0.0288 0.0345 0.072 -0.0079 -0.0079 0.0147
C1 0.026(2) 0.033(2) 0.053(3) 0.0037(19) 0.0007(18) 0.0135(19)
C2 0.025(2) 0.033(2) 0.055(3) -0.0004(18) -0.0007(17) 0.0127(17)
C3 0.031(2) 0.038(2) 0.075(3) -0.006(2) -0.007(2) 0.016(2)
C4 0.027(2) 0.037(2) 0.071(3) -0.007(2) -0.002(2) 0.0125(19)
N1 0.035(5) 0.041(6) 0.123(9) -0.024(6) -0.019(6) 0.019(5)
C5 0.039(2) 0.035(2) 0.048(3) 0.006(2) 0.0028(19) 0.018(2)
O3 0.0475(18) 0.0300(16) 0.0548(18) -0.0034(13) -0.0014(14) 0.0189(14)
O4 0.0332 0.0289 0.0511 -0.0009 0.0016 0.0129
O5 0.074(3) 0.045(2) 0.065(2) -0.0133(17) -0.002(2) 0.027(2)
C6 0.106(11) 0.101(12) 0.087(10) -0.067(10) -0.040(9) 0.044(10)
N2 0.119(11) 0.093(9) 0.116(10) 0.016(8) -0.023(8) 0.028(8)
O1O 0.0258 0.0317 0.082 -0.0028 -0.005 0.0114
C1O 0.026 0.033 0.053 0.0037 0.0007 0.0135
C2O 0.025 0.033 0.055 -0.0004 -0.0007 0.0127
C3O 0.031 0.038 0.075 -0.006 -0.007 0.016
C4O 0.027 0.037 0.071 -0.007 -0.002 0.0125
N1O 0.035 0.041 0.123 -0.024 -0.019 0.019
O2O 0.0288 0.0345 0.072 -0.0079 -0.0079 0.0147
Mg1A 0.0258 0.0257 0.0526 -0.0015 0.0011 0.0125
C5A 0.035 0.038 0.048 -0.0032 -0.006 0.017
O3A 0.03 0.0397 0.0548 0.002 0.0034 0.0111
O4A 0.0289 0.0363 0.0511 0.0025 0.0009 0.016
O5A 0.045 0.065 0.065 0.0113 0.0133 0.018
C6A 0.101 0.119 0.087 0.027 0.067 0.057
N2A 0.093 0.156 0.116 -0.039 -0.016 0.065
Mg1B 0.0257 0.0265 0.0526 0.0026 0.0015 0.0132
Mg1D 0.0258 0.0257 0.0526 -0.0015 0.0011 0.0125
Mg1J 0.0258 0.0257 0.0526 -0.0015 0.0011 0.0125
Mg1K 0.0257 0.0265 0.0526 0.0026 0.0015 0.0132
Mg1O 0.0265 0.0258 0.0526 -0.0011 -0.0026 0.0133
O1A 0.0317 0.0347 0.082 -0.0022 0.0028 0.0203
O2I 0.0288 0.0345 0.072 -0.0079 -0.0079 0.0147
O2K 0.0339 0.0288 0.072 0.0079 0 0.0141
O4B 0.0363 0.0332 0.0511 -0.0016 -0.0025 0.0203
O4I 0.0332 0.0289 0.0511 -0.0009 0.0016 0.0129
O4K 0.0363 0.0332 0.0511 -0.0016 -0.0025 0.0203
N3? 0.035(5) 0.041(6) 0.123(9) -0.024(6) -0.019(6) 0.019(5)
C9? 0.123(12) 0.050(8) 0.051(8) -0.018(7) -0.005(7) 0.022(9)
N4? 0.163(16) 0.081(10) 0.126(13) -0.043(10) -0.002(11) 0.010(10)
loop_
_geom_bond_atom_site_label_1
_geom_bond_atom_site_label_2
_geom_bond_site_symmetry_1
_geom_bond_site_symmetry_2
Mg1 O1 1_555 1_555
O1 C1 1_555 1_555
O2 C1 1_555 1_555
C1 C2 1_555 1_555
C2 C3 1_555 1_555
C3 C4O 1_555 1_555
C4 C2 1_555 1_555
N1 C4 1_555 1_555
C5 H1 1_555 1_555
O3 Mg1 1_555 1_555
O4 C5 1_555 1_555
O5 Mg1 1_555 1_555
C6 O5 1_555 1_555
H2 C6 1_555 1_555
N2 C6 1_555 1_555
C7 N2 1_555 1_555
H3 C7 1_555 1_555
H4 C7 1_555 1_555
H5 C7 1_555 1_555
C8 N2 1_555 1_555
H6 C8 1_555 1_555
H7 C8 1_555 1_555
H8 C8 1_555 1_555
O1O C1O 1_555 1_555
C1O C2O 1_555 1_555
C2O C3O 1_555 1_555
C3O C4 1_555 1_555
C4O C2O 1_555 1_555
N1O C4O 1_555 1_555
O2O C1O 1_555 1_555
Mg1A O3A 1_555 1_555
C5A H1A 1_555 1_555
O3A C5A 1_555 1_555
O4A Mg1 1_555 1_555
O5A Mg1A 1_555 1_555
C6A O5A 1_555 1_555
H2A C6A 1_555 1_555
N2A C6A 1_555 1_555
C7A N2A 1_555 1_555
H3A C7A 1_555 1_555
H4A C7A 1_555 1_555
H5A C7A 1_555 1_555
C8A N2A 1_555 1_555
H6A C8A 1_555 1_555
H7A C8A 1_555 1_555
H8A C8A 1_555 1_555
Mg1B O4 1_555 1_555
Mg1D O2O 1_555 1_555
Mg1J O2 1_555 1_555
Mg1K O4A 1_555 1_555
Mg1O O1O 1_555 1_555
O1A Mg1A 1_555 1_555
O2I Mg1A 1_555 1_555
O2K Mg1 1_555 1_555
O4B Mg1A 1_555 1_555
O4I Mg1A 1_555 1_555
O4K Mg1 1_555 1_555
C5 O3 1_555 1_555
O4 Mg1J 1_555 1_555
C5A O4A 1_555 1_555
Mg1J O4K 1_555 1_555
Mg1K O4I 1_555 1_555

#END
