
#######################################################################
#
#                 Cambridge Crystallographic Data Centre
#                                CCDC 
#
#######################################################################
#
# If this CIF has been generated from an entry in the Cambridge 
# Structural Database, then it will include bibliographic, chemical, 
# crystal, experimental, refinement or atomic coordinate data resulting 
# from the CCDC's data processing and validation procedures.
#
#######################################################################

data_YICDAR01
_chemical_formula_moiety         '(C16 H22 Mg2 N4 O10)n'
_chemical_name_systematic        
catena-[(\m~4~-2,5-Diaminoterephthalato)-(bis(\m~2~-formato)-bis(N,N-dimethylformamide)-di-magnesium]
_symmetry_cell_setting           trigonal
_symmetry_space_group_name_H-M   'P -3'
_symmetry_Int_Tables_number      147
_space_group_name_Hall           '-P 3'
loop_
_symmetry_equiv_pos_site_id
_symmetry_equiv_pos_as_xyz
1 x,y,z
2 -y,x-y,z
3 -x+y,-x,z
4 -x,-y,-z
5 y,-x+y,-z
6 x-y,x,-z
_cell_length_a                   16.000(2)
_cell_length_b                   16.000(2)
_cell_length_c                   7.5000(15)
_cell_angle_alpha                90
_cell_angle_beta                 90
_cell_angle_gamma                120
_cell_volume                     1662.77
_exptl_crystal_colour            colorless
_exptl_crystal_description       'hexagonal prism'
_cell_formula_units_Z            3
loop_
_atom_site_label
_atom_site_type_symbol
_atom_site_fract_x
_atom_site_fract_y
_atom_site_fract_z
Mg1 Mg 0.77198(6) 0.89609(7) 0.39396(11)
O1 O 0.66718(14) 0.75466(14) 0.4068(3)
O2 O 0.75403(14) 0.68470(15) 0.4697(3)
C1 C 0.6759(2) 0.68300(19) 0.4480(4)
C2 C 0.5840(2) 0.5878(2) 0.4735(4)
C3 C 0.4954(2) 0.5782(2) 0.4313(4)
C4 C 0.4111(2) 0.4909(2) 0.4587(4)
N1 N 0.3267(7) 0.4972(7) 0.4203(16)
O3 O 0.85485(14) 0.86497(14) 0.2253(3)
C5 C 0.9256(2) 0.85327(19) 0.2355(3)
H1 H 0.9581 0.8573 0.1301
O4 O 0.95760(13) 0.83621(14) 0.3780(3)
O5 O 0.70366(15) 0.90677(15) 0.1628(3)
C6 C 0.6722(2) 0.8393(2) 0.0527(4)
H2 H 0.7017 0.8019 0.0477
N2 N 0.6009(2) 0.8180(2) -0.0554(4)
C7 C 0.5710(3) 0.7405(3) -0.1845(5)
H3 H 0.5179 0.7352 -0.2533
H4 H 0.5513 0.6809 -0.1230
H5 H 0.6240 0.7543 -0.2623
C8 C 0.5497(3) 0.8712(4) -0.0517(6)
H6 H 0.4999 0.8459 -0.1406
H7 H 0.5940 0.9381 -0.0758
H8 H 0.5213 0.8649 0.0639
O1C O 0.33282(14) 0.24534(14) 0.5932(3)
O2C O 0.24597(14) 0.31530(15) 0.5303(3)
C1C C 0.3241(2) 0.31700(19) 0.5520(4)
C2C C 0.4160(2) 0.4122(2) 0.5265(4)
C3C C 0.5046(2) 0.4218(2) 0.5687(4)
C4C C 0.5889(2) 0.5091(2) 0.5413(4)
N1C N 0.6733(7) 0.5028(7) 0.5797(16)
Mg1B Mg 1.12411(9) 1.22802(6) 0.39396(11)
O3B O 1.01012(20) 1.14515(14) 0.2253(3)
C5B C 0.92767(28) 1.0744(2) 0.2355(3)
H1B H 0.8992 1.0419 0.1301
O4B O 0.87861(19) 1.04240(13) 0.3780(3)
O5B O 1.20311(21) 1.29634(15) 0.1628(3)
C6B C 1.1671(3) 1.3278(2) 0.0527(4)
H2B H 1.1002 1.2983 0.0477
N2B N 1.2171(3) 1.3991(2) -0.0554(4)
C7B C 1.1695(4) 1.4290(3) -0.1845(5)
H3B H 1.2173 1.4821 -0.2533
H4B H 1.1296 1.4487 -0.1230
H5B H 1.1303 1.3760 -0.2623
C8B C 1.3215(5) 1.4503(3) -0.0517(6)
H6B H 1.3460 1.5001 -0.1406
H7B H 1.3441 1.4060 -0.0758
H8B H 1.3436 1.4787 0.0639
Mg1A Mg 1.10391(7) 0.87589(9) 0.39396(11)
Mg1B_2 Mg 0.12411(9) 0.22802(6) 0.39396(11)
Mg1C Mg 0.22802(6) 0.10391(7) 0.60604(11)
Mg1D Mg 0.89609(7) 1.12411(9) 0.60604(11)
Mg1E Mg 0.87589(9) 0.77198(6) 0.60604(11)
O1B O 1.08748(20) 1.33282(14) 0.4068(3)
O2C_2 O 1.24597(14) 1.31530(15) 0.5303(3)
O2D O 0.68470(15) 0.93067(21) 0.5303(3)
O4A O 1.16379(14) 1.12139(19) 0.3780(3)
O4C O 1.04240(13) 1.16379(14) 0.6220(3)
O4D O 0.83621(14) 0.87861(19) 0.6220(3)
N3? N 0.4791(8) 0.6484(8) 0.3433(18)
loop_
_geom_bond_atom_site_label_1
_geom_bond_atom_site_label_2
_geom_bond_site_symmetry_1
_geom_bond_site_symmetry_2
Mg1 O1 1_555 1_555
O1 C1 1_555 1_555
O2 C1 1_555 1_555
C1 C2 1_555 1_555
C2 C3 1_555 1_555
C3 C4 1_555 1_555
C4 N1 1_555 1_555
O3 Mg1 1_555 1_555
C5 O3 1_555 1_555
H1 C5 1_555 1_555
O4 C5 1_555 1_555
O5 Mg1 1_555 1_555
C6 O5 1_555 1_555
H2 C6 1_555 1_555
N2 C6 1_555 1_555
C7 N2 1_555 1_555
H3 C7 1_555 1_555
H4 C7 1_555 1_555
H5 C7 1_555 1_555
C8 N2 1_555 1_555
H6 C8 1_555 1_555
H7 C8 1_555 1_555
H8 C8 1_555 1_555
O1C C1C 1_555 1_555
O2C C1C 1_555 1_555
C1C C2C 1_555 1_555
C2C C4 1_555 1_555
C3C C2C 1_555 1_555
C4C C2 1_555 1_555
N1C C4C 1_555 1_555
Mg1B O3B 1_555 1_555
O3B C5B 1_555 1_555
C5B H1B 1_555 1_555
O4B Mg1 1_555 1_555
O5B Mg1B 1_555 1_555
C6B O5B 1_555 1_555
H2B C6B 1_555 1_555
N2B C6B 1_555 1_555
C7B N2B 1_555 1_555
H3B C7B 1_555 1_555
H4B C7B 1_555 1_555
H5B C7B 1_555 1_555
C8B N2B 1_555 1_555
H6B C8B 1_555 1_555
H7B C8B 1_555 1_555
H8B C8B 1_555 1_555
Mg1A O4 1_555 1_555
Mg1B_2 O2C 1_555 1_555
Mg1C O1C 1_555 1_555
Mg1D O4B 1_555 1_555
Mg1E O2 1_555 1_555
O1B Mg1B 1_555 1_555
O2C_2 Mg1B 1_555 1_555
O2D Mg1 1_555 1_555
O4A Mg1B 1_555 1_555
O4C Mg1B 1_555 1_555
O4D Mg1 1_555 1_555
O4 Mg1E 1_555 1_555
C3C C4C 1_555 1_555
C5B O4B 1_555 1_555
Mg1D O4C 1_555 1_555
Mg1E O4D 1_555 1_555

#END
