
#######################################################################
#
#                 Cambridge Crystallographic Data Centre
#                                CCDC 
#
#######################################################################
#
# If this CIF has been generated from an entry in the Cambridge 
# Structural Database, then it will include bibliographic, chemical, 
# crystal, experimental, refinement or atomic coordinate data resulting 
# from the CCDC's data processing and validation procedures.
#
#######################################################################

data_TISHAF
_chemical_formula_moiety         
'(C117 H87 Fe6 N3 O33)n,15n(C3 H7 N1 O1),3n(H2 O1)'
_chemical_name_systematic        
'catena-((\m~6~-Benzene-1,3,5-tribenzoato)-tris(\m~5~-benzene-1,3,5-tribenzoato)-tris(\m~3~-oxo)-tris(dimethylformamide)-triaqua-hexa-iron(iii) dimethylformamide solvate trihydrate)'
_symmetry_cell_setting           rhombohedral
_symmetry_space_group_name_H-M   'R -3'
_symmetry_Int_Tables_number      148
_space_group_name_Hall           '-R 3'
loop_
_symmetry_equiv_pos_site_id
_symmetry_equiv_pos_as_xyz
1 x,y,z
2 -y,x-y,z
3 -x+y,-x,z
4 2/3+x,1/3+y,1/3+z
5 2/3-y,1/3+x-y,1/3+z
6 2/3-x+y,1/3-x,1/3+z
7 1/3+x,2/3+y,2/3+z
8 1/3-y,2/3+x-y,2/3+z
9 1/3-x+y,2/3-x,2/3+z
10 -x,-y,-z
11 y,-x+y,-z
12 x-y,x,-z
13 1/3-x,2/3-y,2/3-z
14 1/3+y,2/3-x+y,2/3-z
15 1/3+x-y,2/3+x,2/3-z
16 2/3-x,1/3-y,1/3-z
17 2/3+y,1/3-x+y,1/3-z
18 2/3+x-y,1/3+x,1/3-z
_cell_length_a                   38.2457(15)
_cell_length_b                   38.2457(15)
_cell_length_c                   20.8226(15)
_cell_angle_alpha                90
_cell_angle_beta                 90
_cell_angle_gamma                120.00
_cell_volume                     26377.3
_exptl_crystal_colour            brown
_exptl_crystal_description       block
_cell_formula_units_Z            6
loop_
_atom_site_label
_atom_site_type_symbol
_atom_site_fract_x
_atom_site_fract_y
_atom_site_fract_z
Fe1 Fe 0.413332(17) -0.047274(17) 0.55048(3)
Fe2 Fe 0.499450(17) 0.037420(17) 0.49475(3)
O1 O 0.41164(8) 0.00301(8) 0.57946(13)
O2 O 0.45649(8) 0.05193(8) 0.51509(13)
O3 O 0.43084(9) 0.37566(9) 0.51916(16)
O4 O 0.46766(13) 0.40449(10) 0.60777(17)
O5 O 0.28502(9) 0.17426(9) 1.03606(13)
O6 O 0.30014(8) 0.12652(8) 1.06473(13)
O7 O 0.46286(8) -0.09751(8) 0.51915(14)
O8 O 0.40154(9) -0.10443(8) 0.53045(15)
O9 O 0.46174(7) -0.01933(7) 0.50801(12)
C1 C 0.38839(14) 0.15030(13) 0.6763(2)
C2 C 0.39927(14) 0.18794(13) 0.6476(2)
H1 H 0.4119 0.1945 0.6077
C3 C 0.39091(15) 0.21526(13) 0.6796(2)
C4 C 0.37228(15) 0.20511(14) 0.7384(2)
H2 H 0.3671 0.2234 0.7596
C5 C 0.36092(15) 0.16806(14) 0.7672(2)
C6 C 0.36960(14) 0.14098(13) 0.7350(2)
H3 H 0.3625 0.1163 0.7539
C7 C 0.39786(14) 0.12156(13) 0.6428(2)
C8 C 0.37350(15) 0.08089(13) 0.6494(2)
H4 H 0.3497 0.0710 0.6728
C9 C 0.38359(15) 0.05363(13) 0.6214(2)
H5 H 0.3669 0.0260 0.6274
C10 C 0.41813(13) 0.06769(13) 0.5853(2)
C11 C 0.44142(15) 0.10790(14) 0.5771(2)
H6 H 0.4642 0.1176 0.5512
C12 C 0.43251(15) 0.13527(13) 0.6060(2)
H7 H 0.4498 0.1628 0.6006
C13 C 0.42908(13) 0.03858(13) 0.5581(2)
C14 C 0.40432(16) 0.25624(13) 0.6516(2)
C15 C 0.40284(15) 0.26176(14) 0.5862(2)
H8 H 0.3947 0.2401 0.5581
C16 C 0.41349(15) 0.29970(13) 0.5627(2)
H9 H 0.4108 0.3029 0.5190
C17 C 0.42816(16) 0.33308(14) 0.6032(2)
C18 C 0.42968(19) 0.32753(15) 0.6691(2)
H10 H 0.4381 0.3493 0.6970
C19 C 0.4186(2) 0.28946(16) 0.6929(2)
H11 H 0.4206 0.2860 0.7367
C20 C 0.44298(17) 0.37447(15) 0.5755(3)
C21 C 0.34187(14) 0.15904(13) 0.8319(2)
C22 C 0.31496(15) 0.17315(14) 0.8474(2)
H12 H 0.3076 0.1856 0.8161
C23 C 0.29964(14) 0.16859(14) 0.9086(2)
H13 H 0.2817 0.1775 0.9182
C24 C 0.31097(13) 0.15059(13) 0.9562(2)
C25 C 0.33533(15) 0.13511(14) 0.9404(2)
H14 H 0.3414 0.1214 0.9713
C26 C 0.35110(15) 0.13950(14) 0.8787(2)
H15 H 0.3680 0.1292 0.8691
C27 C 0.29801(12) 0.15092(12) 1.0240(2)
C28 C 0.37448(17) -0.30978(16) 0.4964(4)
H16 H 0.4024 -0.2937 0.4945
C29 C 0.35113(17) -0.29145(16) 0.4977(4)
C30 C 0.36998(17) -0.24629(16) 0.5005(4)
C31 C 0.40965(18) -0.22100(17) 0.4890(5)
H17 H 0.4252 -0.2320 0.4748
C32 C 0.42791(16) -0.18045(16) 0.4969(4)
H18 H 0.4555 -0.1644 0.4893
C33 C 0.40586(14) -0.16296(15) 0.5162(3)
C34 C 0.36654(18) -0.18765(17) 0.5321(5)
H19 H 0.3517 -0.1768 0.5496
C35 C 0.34826(19) -0.22940(19) 0.5223(6)
H20 H 0.3209 -0.2458 0.5309
C36 C 0.42527(14) -0.11814(13) 0.5239(2)
O10 O 0.51688(10) 0.05039(11) 0.59115(16)
H21 H 0.5420(6) 0.0624(13) 0.6035(15)
H22 H 0.5067(10) 0.0614(13) 0.6163(15)
O11 O 0.36426(11) -0.07698(12) 0.6126(2)
C37 C 0.3402(3) -0.0671(2) 0.6283(5)
H23 H 0.3378 -0.0482 0.6033
N1 N 0.3148(3) -0.0832(3) 0.6845(4)
C38 C 0.2914(3) -0.0641(4) 0.6962(6)
H24 H 0.3003 -0.0411 0.6684
H25 H 0.2946 -0.0553 0.7401
H26 H 0.2634 -0.0829 0.6880
C39 C 0.3208(4) -0.1191(4) 0.7031(7)
H27 H 0.3424 -0.1181 0.6782
H28 H 0.2964 -0.1441 0.6947
H29 H 0.3272 -0.1175 0.7479
Fe1J Fe -0.047274(17) -0.460606(24) 0.44952(3)
Fe1N Fe 0.793939(24) 0.079999(17) 1.11619(3)
Fe1K Fe 0.460606(24) 0.413332(17) 0.44952(3)
Fe1M Fe 0.286059(17) 0.206061(24) 1.11619(3)
Fe1A Fe 0.047274(17) -0.539394(24) 0.55048(3)
Fe1B Fe 0.539394(24) -0.413332(17) 0.55048(3)
Fe1E Fe 0.206061(24) -0.079999(17) -0.11619(3)
Fe1G Fe 0.380607(17) 0.127273(24) 1.21715(3)
Fe1I Fe 0.586668(17) 0.047274(17) 0.44952(3)
Fe2J Fe 0.037420(17) -0.462030(24) 0.50525(3)
Fe2N Fe 0.795363(24) 0.166117(17) 1.17192(3)
Fe2G Fe 0.295913(17) 0.128697(24) 1.16142(3)
Fe2I Fe 0.500550(17) -0.037420(17) 0.50525(3)
Fe2K Fe 0.462030(24) -0.500550(17) 0.50525(3)
Fe2Q Fe 0.128697(24) -0.167217(17) -0.16142(3)
Fe2A Fe -0.037420(17) -0.537970(24) 0.49475(3)
O1J O 0.00301(8) -0.40863(11) 0.42054(13)
O1N O 0.74196(11) 0.07831(8) 1.08721(13)
O2J O 0.05193(8) -0.40456(11) 0.48491(13)
O2N O 0.73789(11) 0.12316(8) 1.15158(13)
O3J O 0.37566(9) -0.05518(13) 0.48084(16)
O3N O 0.38851(13) 0.09751(9) 1.14751(16)
O3B O -0.05518(13) -0.43084(9) 0.51916(16)
O3F O 0.76417(9) 0.04233(9) 1.18583(16)
O4J O 0.40449(10) -0.06317(16) 0.39223(17)
O4N O 0.39650(16) 0.13433(13) 1.05890(17)
O5J O 0.17426(9) -0.11076(13) -0.03606(13)
O5N O 0.44409(13) -0.04831(9) 0.63061(13)
O5C O -0.04831(9) -0.49241(9) 0.36939(13)
O5A O 0.82574(9) 0.11076(13) 1.03606(13)
O6J O 0.12652(8) -0.17362(11) -0.06473(13)
O6N O 0.50695(11) -0.03319(8) 0.60194(13)
O6E O 0.49305(11) 0.03319(8) 0.39806(13)
O6L O 0.03319(8) -0.45985(8) 0.60194(13)
O6P O 0.79319(8) 0.15971(11) 1.26860(13)
O7A O 0.09751(8) -0.43963(11) 0.51915(14)
O7B O 0.43963(11) -0.46286(8) 0.51915(14)
O7I O 0.53714(8) 0.09751(8) 0.48085(14)
O7H O 0.77296(11) 0.20381(8) 1.18582(14)
O8A O 0.10443(8) -0.49403(12) 0.53045(15)
O8B O 0.49403(12) -0.40154(9) 0.53045(15)
O8J O -0.10443(8) -0.50597(12) 0.46955(15)
O8N O 0.83930(12) 0.06821(9) 1.13622(15)
O9I O 0.53826(7) 0.01933(7) 0.49199(12)
O9J O -0.01933(7) -0.48107(10) 0.49199(12)
O9N O 0.81440(10) 0.12841(7) 1.15866(12)
O9A O 0.01933(7) -0.51893(10) 0.50801(12)
O9H O 0.85226(10) 0.20493(7) 1.17468(12)
C1J C 0.15030(13) -0.23809(19) 0.3237(2)
C1N C 0.57142(19) 0.05506(14) 0.9904(2)
C2J C 0.18794(13) -0.21133(19) 0.3524(2)
C2N C 0.54466(19) 0.06594(14) 1.0191(2)
H1J H 0.1945 -0.2174 0.3923
H1N H 0.5507 0.0786 1.0590
C3J C 0.21526(13) -0.17565(20) 0.3204(2)
C3N C 0.50898(20) 0.05758(15) 0.9871(2)
C4J C 0.20511(14) -0.16717(21) 0.2616(2)
C4N C 0.50050(21) 0.03895(15) 0.9283(2)
H2J H 0.2234 -0.1437 0.2404
H2N H 0.4770 0.0338 0.9071
C5J C 0.16806(14) -0.19286(21) 0.2328(2)
C5N C 0.52619(21) 0.02759(15) 0.8995(2)
C6J C 0.14098(13) -0.22862(19) 0.2650(2)
C6N C 0.56195(19) 0.03627(14) 0.9317(2)
H3J H 0.1163 -0.2462 0.2461
H3N H 0.5795 0.0292 0.9128
C7J C 0.12156(13) -0.27630(19) 0.3572(2)
C7N C 0.60963(19) 0.06453(14) 1.0239(2)
C8J C 0.08089(13) -0.29261(20) 0.3506(2)
C8N C 0.62594(20) 0.04017(15) 1.0173(2)
H4J H 0.0710 -0.2787 0.3272
H4N H 0.6120 0.0164 0.9939
C9J C 0.05363(13) -0.32996(20) 0.3786(2)
C9N C 0.66329(20) 0.05026(15) 1.0453(2)
H5J H 0.0260 -0.3409 0.3726
H5N H 0.6742 0.0336 1.0393
C10J C 0.06769(13) -0.35044(18) 0.4147(2)
C10N C 0.68377(18) 0.08480(13) 1.0814(2)
C11J C 0.10790(14) -0.33352(21) 0.4229(2)
C11N C 0.66685(21) 0.10809(15) 1.0896(2)
H6J H 0.1176 -0.3466 0.4488
H6N H 0.6799 0.1309 1.1155
C12J C 0.13527(13) -0.29724(20) 0.3940(2)
C12N C 0.63057(20) 0.09918(15) 1.0607(2)
H7J H 0.1628 -0.2870 0.3994
H7N H 0.6203 0.1165 1.0661
C13J C 0.03858(13) -0.39050(18) 0.4419(2)
C13N C 0.72383(18) 0.09575(13) 1.1086(2)
C14J C 0.25624(13) -0.14808(21) 0.3484(2)
C14N C 0.48141(21) 0.07099(16) 1.0151(2)
C15J C 0.26176(14) -0.14108(21) 0.4138(2)
C15N C 0.47441(21) 0.06951(15) 1.0805(2)
H8J H 0.2401 -0.1546 0.4419
H8N H 0.4879 0.0614 1.1086
C16J C 0.29970(13) -0.11379(20) 0.4373(2)
C16N C 0.44712(20) 0.08016(15) 1.1040(2)
H9J H 0.3029 -0.1079 0.4810
H9N H 0.4412 0.0775 1.1477
C17J C 0.33308(14) -0.09508(21) 0.3968(2)
C17N C 0.42841(21) 0.09483(16) 1.0635(2)
C18J C 0.32753(15) -0.10215(24) 0.3309(2)
C18N C 0.43548(24) 0.09635(19) 0.9976(2)
H10J H 0.3493 -0.0888 0.3030
H10N H 0.4221 0.1048 0.9697
C19J C 0.28946(16) -0.12914(26) 0.3071(2)
C19N C 0.46247(26) 0.0853(2) 0.9738(2)
H11J H 0.2860 -0.1346 0.2633
H11N H 0.4679 0.0873 0.9300
C20J C 0.37447(15) -0.06851(23) 0.4245(3)
C20N C 0.40184(23) 0.10965(17) 1.0912(3)
C21J C 0.15904(13) -0.18283(19) 0.1681(2)
C21N C 0.51616(19) 0.00854(14) 0.8348(2)
C22J C 0.17315(14) -0.14181(21) 0.1526(2)
C22N C 0.47514(21) -0.01837(15) 0.8193(2)
H12J H 0.1856 -0.1220 0.1839
H12N H 0.4553 -0.0257 0.8506
C23J C 0.16859(14) -0.13105(20) 0.0914(2)
C23N C 0.46438(20) -0.03369(14) 0.7581(2)
H13J H 0.1775 -0.1042 0.0818
H13N H 0.4375 -0.0516 0.7485
C24J C 0.15059(13) -0.16038(18) 0.0438(2)
C24N C 0.49371(18) -0.02236(13) 0.7105(2)
C25J C 0.13511(14) -0.20022(21) 0.0596(2)
C25N C 0.53355(21) 0.00200(15) 0.7263(2)
H14J H 0.1214 -0.2200 0.0287
H14N H 0.5533 0.0081 0.6954
C26J C 0.13950(14) -0.21160(21) 0.1213(2)
C26N C 0.54493(21) 0.01777(15) 0.7880(2)
H15J H 0.1292 -0.2388 0.1309
H15N H 0.5721 0.0347 0.7976
C27J C 0.15092(12) -0.14709(17) -0.0240(2)
C27N C 0.48042(17) -0.03532(12) 0.6427(2)
C28B C 0.31574(23) -0.37448(17) 0.4964(4)
C28A C 0.30978(16) -0.31574(23) 0.4964(4)
H16B H 0.3039 -0.4024 0.4945
H16A H 0.2937 -0.3039 0.4945
C29B C 0.35742(23) -0.35113(17) 0.4977(4)
C29A C 0.29145(16) -0.35742(23) 0.4977(4)
C30A C 0.24629(16) -0.38373(23) 0.5005(4)
C30B C 0.38373(23) -0.36998(17) 0.5005(4)
C31A C 0.22100(17) -0.36935(25) 0.4890(5)
C31B C 0.36935(25) -0.40965(18) 0.4890(5)
H17A H 0.2320 -0.3428 0.4748
H17B H 0.3428 -0.4252 0.4748
C32A C 0.18045(16) -0.39164(23) 0.4969(4)
C32B C 0.39164(23) -0.42791(16) 0.4969(4)
H18A H 0.1644 -0.3801 0.4893
H18B H 0.3801 -0.4555 0.4893
C33A C 0.16296(15) -0.43118(21) 0.5162(3)
C33B C 0.43118(21) -0.40586(14) 0.5162(3)
C34A C 0.18765(17) -0.44581(25) 0.5321(5)
C34B C 0.44581(25) -0.36654(18) 0.5321(5)
H19A H 0.1768 -0.4715 0.5496
H19B H 0.4715 -0.3517 0.5496
C35A C 0.22940(19) -0.42234(27) 0.5223(6)
C35B C 0.42234(27) -0.34826(19) 0.5223(6)
H20A H 0.2458 -0.4333 0.5309
H20B H 0.4333 -0.3209 0.5309
C36A C 0.11814(13) -0.45659(19) 0.5239(2)
C36B C 0.45659(19) -0.42527(14) 0.5239(2)
O10J O 0.05039(11) -0.46649(15) 0.40885(16)
O10N O 0.79982(15) 0.18355(10) 1.07552(16)
H21J H 0.0624(13) -0.4796(14) 0.3965(15)
H21N H 0.8129(14) 0.2087(6) 1.0632(15)
H22J H 0.0614(13) -0.4453(16) 0.3837(15)
H22N H 0.7786(16) 0.1734(10) 1.0504(15)
O11J O -0.07698(12) -0.44124(16) 0.3874(2)
O11N O 0.77457(16) 0.03093(11) 1.0541(2)
C37J C -0.0671(2) -0.4073(4) 0.3717(5)
C37N C 0.7406(4) 0.0069(3) 1.0384(5)
H23J H -0.0482 -0.3860 0.3967
H23N H 0.7193 0.0045 1.0634
N1J N -0.0832(3) -0.3980(4) 0.3155(4)
N1N N 0.7313(4) -0.0185(3) 0.9822(4)
C38J C -0.0641(4) -0.3555(5) 0.3038(6)
C38N C 0.6888(5) -0.0419(3) 0.9705(6)
H24J H -0.0411 -0.3414 0.3316
H24N H 0.6747 -0.0330 0.9983
H25J H -0.0553 -0.3499 0.2599
H25N H 0.6832 -0.0387 0.9266
H26J H -0.0829 -0.3463 0.3120
H26N H 0.6796 -0.0699 0.9787
C39J C -0.1191(4) -0.4399(6) 0.2969(7)
C39N C 0.7732(6) -0.0125(4) 0.9636(7)
H27J H -0.1181 -0.4605 0.3218
H27N H 0.7938 0.0091 0.9885
H28J H -0.1441 -0.4405 0.3053
H28N H 0.7738 -0.0369 0.9720
H29J H -0.1175 -0.4447 0.2521
H29N H 0.7780 -0.0061 0.9188
loop_
_geom_bond_atom_site_label_1
_geom_bond_atom_site_label_2
_geom_bond_site_symmetry_1
_geom_bond_site_symmetry_2
Fe1 O1 1_555 1_555
Fe2 O2 1_555 1_555
O1 C13 1_555 1_555
O2 C13 1_555 1_555
O3 C20 1_555 1_555
O4 C20 1_555 1_555
O5 C27 1_555 1_555
O6 C27 1_555 1_555
O7 C36 1_555 1_555
O8 Fe1 1_555 1_555
O9 Fe1 1_555 1_555
C1 C2 1_555 1_555
C2 H1 1_555 1_555
C3 C2 1_555 1_555
C4 C3 1_555 1_555
H2 C4 1_555 1_555
C5 C4 1_555 1_555
C6 C1 1_555 1_555
H3 C6 1_555 1_555
C7 C1 1_555 1_555
C8 C7 1_555 1_555
H4 C8 1_555 1_555
C9 C8 1_555 1_555
H5 C9 1_555 1_555
C10 C9 1_555 1_555
C11 C10 1_555 1_555
H6 C11 1_555 1_555
C12 C7 1_555 1_555
H7 C12 1_555 1_555
C13 C10 1_555 1_555
C14 C3 1_555 1_555
C15 C14 1_555 1_555
H8 C15 1_555 1_555
C16 C15 1_555 1_555
H9 C16 1_555 1_555
C17 C16 1_555 1_555
C18 C17 1_555 1_555
H10 C18 1_555 1_555
C19 C14 1_555 1_555
H11 C19 1_555 1_555
C20 C17 1_555 1_555
C21 C5 1_555 1_555
C22 C21 1_555 1_555
H12 C22 1_555 1_555
C23 C22 1_555 1_555
H13 C23 1_555 1_555
C24 C23 1_555 1_555
C25 C24 1_555 1_555
H14 C25 1_555 1_555
C26 C21 1_555 1_555
H15 C26 1_555 1_555
C27 C24 1_555 1_555
C28 H16 1_555 1_555
C29 C28 1_555 1_555
C30 C29 1_555 1_555
C31 C30 1_555 1_555
H17 C31 1_555 1_555
C32 C31 1_555 1_555
H18 C32 1_555 1_555
C33 C32 1_555 1_555
C34 C33 1_555 1_555
H19 C34 1_555 1_555
C35 C30 1_555 1_555
H20 C35 1_555 1_555
C36 O8 1_555 1_555
O10 Fe2 1_555 1_555
H21 O10 1_555 1_555
H22 O10 1_555 1_555
O11 Fe1 1_555 1_555
C37 O11 1_555 1_555
H23 C37 1_555 1_555
N1 C37 1_555 1_555
C38 N1 1_555 1_555
H24 C38 1_555 1_555
H25 C38 1_555 1_555
H26 C38 1_555 1_555
C39 N1 1_555 1_555
H27 C39 1_555 1_555
H28 C39 1_555 1_555
H29 C39 1_555 1_555
Fe1J O1J 1_555 1_555
Fe1N O1N 1_555 1_555
Fe1K O3 1_555 1_555
Fe1M O5 1_555 1_555
Fe1A O8A 1_555 1_555
Fe1B O8B 1_555 1_555
Fe1E O5J 1_555 1_555
Fe1G O3N 1_555 1_555
Fe1I O9I 1_555 1_555
Fe2J O2J 1_555 1_555
Fe2N O2N 1_555 1_555
Fe2G O6 1_555 1_555
Fe2I O7 1_555 1_555
Fe2K O7B 1_555 1_555
Fe2Q O6J 1_555 1_555
Fe2A O9J 1_555 1_555
O1J C13J 1_555 1_555
O1N C13N 1_555 1_555
O2J C13J 1_555 1_555
O2N C13N 1_555 1_555
O3J Fe1 1_555 1_555
O3N C20N 1_555 1_555
O3B Fe1J 1_555 1_555
O3F Fe1N 1_555 1_555
O4J C20J 1_555 1_555
O4N C20N 1_555 1_555
O5J C27J 1_555 1_555
O5N Fe1 1_555 1_555
O5C Fe1J 1_555 1_555
O5A Fe1N 1_555 1_555
O6J C27J 1_555 1_555
O6N Fe2I 1_555 1_555
O6E Fe2 1_555 1_555
O6L Fe2J 1_555 1_555
O6P Fe2N 1_555 1_555
O7A Fe2J 1_555 1_555
O7B C36B 1_555 1_555
O7I Fe2 1_555 1_555
O7H Fe2N 1_555 1_555
O8A C36A 1_555 1_555
O8B C36B 1_555 1_555
O8J Fe1J 1_555 1_555
O8N Fe1N 1_555 1_555
O9I Fe2 1_555 1_555
O9J Fe1J 1_555 1_555
O9N Fe1N 1_555 1_555
O9A Fe1A 1_555 1_555
O9H Fe2N 1_555 1_555
C1J C2J 1_555 1_555
C1N C2N 1_555 1_555
C2J H1J 1_555 1_555
C2N H1N 1_555 1_555
C3J C2J 1_555 1_555
C3N C2N 1_555 1_555
C4J C3J 1_555 1_555
C4N C3N 1_555 1_555
H2J C4J 1_555 1_555
H2N C4N 1_555 1_555
C5J C4J 1_555 1_555
C5N C4N 1_555 1_555
C6J C1J 1_555 1_555
C6N C1N 1_555 1_555
H3J C6J 1_555 1_555
H3N C6N 1_555 1_555
C7J C1J 1_555 1_555
C7N C1N 1_555 1_555
C8J C7J 1_555 1_555
C8N C7N 1_555 1_555
H4J C8J 1_555 1_555
H4N C8N 1_555 1_555
C9J C8J 1_555 1_555
C9N C8N 1_555 1_555
H5J C9J 1_555 1_555
H5N C9N 1_555 1_555
C10J C9J 1_555 1_555
C10N C9N 1_555 1_555
C11J C10J 1_555 1_555
C11N C10N 1_555 1_555
H6J C11J 1_555 1_555
H6N C11N 1_555 1_555
C12J C7J 1_555 1_555
C12N C7N 1_555 1_555
H7J C12J 1_555 1_555
H7N C12N 1_555 1_555
C13J C10J 1_555 1_555
C13N C10N 1_555 1_555
C14J C3J 1_555 1_555
C14N C3N 1_555 1_555
C15J C14J 1_555 1_555
C15N C14N 1_555 1_555
H8J C15J 1_555 1_555
H8N C15N 1_555 1_555
C16J C15J 1_555 1_555
C16N C15N 1_555 1_555
H9J C16J 1_555 1_555
H9N C16N 1_555 1_555
C17J C16J 1_555 1_555
C17N C16N 1_555 1_555
C18J C17J 1_555 1_555
C18N C17N 1_555 1_555
H10J C18J 1_555 1_555
H10N C18N 1_555 1_555
C19J C14J 1_555 1_555
C19N C14N 1_555 1_555
H11J C19J 1_555 1_555
H11N C19N 1_555 1_555
C20J O3J 1_555 1_555
C20N C17N 1_555 1_555
C21J C5J 1_555 1_555
C21N C5N 1_555 1_555
C22J C21J 1_555 1_555
C22N C21N 1_555 1_555
H12J C22J 1_555 1_555
H12N C22N 1_555 1_555
C23J C22J 1_555 1_555
C23N C22N 1_555 1_555
H13J C23J 1_555 1_555
H13N C23N 1_555 1_555
C24J C23J 1_555 1_555
C24N C23N 1_555 1_555
C25J C24J 1_555 1_555
C25N C24N 1_555 1_555
H14J C25J 1_555 1_555
H14N C25N 1_555 1_555
C26J C21J 1_555 1_555
C26N C21N 1_555 1_555
H15J C26J 1_555 1_555
H15N C26N 1_555 1_555
C27J C24J 1_555 1_555
C27N O5N 1_555 1_555
C28B H16B 1_555 1_555
C28A C29 1_555 1_555
H16A C28A 1_555 1_555
C29B C28 1_555 1_555
C29A C28B 1_555 1_555
C30A C29A 1_555 1_555
C30B C29B 1_555 1_555
C31A C30A 1_555 1_555
C31B C30B 1_555 1_555
H17A C31A 1_555 1_555
H17B C31B 1_555 1_555
C32A C31A 1_555 1_555
C32B C31B 1_555 1_555
H18A C32A 1_555 1_555
H18B C32B 1_555 1_555
C33A C32A 1_555 1_555
C33B C32B 1_555 1_555
C34A C33A 1_555 1_555
C34B C33B 1_555 1_555
H19A C34A 1_555 1_555
H19B C34B 1_555 1_555
C35A C30A 1_555 1_555
C35B C30B 1_555 1_555
H20A C35A 1_555 1_555
H20B C35B 1_555 1_555
C36A O7A 1_555 1_555
C36B C33B 1_555 1_555
O10J Fe2J 1_555 1_555
O10N Fe2N 1_555 1_555
H21J O10J 1_555 1_555
H21N O10N 1_555 1_555
H22J O10J 1_555 1_555
H22N O10N 1_555 1_555
O11J Fe1J 1_555 1_555
O11N Fe1N 1_555 1_555
C37J O11J 1_555 1_555
C37N O11N 1_555 1_555
H23J C37J 1_555 1_555
H23N C37N 1_555 1_555
N1J C37J 1_555 1_555
N1N C37N 1_555 1_555
C38J N1J 1_555 1_555
C38N N1N 1_555 1_555
H24J C38J 1_555 1_555
H24N C38N 1_555 1_555
H25J C38J 1_555 1_555
H25N C38N 1_555 1_555
H26J C38J 1_555 1_555
H26N C38N 1_555 1_555
C39J N1J 1_555 1_555
C39N N1N 1_555 1_555
H27J C39J 1_555 1_555
H27N C39N 1_555 1_555
H28J C39J 1_555 1_555
H28N C39N 1_555 1_555
H29J C39J 1_555 1_555
H29N C39N 1_555 1_555
Fe2 O9 1_555 1_555
O9 Fe2I 1_555 1_555
C5 C6 1_555 1_555
C11 C12 1_555 1_555
C18 C19 1_555 1_555
C25 C26 1_555 1_555
C33 C36 1_555 1_555
C34 C35 1_555 1_555
Fe2J O9J 1_555 1_555
Fe2J O9A 1_555 1_555
Fe2N O9N 1_555 1_555
Fe2I O9I 1_555 1_555
Fe2A O9A 1_555 1_555
O6N C27N 1_555 1_555
C5J C6J 1_555 1_555
C5N C6N 1_555 1_555
C11J C12J 1_555 1_555
C11N C12N 1_555 1_555
C17J C20J 1_555 1_555
C18J C19J 1_555 1_555
C18N C19N 1_555 1_555
C24N C27N 1_555 1_555
C25J C26J 1_555 1_555
C25N C26N 1_555 1_555
C28B C29B 1_555 1_555
C28A C29A 1_555 1_555
C33A C36A 1_555 1_555
C34A C35A 1_555 1_555
C34B C35B 1_555 1_555

#END
