
#######################################################################
#
#                 Cambridge Crystallographic Data Centre
#                                CCDC 
#
#######################################################################
#
# If this CIF has been generated from an entry in the Cambridge 
# Structural Database, then it will include bibliographic, chemical, 
# crystal, experimental, refinement or atomic coordinate data resulting 
# from the CCDC's data processing and validation procedures.
#
#######################################################################

data_XOKQUL
_chemical_formula_moiety         
'(C50 H36 N2 O10 Zn2)n,4n(C3 H7 N1 O1),2n(H2 O1)'
_chemical_name_systematic        
"catena-[(\m-3,3',3'',3'''-pyrene-1,3,6,8-tetrayltetrabenzoato)-bis(N,N-dimethylformamide)-di-zinc N,N-dimethylformamide solvate dihydrate]"
_symmetry_cell_setting           monoclinic
_symmetry_space_group_name_H-M   'P 2/c'
_symmetry_Int_Tables_number      13
_space_group_name_Hall           '-P 2yc'
loop_
_symmetry_equiv_pos_site_id
_symmetry_equiv_pos_as_xyz
1 x,y,z
2 -x,y,1/2-z
3 -x,-y,-z
4 x,-y,1/2+z
_cell_length_a                   17.053(6)
_cell_length_b                   11.363(4)
_cell_length_c                   18.518(6)
_cell_angle_alpha                90
_cell_angle_beta                 116.226(4)
_cell_angle_gamma                90
_cell_volume                     3218.91
_exptl_crystal_colour            colorless
_cell_formula_units_Z            2
loop_
_atom_site_label
_atom_site_type_symbol
_atom_site_fract_x
_atom_site_fract_y
_atom_site_fract_z
C1 C 0.1399(6) 0.6238(9) 0.5638(6)
C2 C 0.2273(6) 0.6874(8) 0.6008(6)
C3 C 0.2884(7) 0.6594(9) 0.6779(6)
H1 H 0.2754 0.6030 0.7073
C4 C 0.3690(7) 0.7153(11) 0.7114(6)
H2 H 0.4097 0.6983 0.7638
C5 C 0.3881(7) 0.7975(10) 0.6651(6)
H3 H 0.4421 0.8349 0.6875
C6 C 0.3288(6) 0.8246(9) 0.5870(6)
C7 C 0.2467(6) 0.7714(9) 0.5558(6)
H4 H 0.2045 0.7920 0.5047
C8 C 0.2437(6) 1.1769(10) 0.4089(7)
C9 C 0.2269(7) 1.2058(12) 0.3307(7)
H5 H 0.2576 1.1678 0.3066
C10 C 0.1645(8) 1.2916(15) 0.2872(8)
H6 H 0.1563 1.3129 0.2359
C11 C 0.1153(8) 1.3444(13) 0.3210(9)
H7 H 0.0728 1.3998 0.2921
C12 C 0.1303(7) 1.3132(10) 0.3991(7)
C13 C 0.1933(7) 1.2282(10) 0.4425(7)
H8 H 0.2013 1.2062 0.4937
C14 C 0.0799(7) 1.3743(10) 0.4384(7)
C15 C 0.4279(7) 1.1922(9) 0.4316(7)
H9 H 0.3913 1.2569 0.4106
C16 C 0.3981(7) 1.0935(8) 0.4609(7)
C17 C 0.3124(7) 1.0888(9) 0.4558(7)
C18 C 0.2921(6) 0.9989(9) 0.4967(6)
H10 H 0.2370 0.9980 0.4954
C19 C 0.3509(7) 0.9116(8) 0.5389(7)
C20 C 0.4329(6) 0.9075(8) 0.5358(6)
C21 C 0.4567(6) 0.9998(8) 0.4988(6)
C22 C 0.4904(7) 0.8072(9) 0.5661(6)
H11 H 0.4718 0.7414 0.5842
C23 C 0.1226(12) 0.216(3) 0.8137(18)
H12 H 0.1696 0.1631 0.8437
H13 H 0.0862 0.1827 0.7620
H14 H 0.0885 0.2295 0.8426
C24 C 0.2208(16) 0.383(2) 0.8734(12)
H15 H 0.2047 0.3762 0.9167
H16 H 0.2229 0.4651 0.8612
H17 H 0.2772 0.3486 0.8890
C25 C 0.1314(11) 0.3710(13) 0.7309(8)
H18 H 0.1555 0.4428 0.7272
N1 N 0.1571(9) 0.3239(13) 0.8033(7)
O1 O 0.1319(5) 0.5375(7) 0.6032(5)
O2 O 0.0838(5) 0.6600(7) 0.4977(5)
O3 O 0.0881(5) 1.3369(8) 0.5039(5)
O4 O 0.0332(5) 1.4597(8) 0.3983(5)
O5 O 0.0789(5) 0.3267(7) 0.6698(5)
Zn1 Zn 0.03282(6) 0.41830(9) 0.56829(6)
C1B C 0.8601(6) 1.3762(9) 0.4362(6)
C2B C 0.7727(6) 1.3126(8) 0.3992(6)
C3B C 0.7116(7) 1.3406(9) 0.3221(6)
H1B H 0.7246 1.3970 0.2927
C4B C 0.6310(7) 1.2847(11) 0.2886(6)
H2B H 0.5903 1.3017 0.2362
C5B C 0.6119(7) 1.2025(10) 0.3349(6)
H3B H 0.5579 1.1651 0.3125
C6B C 0.6712(6) 1.1754(9) 0.4130(6)
C7B C 0.7533(6) 1.2286(9) 0.4442(6)
H4B H 0.7955 1.2080 0.4953
C8B C 0.7563(6) 0.8231(10) 0.5911(7)
C9B C 0.7731(7) 0.7942(12) 0.6693(7)
H5B H 0.7424 0.8322 0.6934
C10B C 0.8355(8) 0.7084(15) 0.7128(8)
H6B H 0.8437 0.6871 0.7641
C11B C 0.8847(8) 0.6556(13) 0.6790(9)
H7B H 0.9272 0.6002 0.7079
C12B C 0.8697(7) 0.6868(10) 0.6009(7)
C13B C 0.8067(7) 0.7718(10) 0.5575(7)
H8B H 0.7987 0.7938 0.5063
C14B C 0.9201(7) 0.6257(10) 0.5616(7)
C15B C 0.5721(7) 0.8078(9) 0.5684(7)
H9B H 0.6087 0.7431 0.5894
C16B C 0.6019(7) 0.9065(8) 0.5391(7)
C17B C 0.6876(7) 0.9112(9) 0.5442(7)
C18B C 0.7079(6) 1.0011(9) 0.5033(6)
H10B H 0.7630 1.0020 0.5046
C19B C 0.6491(7) 1.0884(8) 0.4611(7)
C20B C 0.5671(6) 1.0925(8) 0.4642(6)
C21B C 0.5433(6) 1.0002(8) 0.5012(6)
C22B C 0.5096(7) 1.1928(9) 0.4339(6)
H11B H 0.5282 1.2586 0.4158
O1B O 0.8681(5) 1.4625(7) 0.3968(5)
O2B O 0.9162(5) 1.3400(7) 0.5023(5)
O3B O 0.9119(5) 0.6631(8) 0.4961(5)
O4B O 0.9668(5) 0.5403(8) 0.6017(5)
C23B C -0.1226(12) 0.784(3) 0.1863(18)
H12B H -0.1696 0.8369 0.1563
H13B H -0.0862 0.8173 0.2380
H14B H -0.0885 0.7705 0.1574
C24B C -0.2208(16) 0.617(2) 0.1266(12)
H15B H -0.2047 0.6238 0.0833
H16B H -0.2229 0.5349 0.1388
H17B H -0.2772 0.6514 0.1110
C25B C -0.1314(11) 0.6290(13) 0.2691(8)
H18B H -0.1555 0.5572 0.2728
N1B N -0.1571(9) 0.6761(13) 0.1967(7)
O5B O -0.0789(5) 0.6733(7) 0.3302(5)
Zn1B Zn -0.03282(6) 0.58170(9) 0.43171(6)
O1B_2 O -0.1319(5) 0.4625(7) 0.3968(5)
O2B_2 O -0.0838(5) 0.3400(7) 0.5023(5)
O3_2 O 0.0881(5) 0.3369(8) 0.5039(5)
O3B_2 O -0.0881(5) 0.6631(8) 0.4961(5)
O4_2 O 0.0332(5) 0.4597(8) 0.3983(5)
O4B_2 O -0.0332(5) 0.5403(8) 0.6017(5)
Zn1_2 Zn 0.03282(6) 1.41830(9) 0.56829(6)
Zn1_3 Zn 1.03282(6) 0.41830(9) 0.56829(6)
Zn1_4 Zn 1.03282(6) 1.41830(9) 0.56829(6)
Zn1B_2 Zn -0.03282(6) 1.58170(9) 0.43171(6)
Zn1B_3 Zn 0.96718(6) 0.58170(9) 0.43171(6)
Zn1B_4 Zn 0.96718(6) 1.58170(9) 0.43171(6)
O6 O 0.0828(11) 0.0482(17) 0.9372(12)
N2 N -0.0631(11) 0.0187(16) 0.8881(11)
C26 C -0.1441(17) 0.066(3) 0.885(3)
H19 H -0.1885 0.0575 0.8302
H20 H -0.1377 0.1475 0.8994
H21 H -0.1604 0.0221 0.9201
C27 C -0.069(3) -0.093(2) 0.848(3)
H22 H -0.0576 -0.1562 0.8860
H23 H -0.0276 -0.0965 0.8260
H24 H -0.1271 -0.1004 0.8057
C28 C 0.0132(11) 0.0742(18) 0.9326(15)
H25 H 0.0111 0.1388 0.9626
O7 O 0.545(3) 0.505(4) 0.609(3)
N3 N 0.5730(17) 1.141(3) 0.6858(18)
C29 C 0.620(2) 1.187(3) 0.6604(19)
H26 H 0.6019 1.2547 0.6287
O8 O 0.695(3) 1.144(3) 0.677(3)
C30 C 0.592(2) 1.040(3) 0.739(2)
H27 H 0.5938 0.9704 0.7110
H28 H 0.5463 1.0329 0.7561
H29 H 0.6469 1.0514 0.7853
C31 C 0.483(2) 1.171(4) 0.667(3)
H30 H 0.4801 1.2544 0.6741
H31 H 0.4650 1.1300 0.7024
H32 H 0.4443 1.1508 0.6121
O9 O 0.360(4) 0.481(5) 0.551(3)
loop_
_geom_bond_atom_site_label_1
_geom_bond_atom_site_label_2
_geom_bond_site_symmetry_1
_geom_bond_site_symmetry_2
C1 C2 1_555 1_555
C2 C3 1_555 1_555
C3 H1 1_555 1_555
C4 C3 1_555 1_555
H2 C4 1_555 1_555
C5 C4 1_555 1_555
H3 C5 1_555 1_555
C6 C5 1_555 1_555
C7 C2 1_555 1_555
H4 C7 1_555 1_555
C8 C9 1_555 1_555
C9 H5 1_555 1_555
C10 C9 1_555 1_555
H6 C10 1_555 1_555
C11 C10 1_555 1_555
H7 C11 1_555 1_555
C12 C11 1_555 1_555
C13 C8 1_555 1_555
H8 C13 1_555 1_555
C14 C12 1_555 1_555
C15 H9 1_555 1_555
C16 C15 1_555 1_555
C17 C8 1_555 1_555
C18 C17 1_555 1_555
H10 C18 1_555 1_555
C19 C6 1_555 1_555
C20 C19 1_555 1_555
C21 C16 1_555 1_555
C22 C20 1_555 1_555
H11 C22 1_555 1_555
C23 H12 1_555 1_555
H13 C23 1_555 1_555
H14 C23 1_555 1_555
C24 H15 1_555 1_555
H16 C24 1_555 1_555
H17 C24 1_555 1_555
C25 H18 1_555 1_555
N1 C23 1_555 1_555
O1 C1 1_555 1_555
O2 C1 1_555 1_555
O3 C14 1_555 1_555
O4 C14 1_555 1_555
O5 C25 1_555 1_555
Zn1 O1 1_555 1_555
O6 C28 1_555 1_555
N2 C26 1_555 1_555
C26 H19 1_555 1_555
H20 C26 1_555 1_555
H21 C26 1_555 1_555
C27 N2 1_555 1_555
H22 C27 1_555 1_555
H23 C27 1_555 1_555
H24 C27 1_555 1_555
C28 N2 1_555 1_555
H25 C28 1_555 1_555
N3 C29 1_555 1_555
C29 H26 1_555 1_555
O8 C29 1_555 1_555
C30 N3 1_555 1_555
H27 C30 1_555 1_555
H28 C30 1_555 1_555
H29 C30 1_555 1_555
C31 N3 1_555 1_555
H30 C31 1_555 1_555
H31 C31 1_555 1_555
H32 C31 1_555 1_555
C1B C2B 1_555 1_555
C2B C3B 1_555 1_555
C3B H1B 1_555 1_555
C4B C3B 1_555 1_555
H2B C4B 1_555 1_555
C5B C4B 1_555 1_555
H3B C5B 1_555 1_555
C6B C5B 1_555 1_555
C7B C2B 1_555 1_555
H4B C7B 1_555 1_555
C8B C9B 1_555 1_555
C9B H5B 1_555 1_555
C10B C9B 1_555 1_555
H6B C10B 1_555 1_555
C11B C10B 1_555 1_555
H7B C11B 1_555 1_555
C12B C11B 1_555 1_555
C13B C8B 1_555 1_555
H8B C13B 1_555 1_555
C14B C12B 1_555 1_555
C15B C22 1_555 1_555
H9B C15B 1_555 1_555
C16B C15B 1_555 1_555
C17B C8B 1_555 1_555
C18B C17B 1_555 1_555
H10B C18B 1_555 1_555
C19B C6B 1_555 1_555
C20B C19B 1_555 1_555
C21B C21 1_555 1_555
C22B C15 1_555 1_555
H11B C22B 1_555 1_555
O1B C1B 1_555 1_555
O2B C1B 1_555 1_555
O3B C14B 1_555 1_555
O4B C14B 1_555 1_555
C23B H12B 1_555 1_555
H13B C23B 1_555 1_555
H14B C23B 1_555 1_555
C24B H15B 1_555 1_555
H16B C24B 1_555 1_555
H17B C24B 1_555 1_555
C25B H18B 1_555 1_555
N1B C23B 1_555 1_555
O5B C25B 1_555 1_555
Zn1B O2 1_555 1_555
O1B_2 Zn1B 1_555 1_555
O2B_2 Zn1 1_555 1_555
O3_2 Zn1 1_555 1_555
O3B_2 Zn1B 1_555 1_555
O4_2 Zn1B 1_555 1_555
O4B_2 Zn1 1_555 1_555
Zn1_2 O3 1_555 1_555
Zn1_3 O4B 1_555 1_555
Zn1_4 O2B 1_555 1_555
Zn1B_2 O4 1_555 1_555
Zn1B_3 O3B 1_555 1_555
Zn1B_4 O1B 1_555 1_555
C6 C7 1_555 1_555
C12 C13 1_555 1_555
C16 C17 1_555 1_555
C18 C19 1_555 1_555
C20 C21 1_555 1_555
C24 N1 1_555 1_555
C25 N1 1_555 1_555
O5 Zn1 1_555 1_555
C6B C7B 1_555 1_555
C12B C13B 1_555 1_555
C16B C17B 1_555 1_555
C16B C21B 1_555 1_555
C18B C19B 1_555 1_555
C20B C21B 1_555 1_555
C20B C22B 1_555 1_555
C24B N1B 1_555 1_555
C25B N1B 1_555 1_555
O5B Zn1B 1_555 1_555

#END
