
#######################################################################
#
#                 Cambridge Crystallographic Data Centre
#                                CCDC 
#
#######################################################################
#
# If this CIF has been generated from an entry in the Cambridge 
# Structural Database, then it will include bibliographic, chemical, 
# crystal, experimental, refinement or atomic coordinate data resulting 
# from the CCDC's data processing and validation procedures.
#
#######################################################################

data_FUDQEB
_chemical_formula_moiety         '(C12 H12 Cu1 F6 N6 Si1)n,2n(H2 O1)'
_chemical_name_systematic        
'catena-((\m~2~-hexafluorosilicato)-(\m~2~-pyrazine)-dipyrazine-copper(ii) dihydrate)'
_symmetry_cell_setting           orthorhombic
_symmetry_space_group_name_H-M   'C m 2 m'
_symmetry_Int_Tables_number      38
_space_group_name_Hall           'C -2 -2'
loop_
_symmetry_equiv_pos_site_id
_symmetry_equiv_pos_as_xyz
1 x,y,z
2 -x,y,-z
3 -x,y,z
4 x,y,-z
5 1/2+x,1/2+y,z
6 1/2-x,1/2+y,-z
7 1/2-x,1/2+y,z
8 1/2+x,1/2+y,-z
_cell_length_a                   6.8879(14)
_cell_length_b                   16.140(3)
_cell_length_c                   8.2562(17)
_cell_angle_alpha                90
_cell_angle_beta                 90
_cell_angle_gamma                90
_cell_volume                     917.848
_exptl_crystal_colour            violet
_exptl_crystal_description       plate
_cell_formula_units_Z            2
loop_
_atom_site_label
_atom_site_type_symbol
_atom_site_fract_x
_atom_site_fract_y
_atom_site_fract_z
F2 F 1.2454(13) 0.2373(8) 0.0000
Cu1 Cu 1.0000 0.22440(7) 0.5000
N1 N 1.0000 0.3489(8) 0.5000
C1 C 1.0000 0.3967(8) 0.3600(10)
H1 H 1.0000 0.3697 0.2605
F4 F 1.0000 0.2264(6) 0.2091(3)
N2 N 0.7027(5) 0.2267(7) 0.5000
N3 N 1.0000 0.0971(7) 0.5000
N4 N 1.0000 0.5233(7) 0.5000
C2 C 1.0000 0.4836(8) 0.3611(13)
H2 H 1.0000 0.5129 0.2641
Si1 Si 1.0000 0.2235(4) 0.0000
C3 C 0.6011(4) 0.2253(8) 0.3626(4)
H3 H 0.6669 0.2243 0.2643
N5 N 1.0000 -0.0763(8) 0.5000
C4 C 1.0000 -0.0286(7) 0.3670(14)
H4 H 1.0000 -0.0556 0.2675
C5 C 1.0000 0.0570(6) 0.3645(12)
H5 H 1.0000 0.0854 0.2665
F5 F 1.143(2) 0.1393(8) 0.0000
F2A F 0.7546(13) 0.2373(8) 0.0000
Cu1_2 Cu 1.0000 0.22440(7) -0.5000
Cu1_3 Cu 0.0000 0.22440(7) 0.5000
C1A C 1.0000 0.3967(8) 0.6400(10)
H1A H 1.0000 0.3697 0.7395
F4A F 1.0000 0.2264(6) -0.2091(3)
F4A_2 F 1.0000 0.2264(6) 0.7909(3)
N2A N 0.2973(5) 0.2267(7) 0.5000
N2A_2 N 1.2973(5) 0.2267(7) 0.5000
C2A C 1.0000 0.4836(8) 0.6389(13)
H2A H 1.0000 0.5129 0.7359
C3B C 0.3989(4) 0.2253(8) 0.3626(4)
C3A C 0.3989(4) 0.2253(8) 0.6374(4)
C3C C 0.6011(4) 0.2253(8) 0.6374(4)
H3C H 0.6669 0.2243 0.7357
H3A H 0.3331 0.2243 0.7357
H3B H 0.3331 0.2243 0.2643
C4A C 1.0000 -0.0286(7) 0.6330(14)
H4A H 1.0000 -0.0556 0.7325
C5A C 1.0000 0.0570(6) 0.6355(12)
H5A H 1.0000 0.0854 0.7335
F5A F 0.857(2) 0.1393(8) 0.0000
O1 O 0.5000 0.032(5) 0.0000
O2 O 0.5000 0.3681(7) 0.0000
F1? F 1.058(3) 0.1240(11) 0.0000
F3? F 1.204(2) 0.2803(10) 0.0000
F6? F 1.058(2) 0.3273(8) 0.0000
F7? F 1.230(2) 0.1888(8) 0.0000
loop_
_geom_bond_atom_site_label_1
_geom_bond_atom_site_label_2
_geom_bond_site_symmetry_1
_geom_bond_site_symmetry_2
F2 Si1 1_555 1_555
Cu1 N1 1_555 1_555
N1 C1 1_555 1_555
C1 H1 1_555 1_555
F4 Cu1 1_555 1_555
N2 Cu1 1_555 1_555
N3 Cu1 1_555 1_555
N4 C2 1_555 1_555
C2 C1 1_555 1_555
H2 C2 1_555 1_555
Si1 F4 1_555 1_555
C3 N2 1_555 1_555
H3 C3 1_555 1_555
N5 C4 1_555 1_555
C4 H4 1_555 1_555
C5 N3 1_555 1_555
H5 C5 1_555 1_555
F5 Si1 1_555 1_555
F2A Si1 1_555 1_555
Cu1_2 F4A 1_555 1_555
Cu1_3 N2A 1_555 1_555
C1A N1 1_555 1_555
H1A C1A 1_555 1_555
F4A Si1 1_555 1_555
F4A_2 Cu1 1_555 1_555
N2A C3B 1_555 1_555
N2A_2 Cu1 1_555 1_555
C2A N4 1_555 1_555
H2A C2A 1_555 1_555
C3B C3 1_555 1_555
C3A N2A 1_555 1_555
C3C N2 1_555 1_555
H3C C3C 1_555 1_555
H3A C3A 1_555 1_555
H3B C3B 1_555 1_555
C4A N5 1_555 1_555
H4A C4A 1_555 1_555
C5A N3 1_555 1_555
H5A C5A 1_555 1_555
F5A Si1 1_555 1_555
C4 C5 1_555 1_555
C1A C2A 1_555 1_555
C3A C3C 1_555 1_555
C4A C5A 1_555 1_555

#END
