
#######################################################################
#
#                 Cambridge Crystallographic Data Centre
#                                CCDC 
#
#######################################################################
#
# If this CIF has been generated from an entry in the Cambridge 
# Structural Database, then it will include bibliographic, chemical, 
# crystal, experimental, refinement or atomic coordinate data resulting 
# from the CCDC's data processing and validation procedures.
#
#######################################################################

data_QIVBUT
_chemical_formula_moiety         '(C30 H24 Cd1 Fe1 N4 O6 S2)n,4n(C1 H4 O1)'
_chemical_name_systematic        
"catena-((\m~2~-Ferrocene-1,1'-disulfonato)-bis(\m~2~-4,4'-bipyridyl)-cadmium(ii) methanol clathrate)"
_symmetry_cell_setting           orthorhombic
_symmetry_space_group_name_H-M   'P 21 21 2'
_symmetry_Int_Tables_number      18
_space_group_name_Hall           'P 2 2ab'
loop_
_symmetry_equiv_pos_site_id
_symmetry_equiv_pos_as_xyz
1 x,y,z
2 -x,-y,z
3 1/2-x,1/2+y,-z
4 1/2+x,1/2-y,-z
_cell_length_a                   11.831(3)
_cell_length_b                   13.490(4)
_cell_length_c                   11.700(3)
_cell_angle_alpha                90
_cell_angle_beta                 90
_cell_angle_gamma                90
_cell_volume                     1867.32
_exptl_crystal_colour            yellow
_cell_formula_units_Z            2
_exptl_crystal_preparation       
'nanoporous; special adsorption properties with Cu and Pb salts'
loop_
_atom_site_label
_atom_site_type_symbol
_atom_site_fract_x
_atom_site_fract_y
_atom_site_fract_z
Cd1 Cd 0.0000 0.0000 -0.28255(5)
Fe1 Fe 0.0000 0.5000 -0.21276(15)
S1 S 0.0370(2) 0.26011(13) -0.2784(2)
O1 O -0.0335(6) 0.1727(4) -0.2837(6)
O2 O 0.0844(7) 0.2845(5) -0.3895(7)
O3 O 0.1219(9) 0.2504(5) -0.1881(7)
N1 N 0.2007(5) 0.0030(6) -0.2861(5)
N2 N 0.0000 0.0000 0.5190(7)
N3 N 0.0000 0.0000 -0.0837(6)
C3 C -0.0493(8) 0.3593(6) -0.2393(8)
C4 C -0.1065(10) 0.4225(6) -0.3149(10)
H7 H -0.1049 0.4197 -0.3985
C5 C -0.1725(8) 0.4872(8) -0.2466(12)
H8 H -0.2208 0.5405 -0.2759
C6 C -0.1465(14) 0.4712(7) -0.1301(13)
H9 H -0.1772 0.5077 -0.0647
C7 C -0.0731(11) 0.3869(6) -0.1256(9)
H10 H -0.0437 0.3551 -0.0564
C8 C 0.2633(8) 0.0463(8) -0.2033(8)
H11 H 0.2258 0.0790 -0.1445
C9 C 0.3769(8) 0.0445(8) -0.2016(9)
H12 H 0.4157 0.0744 -0.1417
C10 C 0.4362(6) -0.0014(9) -0.2882(7)
C11 C 0.3759(8) -0.0433(8) -0.3748(9)
H13 H 0.4126 -0.0728 -0.4364
C12 C 0.2571(9) -0.0411(8) -0.3694(9)
H14 H 0.2163 -0.0721 -0.4272
C13 C 0.0530(9) 0.0728(7) 0.4609(8)
H15 H 0.0904 0.1226 0.5008
C14 C -0.0525(10) -0.0742(7) 0.3409(7)
H16 H 0.0879 0.1255 0.3016
C15 C 0.0000 0.0000 0.2822(8)
C16 C 0.0000 0.0000 0.1544(8)
C17 C 0.0464(12) -0.0784(8) 0.0928(7)
H17 H 0.0792 -0.1317 0.1308
C18 C 0.0433(10) -0.0762(7) -0.0267(7)
H18 H 0.0723 -0.1297 -0.0675
Cd1_2 Cd 0.0000 1.0000 -0.28255(5)
Cd1_3 Cd 1.0000 0.0000 -0.28255(5)
Cd1_4 Cd 0.0000 0.0000 0.71745(5)
S1A S -0.0370(2) 0.73989(13) -0.2784(2)
O1A O 0.0335(6) -0.1727(4) -0.2837(6)
O1A_2 O 0.0335(6) 0.8273(4) -0.2837(6)
O2A O -0.0844(7) 0.7155(5) -0.3895(7)
O3A O -0.1219(9) 0.7496(5) -0.1881(7)
N1A N -0.2007(5) -0.0030(6) -0.2861(5)
N1A_2 N 0.7993(5) -0.0030(6) -0.2861(5)
N2_2 N 0.0000 0.0000 -0.4810(7)
C3A C 0.0493(8) 0.6407(6) -0.2393(8)
C4A C 0.1065(10) 0.5775(6) -0.3149(10)
H7A H 0.1049 0.5803 -0.3985
C5A C 0.1725(8) 0.5128(8) -0.2466(12)
H8A H 0.2208 0.4595 -0.2759
C6A C 0.1465(14) 0.5288(7) -0.1301(13)
H9A H 0.1772 0.4923 -0.0647
C7A C 0.0731(11) 0.6131(6) -0.1256(9)
H10A H 0.0437 0.6449 -0.0564
C8A C 0.7367(8) -0.0463(8) -0.2033(8)
H11A H 0.7742 -0.0790 -0.1445
C9A C 0.6231(8) -0.0445(8) -0.2016(9)
H12A H 0.5843 -0.0744 -0.1417
C10A C 0.5638(6) 0.0014(9) -0.2882(7)
C11A C 0.6241(8) 0.0433(8) -0.3748(9)
H13A H 0.5874 0.0728 -0.4364
C12A C 0.7429(9) 0.0411(8) -0.3694(9)
H14A H 0.7837 0.0721 -0.4272
C13A C -0.0530(9) -0.0728(7) 0.4609(8)
H15A H -0.0904 -0.1226 0.5008
C14A C 0.0525(10) 0.0742(7) 0.3409(7)
H16A H -0.0879 -0.1255 0.3016
C17A C -0.0464(12) 0.0784(8) 0.0928(7)
H17A H -0.0792 0.1317 0.1308
C18A C -0.0433(10) 0.0762(7) -0.0267(7)
H18A H -0.0723 0.1297 -0.0675
C1 C 0.357(2) 0.2379(14) -0.414(2)
H1 H 0.3278 0.2574 -0.4869
H2 H 0.3261 0.1746 -0.3928
H3 H 0.4378 0.2333 -0.4176
O4 O 0.331(2) 0.297(3) -0.345(5)
H19 H 0.3811 0.3007 -0.2962
C2 C 0.1865(17) 0.2711(13) -0.8923(19)
H4 H 0.2149 0.3118 -0.8314
H5 H 0.2164 0.2053 -0.8849
H6 H 0.1055 0.2688 -0.8886
O5 O 0.216(4) 0.306(3) -0.985(2)
H20 H 0.1857 0.2753 -1.0366
loop_
_geom_bond_atom_site_label_1
_geom_bond_atom_site_label_2
_geom_bond_site_symmetry_1
_geom_bond_site_symmetry_2
Cd1 O1 1_555 1_555
Fe1 C3 1_555 1_555
S1 O1 1_555 1_555
O2 S1 1_555 1_555
O3 S1 1_555 1_555
C1 H1 1_555 1_555
H2 C1 1_555 1_555
H3 C1 1_555 1_555
C2 H4 1_555 1_555
H5 C2 1_555 1_555
H6 C2 1_555 1_555
N1 Cd1 1_555 1_555
N2 C13 1_555 1_555
N3 Cd1 1_555 1_555
C3 S1 1_555 1_555
C4 Fe1 1_555 1_555
H7 C4 1_555 1_555
C5 Fe1 1_555 1_555
H8 C5 1_555 1_555
C6 Fe1 1_555 1_555
H9 C6 1_555 1_555
C7 Fe1 1_555 1_555
H10 C7 1_555 1_555
C8 N1 1_555 1_555
H11 C8 1_555 1_555
C9 C8 1_555 1_555
H12 C9 1_555 1_555
C10 C9 1_555 1_555
C11 C10 1_555 1_555
H13 C11 1_555 1_555
C12 N1 1_555 1_555
H14 C12 1_555 1_555
C13 H15 1_555 1_555
C14 C15 1_555 1_555
H16 C14A 1_555 1_555
C15 C16 1_555 1_555
C16 C17 1_555 1_555
C17 H17 1_555 1_555
C18 N3 1_555 1_555
H18 C18 1_555 1_555
O4 C1 1_555 1_555
H19 O4 1_555 1_555
O5 C2 1_555 1_555
H20 O5 1_555 1_555
Cd1_2 O1A_2 1_555 1_555
Cd1_3 N1A_2 1_555 1_555
Cd1_4 N2 1_555 1_555
S1A O1A_2 1_555 1_555
O1A Cd1 1_555 1_555
O2A S1A 1_555 1_555
O3A S1A 1_555 1_555
N1A Cd1 1_555 1_555
N1A_2 C8A 1_555 1_555
N2_2 Cd1 1_555 1_555
C3A Fe1 1_555 1_555
C4A Fe1 1_555 1_555
H7A C4A 1_555 1_555
C5A Fe1 1_555 1_555
H8A C5A 1_555 1_555
C6A Fe1 1_555 1_555
H9A C6A 1_555 1_555
C7A Fe1 1_555 1_555
H10A C7A 1_555 1_555
C8A H11A 1_555 1_555
C9A C8A 1_555 1_555
H12A C9A 1_555 1_555
C10A C10 1_555 1_555
C11A C10A 1_555 1_555
H13A C11A 1_555 1_555
C12A N1A_2 1_555 1_555
H14A C12A 1_555 1_555
C13A N2 1_555 1_555
H15A C13A 1_555 1_555
C14A C13 1_555 1_555
H16A C14 1_555 1_555
C17A C16 1_555 1_555
H17A C17A 1_555 1_555
C18A N3 1_555 1_555
H18A C18A 1_555 1_555
C3 C4 1_555 1_555
C3 C7 1_555 1_555
C4 C5 1_555 1_555
C5 C6 1_555 1_555
C6 C7 1_555 1_555
C11 C12 1_555 1_555
C14 C13A 1_555 1_555
C15 C14A 1_555 1_555
C17 C18 1_555 1_555
S1A C3A 1_555 1_555
C3A C4A 1_555 1_555
C3A C7A 1_555 1_555
C4A C5A 1_555 1_555
C5A C6A 1_555 1_555
C6A C7A 1_555 1_555
C9A C10A 1_555 1_555
C11A C12A 1_555 1_555
C17A C18A 1_555 1_555

#END
