
#######################################################################
#
#                 Cambridge Crystallographic Data Centre
#                                CCDC 
#
#######################################################################
#
# If this CIF has been generated from an entry in the Cambridge 
# Structural Database, then it will include bibliographic, chemical, 
# crystal, experimental, refinement or atomic coordinate data resulting 
# from the CCDC's data processing and validation procedures.
#
#######################################################################

data_NEHZUY
_chemical_name_common            'activated COK-18'
_chemical_formula_moiety         '(C18 H10 Cu5 O16)n'
_chemical_name_systematic        
catena-[bis(\m-benzene-1,3,5-tricarboxylato)-tetrakis(\m-hydroxo)-penta-copper(ii)]
_symmetry_cell_setting           orthorhombic
_symmetry_space_group_name_H-M   'I m m m'
_symmetry_Int_Tables_number      71
_space_group_name_Hall           '-I 2 2'
loop_
_symmetry_equiv_pos_site_id
_symmetry_equiv_pos_as_xyz
1 x,y,z
2 -x,-y,z
3 x,-y,-z
4 -x,y,-z
5 1/2+x,1/2+y,1/2+z
6 1/2-x,1/2-y,1/2+z
7 1/2+x,1/2-y,1/2-z
8 1/2-x,1/2+y,1/2-z
9 -x,-y,-z
10 x,y,-z
11 -x,y,z
12 x,-y,z
13 1/2-x,1/2-y,1/2-z
14 1/2+x,1/2+y,1/2-z
15 1/2-x,1/2+y,1/2+z
16 1/2+x,1/2-y,1/2+z
_cell_length_a                   18.5853(24)
_cell_length_b                   18.5547(8)
_cell_length_c                   26.382(4)
_cell_angle_alpha                90
_cell_angle_beta                 90
_cell_angle_gamma                90
_cell_volume                     9097.69
_cell_formula_units_Z            4
_exptl_crystal_preparation       
'The as-made compound was activated by heating to 170 deg.C under vacuum for 2h prior to data collection.'
loop_
_atom_site_label
_atom_site_type_symbol
_atom_site_fract_x
_atom_site_fract_y
_atom_site_fract_z
_atom_site_U_iso_or_equiv
_atom_site_thermal_displace_type
Cu1 Cu 0.2841(5) 0.78774(32) 0.19192(29) 0.0119 Uiso
Cu2 Cu 0.0677(9) 0.500 0.000 0.0361 Uiso
C1 C 0.063837 0.66080(30) 0.14505(25) 0.0276 Uiso
C2 C 0.000 0.6370(4) 0.12522(28) 0.0263 Uiso
C3 C 0.063837 0.70847(29) 0.18471(25) 0.0276 Uiso
C4 C 0.000 0.7323(4) 0.20454(28) 0.0263 Uiso
C5 C 0.000 0.5848(6) 0.0818(4) 0.0307 Uiso
O1 O 0.05777 0.5632(7) 0.0639(4) 0.0354 Uiso
C6 C 0.133735 0.7346(4) 0.20642(28) 0.0420 Uiso
O2 O 0.1567(4) 0.7087(7) 0.2466(4) 0.0920 Uiso
O3 O 0.1685(4) 0.7820(6) 0.1842(5) 0.0920 Uiso
O4 O 0.2769(5) 0.69613(34) 0.2418(5) 0.0580 Uiso
C1J C -0.063837 0.66080(30) 0.14505(25) 0.0276 Uiso
C3J C -0.063837 0.70847(29) 0.18471(25) 0.0276 Uiso
O1J O -0.05777 0.5632(7) 0.0639(4) 0.0354 Uiso
C6J C -0.133735 0.7346(4) 0.20642(28) 0.0420 Uiso
O2J O -0.1567(4) 0.7087(7) 0.2466(4) 0.0920 Uiso
O3J O -0.1685(4) 0.7820(6) 0.1842(5) 0.0920 Uiso
Cu1J Cu -0.2841(5) 0.78774(32) 0.19192(29) 0.0119 Uiso
O4J O -0.2769(5) 0.69613(34) 0.2418(5) 0.0580 Uiso
Cu1K Cu 0.2841(5) 0.21226(32) 0.19192(29) 0.0119 Uiso
C1K C 0.063837 0.33920(30) 0.14505(25) 0.0276 Uiso
C2K C 0.000 0.3630(4) 0.12522(28) 0.0263 Uiso
C3K C 0.063837 0.29153(29) 0.18471(25) 0.0276 Uiso
C4K C 0.000 0.2677(4) 0.20454(28) 0.0263 Uiso
C5K C 0.000 0.4152(6) 0.0818(4) 0.0307 Uiso
O1K O 0.05777 0.4368(7) 0.0639(4) 0.0354 Uiso
C6K C 0.133735 0.2654(4) 0.20642(28) 0.0420 Uiso
O2K O 0.1567(4) 0.2913(7) 0.2466(4) 0.0920 Uiso
O3K O 0.1685(4) 0.2180(6) 0.1842(5) 0.0920 Uiso
O4K O 0.2769(5) 0.30387(34) 0.2418(5) 0.0580 Uiso
C1A C -0.063837 0.33920(30) 0.14505(25) 0.0276 Uiso
C3A C -0.063837 0.29153(29) 0.18471(25) 0.0276 Uiso
O1A O -0.05777 0.4368(7) 0.0639(4) 0.0354 Uiso
C6A C -0.133735 0.2654(4) 0.20642(28) 0.0420 Uiso
O2A O -0.1567(4) 0.2913(7) 0.2466(4) 0.0920 Uiso
O3A O -0.1685(4) 0.2180(6) 0.1842(5) 0.0920 Uiso
Cu1A Cu -0.2841(5) 0.21226(32) 0.19192(29) 0.0119 Uiso
O4A O -0.2769(5) 0.30387(34) 0.2418(5) 0.0580 Uiso
Cu1L Cu 0.2159(5) 0.71226(32) 0.30808(29) 0.0119 Uiso
Cu1F Cu -0.2159(5) 0.71226(32) 0.30808(29) 0.0119 Uiso
Cu1G Cu 0.2159(5) 0.28774(32) 0.30808(29) 0.0119 Uiso
Cu1M Cu -0.2159(5) 0.28774(32) 0.30808(29) 0.0119 Uiso
Cu2J Cu -0.0677(9) 0.500 0.000 0.0361 Uiso
O1B O 0.05777 0.4368(7) -0.0639(4) 0.0354 Uiso
O1I O 0.05777 0.5632(7) -0.0639(4) 0.0354 Uiso
O2L O 0.3433(4) 0.7913(7) 0.2534(4) 0.0920 Uiso
O2F O -0.3433(4) 0.7913(7) 0.2534(4) 0.0920 Uiso
O2G O 0.3433(4) 0.2087(7) 0.2534(4) 0.0920 Uiso
O2M O -0.3433(4) 0.2087(7) 0.2534(4) 0.0920 Uiso
O4L O 0.2231(5) 0.80387(34) 0.2582(5) 0.0580 Uiso
O4F O -0.2231(5) 0.80387(34) 0.2582(5) 0.0580 Uiso
O4G O 0.2231(5) 0.19613(34) 0.2582(5) 0.0580 Uiso
O4M O -0.2231(5) 0.19613(34) 0.2582(5) 0.0580 Uiso
loop_
_geom_bond_atom_site_label_1
_geom_bond_atom_site_label_2
_geom_bond_site_symmetry_1
_geom_bond_site_symmetry_2
Cu1 O3 1_555 1_555
Cu2 O1 1_555 1_555
C1 C2 1_555 1_555
C2 C5 1_555 1_555
C3 C1 1_555 1_555
C4 C3 1_555 1_555
C5 O1 1_555 1_555
C6 C3 1_555 1_555
O2 C6 1_555 1_555
O3 C6 1_555 1_555
O4 Cu1 1_555 1_555
C1J C2 1_555 1_555
C3J C4 1_555 1_555
O1J C5 1_555 1_555
C6J C3J 1_555 1_555
O2J C6J 1_555 1_555
O3J C6J 1_555 1_555
Cu1J O3J 1_555 1_555
O4J Cu1J 1_555 1_555
Cu1K O3K 1_555 1_555
C1K C2K 1_555 1_555
C2K C5K 1_555 1_555
C3K C1K 1_555 1_555
C4K C3K 1_555 1_555
C5K O1K 1_555 1_555
O1K Cu2 1_555 1_555
C6K C3K 1_555 1_555
O2K C6K 1_555 1_555
O3K C6K 1_555 1_555
O4K Cu1K 1_555 1_555
C1A C2K 1_555 1_555
C3A C4K 1_555 1_555
O1A C5K 1_555 1_555
C6A C3A 1_555 1_555
O2A C6A 1_555 1_555
O3A C6A 1_555 1_555
Cu1A O3A 1_555 1_555
O4A Cu1A 1_555 1_555
Cu1L O2 1_555 1_555
Cu1F O2J 1_555 1_555
Cu1G O2K 1_555 1_555
Cu1M O2A 1_555 1_555
Cu2J O1J 1_555 1_555
O1B Cu2 1_555 1_555
O1I Cu2 1_555 1_555
O2L Cu1 1_555 1_555
O2F Cu1J 1_555 1_555
O2G Cu1K 1_555 1_555
O2M Cu1A 1_555 1_555
O4L Cu1 1_555 1_555
O4F Cu1J 1_555 1_555
O4G Cu1K 1_555 1_555
O4M Cu1A 1_555 1_555
O4 Cu1L 1_555 1_555
C1J C3J 1_555 1_555
O4J Cu1F 1_555 1_555
O4K Cu1G 1_555 1_555
C1A C3A 1_555 1_555
O1A Cu2J 1_555 1_555
O4A Cu1M 1_555 1_555
Cu1L O4L 1_555 1_555
Cu1F O4F 1_555 1_555
Cu1G O4G 1_555 1_555
Cu1M O4M 1_555 1_555

#END
