
#######################################################################
#
#                 Cambridge Crystallographic Data Centre
#                                CCDC 
#
#######################################################################
#
# If this CIF has been generated from an entry in the Cambridge 
# Structural Database, then it will include bibliographic, chemical, 
# crystal, experimental, refinement or atomic coordinate data resulting 
# from the CCDC's data processing and validation procedures.
#
#######################################################################

data_KOBPOH
_chemical_formula_moiety         '(C12 H14 Ce1 N3 O10)n'
_chemical_name_systematic        
catena-((\m~6~-tris(2-carboxyethyl)isocyanurate)-aqua-cerium(iii))
_symmetry_cell_setting           monoclinic
_symmetry_space_group_name_H-M   'P 21/c'
_symmetry_Int_Tables_number      14
_space_group_name_Hall           '-P 2ybc'
loop_
_symmetry_equiv_pos_site_id
_symmetry_equiv_pos_as_xyz
1 x,y,z
2 -x,1/2+y,1/2-z
3 -x,-y,-z
4 x,1/2-y,1/2+z
_cell_length_a                   10.922(4)
_cell_length_b                   19.838(8)
_cell_length_c                   7.836(4)
_cell_angle_alpha                90
_cell_angle_beta                 99.99(2)
_cell_angle_gamma                90
_cell_volume                     1672.09
_exptl_crystal_colour            colorless
_exptl_crystal_description       'rectangular parallelepiped'
_cell_formula_units_Z            4
loop_
_atom_site_label
_atom_site_type_symbol
_atom_site_fract_x
_atom_site_fract_y
_atom_site_fract_z
Ce1 Ce 0.429728(13) 0.219582(6) 0.300578(17)
O1 O 0.9152(2) 0.03870(12) -0.6498(3)
O2 O 0.8595(2) 0.22255(10) -0.3355(4)
O3 O 0.6668(2) 0.02721(12) -0.2435(3)
O4 O 0.64571(19) 0.16899(11) 0.2860(2)
O5 O 0.55860(18) 0.22226(9) 0.0515(3)
O6 O 0.6089(2) -0.15093(10) -0.7753(2)
O7 O 0.54803(19) -0.13425(10) -0.5233(2)
O8 O 1.29177(17) 0.25396(10) -0.4752(2)
O9 O 1.21015(18) 0.18399(11) -0.6788(2)
O10 O 0.3924(3) 0.11032(12) 0.1239(3)
N1 N 0.7704(2) 0.12420(12) -0.2719(3)
N2 N 0.7939(2) 0.03070(11) -0.4438(3)
N3 N 0.9080(2) 0.12859(11) -0.4706(3)
C1 C 0.7393(3) 0.05838(14) -0.3145(4)
C2 C 0.8753(2) 0.06438(13) -0.5308(4)
C3 C 0.8462(3) 0.16252(14) -0.3586(4)
C4 C 0.6971(3) 0.16068(16) -0.1601(4)
H1 H 0.6094 0.1527 -0.2036
H2 H 0.7120 0.2084 -0.1709
C5 C 0.7236(3) 0.14258(17) 0.0282(4)
H3 H 0.8097 0.1531 0.0756
H4 H 0.7119 0.0946 0.0410
C6 C 0.6392(2) 0.18028(13) 0.1285(3)
C7 C 0.7607(3) -0.03857(13) -0.4964(4)
H5 H 0.7457 -0.0638 -0.3955
H6 H 0.8302 -0.0594 -0.5387
C8 C 0.6456(3) -0.04235(14) -0.6374(4)
H7 H 0.5819 -0.0122 -0.6100
H8 H 0.6664 -0.0290 -0.7486
C9 C 0.5980(2) -0.11425(13) -0.6474(3)
C10 C 0.9869(3) 0.16908(14) -0.5656(3)
H9 H 0.9359 0.2033 -0.6318
H10 H 1.0193 0.1403 -0.6478
C11 C 1.0952(3) 0.20288(16) -0.4499(4)
H11 H 1.0678 0.2457 -0.4106
H12 H 1.1219 0.1751 -0.3480
C12 C 1.2040(2) 0.21447(12) -0.5416(3)
H13 H 0.378(4) 0.116(2) 0.020(6)
H14 H 0.378(5) 0.072(3) 0.154(7)
Ce1C Ce 0.429728(13) 0.280418(6) -0.199422(17)
Ce1A Ce 0.570272(13) -0.280418(6) -0.800578(17)
Ce1B Ce 0.570272(13) -0.219582(6) -0.300578(17)
Ce1_2 Ce 1.429728(13) 0.219582(6) -0.699422(17)
Ce1C_2 Ce 1.429728(13) 0.280418(6) -0.199422(17)
O5C O 0.55860(18) 0.27774(9) 0.5515(3)
O6A O 0.3911(2) 0.34907(10) 0.2753(2)
O7B O 0.45197(19) 0.13425(10) 0.5233(2)
O8_2 O 0.29177(17) 0.25396(10) 0.5248(2)
O8C O 0.29177(17) 0.24604(10) 0.0248(2)
O9_2 O 0.21015(18) 0.18399(11) 0.3212(2)
loop_
_geom_bond_atom_site_label_1
_geom_bond_atom_site_label_2
_geom_bond_site_symmetry_1
_geom_bond_site_symmetry_2
Ce1 O4 1_555 1_555
O1 C2 1_555 1_555
O2 C3 1_555 1_555
O3 C1 1_555 1_555
O4 C6 1_555 1_555
O5 Ce1 1_555 1_555
O6 C9 1_555 1_555
O7 C9 1_555 1_555
O8 C12 1_555 1_555
O9 C12 1_555 1_555
O10 Ce1 1_555 1_555
N1 C1 1_555 1_555
N2 C1 1_555 1_555
N3 C2 1_555 1_555
C2 N2 1_555 1_555
C3 N1 1_555 1_555
C4 N1 1_555 1_555
H1 C4 1_555 1_555
H2 C4 1_555 1_555
C5 C4 1_555 1_555
H3 C5 1_555 1_555
H4 C5 1_555 1_555
C6 O5 1_555 1_555
C7 N2 1_555 1_555
H5 C7 1_555 1_555
H6 C7 1_555 1_555
C8 C7 1_555 1_555
H7 C8 1_555 1_555
H8 C8 1_555 1_555
C9 C8 1_555 1_555
C10 N3 1_555 1_555
H9 C10 1_555 1_555
H10 C10 1_555 1_555
C11 C10 1_555 1_555
H11 C11 1_555 1_555
H12 C11 1_555 1_555
C12 C11 1_555 1_555
H13 O10 1_555 1_555
H14 O10 1_555 1_555
Ce1C O5 1_555 1_555
Ce1A O6 1_555 1_555
Ce1B O7 1_555 1_555
Ce1_2 O8 1_555 1_555
Ce1C_2 O8 1_555 1_555
O5C Ce1 1_555 1_555
O6A Ce1 1_555 1_555
O7B Ce1 1_555 1_555
O8_2 Ce1 1_555 1_555
O8C Ce1 1_555 1_555
O9_2 Ce1 1_555 1_555
O9 Ce1_2 1_555 1_555
N3 C3 1_555 1_555
C5 C6 1_555 1_555
Ce1C O8C 1_555 1_555

#END
