
#######################################################################
#
#                 Cambridge Crystallographic Data Centre
#                                CCDC 
#
#######################################################################
#
# If this CIF has been generated from an entry in the Cambridge 
# Structural Database, then it will include bibliographic, chemical, 
# crystal, experimental, refinement or atomic coordinate data resulting 
# from the CCDC's data processing and validation procedures.
#
#######################################################################

data_XERJOV
_chemical_formula_moiety         '(C64 H44 Al4 O20)n'
_chemical_name_systematic        
catena-[tetrakis(\m~4~-4,4'-Stilbenedicarboxylato)-tetrakis(\m~2~-hydroxo)-tetra-aluminium]
_symmetry_cell_setting           orthorhombic
_symmetry_space_group_name_H-M   'C m c m'
_symmetry_Int_Tables_number      63
_space_group_name_Hall           '-C 2c 2'
loop_
_symmetry_equiv_pos_site_id
_symmetry_equiv_pos_as_xyz
1 x,y,z
2 1/2+x,1/2+y,z
3 -x,-y,1/2+z
4 1/2-x,1/2-y,1/2+z
5 x,-y,-z
6 1/2+x,1/2-y,-z
7 -x,y,1/2-z
8 1/2-x,1/2+y,1/2-z
9 -x,-y,-z
10 1/2-x,1/2-y,-z
11 x,y,1/2-z
12 1/2+x,1/2+y,1/2-z
13 -x,y,z
14 1/2-x,1/2+y,z
15 x,-y,1/2+z
16 1/2+x,1/2-y,1/2+z
_cell_length_a                   34.067
_cell_length_b                   60.07
_cell_length_c                   6.312
_cell_angle_alpha                90
_cell_angle_beta                 90
_cell_angle_gamma                90
_cell_volume                     12916.9
_cell_formula_units_Z            16
loop_
_atom_site_label
_atom_site_type_symbol
_atom_site_fract_x
_atom_site_fract_y
_atom_site_fract_z
_atom_site_U_iso_or_equiv
_atom_site_thermal_displace_type
Al1 Al 0.2500 -0.25 -0.5 0.1000 Uiso
Al2 Al 0.0000 0.0000 -1.0000 0.1000 Uiso
C1 C 0.2249 -0.2128 -0.75 0.1000 Uiso
C2 C 0.0984 -0.0818 -0.9274 0.1000 Uiso
C3 C 0.1088 -0.092 -0.75 0.1000 Uiso
C4 C 0.1275 -0.114 -0.8224 0.1000 Uiso
C5 C 0.3185 -0.2417 -0.75 0.1000 Uiso
C6 C 0.3631 -0.2413 -0.75 0.1000 Uiso
C7 C 0.3833 -0.2408 -0.5711 0.1000 Uiso
C8 C 0.4244 -0.2409 -0.5696 0.1000 Uiso
C9 C 0.4462 -0.2405 -0.75 0.1000 Uiso
C10 C 0.4882 -0.2408 -0.6714 0.1000 Uiso
C11 C 0.2042 -0.19 -0.75 0.1000 Uiso
C12 C 0.1944 -0.1793 -0.5724 0.1000 Uiso
C13 C 0.1748 -0.1586 -0.5725 0.1000 Uiso
C14 C 0.164 -0.1479 -0.75 0.1000 Uiso
C15 C 0.1416 -0.1271 -0.6782 0.1000 Uiso
C16 C 0.0474 -0.0292 -0.75 0.1000 Uiso
C17 C 0.0697 -0.0515 -0.75 0.1000 Uiso
C18 C 0.079 -0.0616 -0.9276 0.1000 Uiso
O1 O 0.2311 -0.2224 -0.5766 0.1000 Uiso
O2 O 0.0389 -0.0192 -0.9199 0.1000 Uiso
O3 O 0.2988 -0.2411 -0.5822 0.1000 Uiso
O4 O 0.2398 -0.2604 -0.75 0.1000 Uiso
O5 O 0.0000 0.012 -0.75 0.1000 Uiso
Al1J Al 0.2500 -0.25 -1.0 0.1000 Uiso
Al1O Al 0.7500 -0.25 -1.0 0.1000 Uiso
Al1L Al 0.7500 -0.25 -0.5 0.1000 Uiso
Al1L_2 Al -0.2500 -0.25 -0.5 0.1000 Uiso
Al1O_2 Al -0.2500 -0.25 -1.0 0.1000 Uiso
Al1J_2 Al 0.2500 -0.25 0.0 0.1000 Uiso
Al1_2 Al 0.2500 -0.25 -1.5 0.1000 Uiso
Al1_3 Al 0.2500 -0.25 0.5 0.1000 Uiso
Al1L_3 Al 0.7500 -0.25 -1.5 0.1000 Uiso
Al1O_3 Al 0.7500 -0.25 0.0 0.1000 Uiso
Al1O_4 Al -0.2500 -0.25 0.0 0.1000 Uiso
Al1L_4 Al -0.2500 -0.25 -1.5 0.1000 Uiso
Al1J_3 Al 0.2500 -0.25 -2.0 0.1000 Uiso
Al1J_4 Al 0.2500 -0.25 1.0 0.1000 Uiso
Al2J Al 0.0000 0.0000 -0.5000 0.1000 Uiso
Al2J_2 Al 0.0000 0.0000 -1.5000 0.1000 Uiso
Al2_2 Al 0.0000 0.0000 0.0000 0.1000 Uiso
Al2_3 Al 0.0000 0.0000 -2.0000 0.1000 Uiso
C1L C -0.2249 -0.2128 -0.75 0.1000 Uiso
C1I C 0.2751 -0.2872 -0.25 0.1000 Uiso
C1I_2 C 0.2751 -0.2872 -1.25 0.1000 Uiso
C1_2 C 0.2249 -0.2128 0.25 0.1000 Uiso
C1O C 0.7249 -0.2872 -1.25 0.1000 Uiso
C1L_2 C 0.7751 -0.2128 -0.75 0.1000 Uiso
C1O_2 C 0.7249 -0.2872 -0.25 0.1000 Uiso
C1O_3 C -0.2751 -0.2872 -0.25 0.1000 Uiso
C1O_4 C -0.2751 -0.2872 -1.25 0.1000 Uiso
C1_3 C 0.2249 -0.2128 -1.75 0.1000 Uiso
C1I_3 C 0.2751 -0.2872 0.75 0.1000 Uiso
C2J C 0.0984 -0.0818 -0.5726 0.1000 Uiso
C2L C -0.0984 -0.0818 -0.9274 0.1000 Uiso
C2F C -0.0984 -0.0818 -0.5726 0.1000 Uiso
C3L C -0.1088 -0.092 -0.75 0.1000 Uiso
C4J C 0.1275 -0.114 -0.6776 0.1000 Uiso
C4L C -0.1275 -0.114 -0.8224 0.1000 Uiso
C4F C -0.1275 -0.114 -0.6776 0.1000 Uiso
C5L C 0.6815 -0.2417 -0.75 0.1000 Uiso
C5I C 0.1815 -0.2583 -0.25 0.1000 Uiso
C5I_2 C 0.1815 -0.2583 -1.25 0.1000 Uiso
C5_2 C 0.3185 -0.2417 0.25 0.1000 Uiso
C5O C 0.8185 -0.2583 -1.25 0.1000 Uiso
C5O_2 C 0.8185 -0.2583 -0.25 0.1000 Uiso
C5L_2 C -0.3185 -0.2417 -0.75 0.1000 Uiso
C5O_3 C -0.1815 -0.2583 -0.25 0.1000 Uiso
C5O_4 C -0.1815 -0.2583 -1.25 0.1000 Uiso
C5_3 C 0.3185 -0.2417 -1.75 0.1000 Uiso
C5I_3 C 0.1815 -0.2583 0.75 0.1000 Uiso
C6L C 0.6369 -0.2413 -0.75 0.1000 Uiso
C6I C 0.1369 -0.2587 -0.25 0.1000 Uiso
C6I_2 C 0.1369 -0.2587 -1.25 0.1000 Uiso
C6_2 C 0.3631 -0.2413 0.25 0.1000 Uiso
C6O C 0.8631 -0.2587 -1.25 0.1000 Uiso
C6O_2 C 0.8631 -0.2587 -0.25 0.1000 Uiso
C6L_2 C -0.3631 -0.2413 -0.75 0.1000 Uiso
C6O_3 C -0.1369 -0.2587 -0.25 0.1000 Uiso
C6O_4 C -0.1369 -0.2587 -1.25 0.1000 Uiso
C7J C 0.3833 -0.2408 -0.9289 0.1000 Uiso
C7F C 0.6167 -0.2408 -0.9289 0.1000 Uiso
C7L C 0.6167 -0.2408 -0.5711 0.1000 Uiso
C7I C 0.1167 -0.2592 -0.4289 0.1000 Uiso
C7C C 0.1167 -0.2592 -0.0711 0.1000 Uiso
C7I_2 C 0.1167 -0.2592 -1.4289 0.1000 Uiso
C7C_2 C 0.1167 -0.2592 -1.0711 0.1000 Uiso
C7_2 C 0.3833 -0.2408 0.4289 0.1000 Uiso
C7J_2 C 0.3833 -0.2408 0.0711 0.1000 Uiso
C8J C 0.4244 -0.2409 -0.9304 0.1000 Uiso
C8F C 0.5756 -0.2409 -0.9304 0.1000 Uiso
C8L C 0.5756 -0.2409 -0.5696 0.1000 Uiso
C9L C 0.5538 -0.2405 -0.75 0.1000 Uiso
C10J C 0.4882 -0.2408 -0.8286 0.1000 Uiso
C10F C 0.5118 -0.2408 -0.8286 0.1000 Uiso
C10L C 0.5118 -0.2408 -0.6714 0.1000 Uiso
C11L C -0.2042 -0.19 -0.75 0.1000 Uiso
C11I C 0.2958 -0.31 -0.25 0.1000 Uiso
C11I_2 C 0.2958 -0.31 -1.25 0.1000 Uiso
C11_2 C 0.2042 -0.19 0.25 0.1000 Uiso
C11O C 0.7042 -0.31 -1.25 0.1000 Uiso
C11L_2 C 0.7958 -0.19 -0.75 0.1000 Uiso
C11O_2 C 0.7042 -0.31 -0.25 0.1000 Uiso
C11O_3 C -0.2958 -0.31 -0.25 0.1000 Uiso
C11O_4 C -0.2958 -0.31 -1.25 0.1000 Uiso
C12J C 0.1944 -0.1793 -0.9276 0.1000 Uiso
C12L C -0.1944 -0.1793 -0.5724 0.1000 Uiso
C12F C -0.1944 -0.1793 -0.9276 0.1000 Uiso
C12I C 0.3056 -0.3207 -0.4276 0.1000 Uiso
C12C C 0.3056 -0.3207 -0.0724 0.1000 Uiso
C12I_2 C 0.3056 -0.3207 -1.4276 0.1000 Uiso
C12C_2 C 0.3056 -0.3207 -1.0724 0.1000 Uiso
C12_2 C 0.1944 -0.1793 0.4276 0.1000 Uiso
C12J_2 C 0.1944 -0.1793 0.0724 0.1000 Uiso
C13J C 0.1748 -0.1586 -0.9275 0.1000 Uiso
C13L C -0.1748 -0.1586 -0.5725 0.1000 Uiso
C13F C -0.1748 -0.1586 -0.9275 0.1000 Uiso
C14L C -0.164 -0.1479 -0.75 0.1000 Uiso
C15J C 0.1416 -0.1271 -0.8218 0.1000 Uiso
C15L C -0.1416 -0.1271 -0.6782 0.1000 Uiso
C15F C -0.1416 -0.1271 -0.8218 0.1000 Uiso
C16L C -0.0474 -0.0292 -0.75 0.1000 Uiso
C16H C -0.0474 0.0292 -1.25 0.1000 Uiso
C16N C 0.0474 0.0292 -1.25 0.1000 Uiso
C16N_2 C 0.0474 0.0292 -0.25 0.1000 Uiso
C16H_2 C -0.0474 0.0292 -0.25 0.1000 Uiso
C16_2 C 0.0474 -0.0292 -1.75 0.1000 Uiso
C16L_2 C -0.0474 -0.0292 -1.75 0.1000 Uiso
C17L C -0.0697 -0.0515 -0.75 0.1000 Uiso
C17H C -0.0697 0.0515 -1.25 0.1000 Uiso
C17N C 0.0697 0.0515 -1.25 0.1000 Uiso
C17N_2 C 0.0697 0.0515 -0.25 0.1000 Uiso
C17H_2 C -0.0697 0.0515 -0.25 0.1000 Uiso
C18J C 0.079 -0.0616 -0.5724 0.1000 Uiso
C18L C -0.079 -0.0616 -0.9276 0.1000 Uiso
C18F C -0.079 -0.0616 -0.5724 0.1000 Uiso
C18H C -0.079 0.0616 -1.0724 0.1000 Uiso
C18B C -0.079 0.0616 -1.4276 0.1000 Uiso
C18N C 0.079 0.0616 -1.4276 0.1000 Uiso
C18D C 0.079 0.0616 -1.0724 0.1000 Uiso
O1J O 0.2311 -0.2224 -0.9234 0.1000 Uiso
O1L O -0.2311 -0.2224 -0.5766 0.1000 Uiso
O1F O -0.2311 -0.2224 -0.9234 0.1000 Uiso
O1I O 0.2689 -0.2776 -0.4234 0.1000 Uiso
O1C O 0.2689 -0.2776 -1.0766 0.1000 Uiso
O1J_2 O 0.2311 -0.2224 0.0766 0.1000 Uiso
O1C_2 O 0.2689 -0.2776 -0.0766 0.1000 Uiso
O1O O 0.7311 -0.2776 -1.0766 0.1000 Uiso
O1F_2 O 0.7689 -0.2224 -0.9234 0.1000 Uiso
O1L_2 O 0.7689 -0.2224 -0.5766 0.1000 Uiso
O1E O 0.7311 -0.2776 -0.4234 0.1000 Uiso
O1E_2 O -0.2689 -0.2776 -0.4234 0.1000 Uiso
O1O_2 O -0.2689 -0.2776 -1.0766 0.1000 Uiso
O1I_2 O 0.2689 -0.2776 -1.4234 0.1000 Uiso
O1_2 O 0.2311 -0.2224 -1.5766 0.1000 Uiso
O1_3 O 0.2311 -0.2224 0.4234 0.1000 Uiso
O1I_3 O 0.2689 -0.2776 0.5766 0.1000 Uiso
O1E_3 O 0.7311 -0.2776 -1.4234 0.1000 Uiso
O1L_3 O 0.7689 -0.2224 -1.5766 0.1000 Uiso
O1O_3 O 0.7311 -0.2776 -0.0766 0.1000 Uiso
O1F_3 O 0.7689 -0.2224 0.0766 0.1000 Uiso
O1O_4 O -0.2689 -0.2776 -0.0766 0.1000 Uiso
O1F_4 O -0.2311 -0.2224 0.0766 0.1000 Uiso
O1E_4 O -0.2689 -0.2776 -1.4234 0.1000 Uiso
O1L_4 O -0.2311 -0.2224 -1.5766 0.1000 Uiso
O2J O 0.0389 -0.0192 -0.5801 0.1000 Uiso
O2L O -0.0389 -0.0192 -0.9199 0.1000 Uiso
O2F O -0.0389 -0.0192 -0.5801 0.1000 Uiso
O2H O -0.0389 0.0192 -1.0801 0.1000 Uiso
O2D O 0.0389 0.0192 -1.0801 0.1000 Uiso
O2N O 0.0389 0.0192 -0.4199 0.1000 Uiso
O2B O -0.0389 0.0192 -0.4199 0.1000 Uiso
O2B_2 O -0.0389 0.0192 -1.4199 0.1000 Uiso
O2N_2 O 0.0389 0.0192 -1.4199 0.1000 Uiso
O2J_2 O 0.0389 -0.0192 -1.5801 0.1000 Uiso
O2F_2 O -0.0389 -0.0192 -1.5801 0.1000 Uiso
O2D_2 O 0.0389 0.0192 -0.0801 0.1000 Uiso
O2H_2 O -0.0389 0.0192 -0.0801 0.1000 Uiso
O2_2 O 0.0389 -0.0192 0.0801 0.1000 Uiso
O2L_2 O -0.0389 -0.0192 0.0801 0.1000 Uiso
O3F O 0.7012 -0.2411 -0.9178 0.1000 Uiso
O3L O 0.7012 -0.2411 -0.5822 0.1000 Uiso
O3J O 0.2988 -0.2411 -0.9178 0.1000 Uiso
O3I O 0.2012 -0.2589 -0.4178 0.1000 Uiso
O3C O 0.2012 -0.2589 -1.0822 0.1000 Uiso
O3J_2 O 0.2988 -0.2411 0.0822 0.1000 Uiso
O3C_2 O 0.2012 -0.2589 -0.0822 0.1000 Uiso
O3O O 0.7988 -0.2589 -1.0822 0.1000 Uiso
O3E O 0.7988 -0.2589 -0.4178 0.1000 Uiso
O3L_2 O -0.2988 -0.2411 -0.5822 0.1000 Uiso
O3E_2 O -0.2012 -0.2589 -0.4178 0.1000 Uiso
O3O_2 O -0.2012 -0.2589 -1.0822 0.1000 Uiso
O3F_2 O -0.2988 -0.2411 -0.9178 0.1000 Uiso
O3I_2 O 0.2012 -0.2589 -1.4178 0.1000 Uiso
O3_2 O 0.2988 -0.2411 -1.5822 0.1000 Uiso
O3_3 O 0.2988 -0.2411 0.4178 0.1000 Uiso
O3I_3 O 0.2012 -0.2589 0.5822 0.1000 Uiso
O3E_3 O 0.7988 -0.2589 -1.4178 0.1000 Uiso
O3L_3 O 0.7012 -0.2411 -1.5822 0.1000 Uiso
O3O_3 O 0.7988 -0.2589 -0.0822 0.1000 Uiso
O3F_3 O 0.7012 -0.2411 0.0822 0.1000 Uiso
O3O_4 O -0.2012 -0.2589 -0.0822 0.1000 Uiso
O3F_4 O -0.2988 -0.2411 0.0822 0.1000 Uiso
O3E_4 O -0.2012 -0.2589 -1.4178 0.1000 Uiso
O3L_4 O -0.2988 -0.2411 -1.5822 0.1000 Uiso
O4I O 0.2602 -0.2396 -0.25 0.1000 Uiso
O4I_2 O 0.2602 -0.2396 -1.25 0.1000 Uiso
O4_2 O 0.2398 -0.2604 0.25 0.1000 Uiso
O4L O 0.7602 -0.2604 -0.75 0.1000 Uiso
O4O O 0.7398 -0.2396 -1.25 0.1000 Uiso
O4O_2 O 0.7398 -0.2396 -0.25 0.1000 Uiso
O4L_2 O -0.2398 -0.2604 -0.75 0.1000 Uiso
O4O_3 O -0.2602 -0.2396 -0.25 0.1000 Uiso
O4O_4 O -0.2602 -0.2396 -1.25 0.1000 Uiso
O4_3 O 0.2398 -0.2604 -1.75 0.1000 Uiso
O4I_3 O 0.2602 -0.2396 0.75 0.1000 Uiso
O4L_3 O 0.7602 -0.2604 -1.75 0.1000 Uiso
O4L_4 O 0.7602 -0.2604 0.25 0.1000 Uiso
O4L_5 O -0.2398 -0.2604 0.25 0.1000 Uiso
O4L_6 O -0.2398 -0.2604 -1.75 0.1000 Uiso
O5N O 0.0000 -0.012 -1.25 0.1000 Uiso
O5N_2 O 0.0000 -0.012 -0.25 0.1000 Uiso
O5_2 O 0.0000 0.012 -1.75 0.1000 Uiso
O5_3 O 0.0000 0.012 0.25 0.1000 Uiso
loop_
_geom_bond_atom_site_label_1
_geom_bond_atom_site_label_2
_geom_bond_site_symmetry_1
_geom_bond_site_symmetry_2
Al1 O1 1_555 1_555
Al2 O2 1_555 1_555
C1 C11 1_555 1_555
C2 C3 1_555 1_555
C3 C4 1_555 1_555
C4 C15 1_555 1_555
C5 C6 1_555 1_555
C6 C7 1_555 1_555
C7 C8 1_555 1_555
C8 C9 1_555 1_555
C9 C10 1_555 1_555
C10 C10J 1_555 1_555
C11 C12 1_555 1_555
C12 C13 1_555 1_555
C13 C14 1_555 1_555
C14 C15 1_555 1_555
C15 C4J 1_555 1_555
C16 C17 1_555 1_555
C17 C18 1_555 1_555
C18 C2 1_555 1_555
O1 C1 1_555 1_555
O2 C16 1_555 1_555
O3 Al1 1_555 1_555
O4 Al1 1_555 1_555
O5 Al2 1_555 1_555
Al1J O4 1_555 1_555
Al1O O1O 1_555 1_555
Al1L O1L_2 1_555 1_555
Al1L_2 O1L 1_555 1_555
Al1O_2 O1F 1_555 1_555
Al1J_2 O1J_2 1_555 1_555
Al1_2 O1I_2 1_555 1_555
Al1_3 O1_3 1_555 1_555
Al1L_3 O1E_3 1_555 1_555
Al1O_3 O1O_3 1_555 1_555
Al1O_4 O1O_4 1_555 1_555
Al1L_4 O1E_4 1_555 1_555
Al1J_3 O4_3 1_555 1_555
Al1J_4 O4I_3 1_555 1_555
Al2J O5 1_555 1_555
Al2J_2 O2B_2 1_555 1_555
Al2_2 O2D_2 1_555 1_555
Al2_3 O5_2 1_555 1_555
C1L C11L 1_555 1_555
C1I C11I 1_555 1_555
C1I_2 C11I_2 1_555 1_555
C1_2 C11_2 1_555 1_555
C1O C11O 1_555 1_555
C1L_2 C11L_2 1_555 1_555
C1O_2 C11O_2 1_555 1_555
C1O_3 C11O_3 1_555 1_555
C1O_4 C11O_4 1_555 1_555
C1_3 O1_2 1_555 1_555
C1I_3 O1I_3 1_555 1_555
C2J C3 1_555 1_555
C2L C3L 1_555 1_555
C2F C3L 1_555 1_555
C3L C4L 1_555 1_555
C4J C3 1_555 1_555
C4L C4F 1_555 1_555
C4F C3L 1_555 1_555
C5L C6L 1_555 1_555
C5I C6I 1_555 1_555
C5I_2 C6I_2 1_555 1_555
C5_2 C6_2 1_555 1_555
C5O C6O 1_555 1_555
C5O_2 C6O_2 1_555 1_555
C5L_2 C6L_2 1_555 1_555
C5O_3 C6O_3 1_555 1_555
C5O_4 C6O_4 1_555 1_555
C5_3 O3_2 1_555 1_555
C5I_3 O3I_3 1_555 1_555
C6L C7F 1_555 1_555
C6I C7I 1_555 1_555
C6I_2 C7I_2 1_555 1_555
C6_2 C7_2 1_555 1_555
C7J C6 1_555 1_555
C7F C8F 1_555 1_555
C7L C6L 1_555 1_555
C7C C6I 1_555 1_555
C7C_2 C6I_2 1_555 1_555
C7J_2 C6_2 1_555 1_555
C8J C9 1_555 1_555
C8F C9L 1_555 1_555
C8L C7L 1_555 1_555
C9L C8L 1_555 1_555
C10J C9 1_555 1_555
C10F C10 1_555 1_555
C10L C10 1_555 1_555
C11L C12L 1_555 1_555
C11I C12I 1_555 1_555
C11I_2 C12I_2 1_555 1_555
C11_2 C12_2 1_555 1_555
C12J C11 1_555 1_555
C12L C13L 1_555 1_555
C12F C11L 1_555 1_555
C12C C11I 1_555 1_555
C12C_2 C11I_2 1_555 1_555
C12J_2 C11_2 1_555 1_555
C13J C14 1_555 1_555
C13L C14L 1_555 1_555
C13F C12F 1_555 1_555
C14L C13F 1_555 1_555
C15J C4 1_555 1_555
C15L C4L 1_555 1_555
C15F C4L 1_555 1_555
C16L C17L 1_555 1_555
C16H C17H 1_555 1_555
C16N C17N 1_555 1_555
C16N_2 C17N_2 1_555 1_555
C16H_2 C17H_2 1_555 1_555
C16_2 O2J_2 1_555 1_555
C16L_2 O2F_2 1_555 1_555
C17L C18L 1_555 1_555
C17H C18H 1_555 1_555
C17N C18N 1_555 1_555
C18J C17 1_555 1_555
C18L C2L 1_555 1_555
C18F C2F 1_555 1_555
C18B C17H 1_555 1_555
C18D C17N 1_555 1_555
O1J C1 1_555 1_555
O1L C1L 1_555 1_555
O1F C1L 1_555 1_555
O1I Al1 1_555 1_555
O1C Al1J 1_555 1_555
O1J_2 C1_2 1_555 1_555
O1C_2 Al1J_2 1_555 1_555
O1O C1O 1_555 1_555
O1F_2 Al1O 1_555 1_555
O1L_2 C1L_2 1_555 1_555
O1E Al1L 1_555 1_555
O1E_2 Al1L_2 1_555 1_555
O1O_2 Al1O_2 1_555 1_555
O1I_2 C1I_2 1_555 1_555
O1_2 Al1_2 1_555 1_555
O1_3 C1_2 1_555 1_555
O1I_3 Al1_3 1_555 1_555
O1E_3 C1O 1_555 1_555
O1L_3 Al1L_3 1_555 1_555
O1O_3 C1O_2 1_555 1_555
O1F_3 Al1O_3 1_555 1_555
O1O_4 C1O_3 1_555 1_555
O1F_4 Al1O_4 1_555 1_555
O1E_4 C1O_4 1_555 1_555
O1L_4 Al1L_4 1_555 1_555
O2J C16 1_555 1_555
O2L Al2 1_555 1_555
O2F Al2J 1_555 1_555
O2H Al2 1_555 1_555
O2D Al2 1_555 1_555
O2N Al2J 1_555 1_555
O2B Al2J 1_555 1_555
O2B_2 C16H 1_555 1_555
O2N_2 Al2J_2 1_555 1_555
O2J_2 Al2J_2 1_555 1_555
O2F_2 Al2J_2 1_555 1_555
O2D_2 C16N_2 1_555 1_555
O2H_2 Al2_2 1_555 1_555
O2_2 Al2_2 1_555 1_555
O2L_2 Al2_2 1_555 1_555
O3F Al1O 1_555 1_555
O3L Al1L 1_555 1_555
O3J C5 1_555 1_555
O3I Al1 1_555 1_555
O3C Al1J 1_555 1_555
O3J_2 Al1J_2 1_555 1_555
O3C_2 Al1J_2 1_555 1_555
O3O Al1O 1_555 1_555
O3E Al1L 1_555 1_555
O3L_2 Al1L_2 1_555 1_555
O3E_2 Al1L_2 1_555 1_555
O3O_2 Al1O_2 1_555 1_555
O3F_2 Al1O_2 1_555 1_555
O3I_2 Al1_2 1_555 1_555
O3_2 Al1_2 1_555 1_555
O3_3 Al1_3 1_555 1_555
O3I_3 Al1_3 1_555 1_555
O3E_3 Al1L_3 1_555 1_555
O3L_3 Al1L_3 1_555 1_555
O3O_3 Al1O_3 1_555 1_555
O3F_3 Al1O_3 1_555 1_555
O3O_4 Al1O_4 1_555 1_555
O3F_4 Al1O_4 1_555 1_555
O3E_4 Al1L_4 1_555 1_555
O3L_4 Al1L_4 1_555 1_555
O4I Al1 1_555 1_555
O4I_2 Al1J 1_555 1_555
O4_2 Al1J_2 1_555 1_555
O4L Al1O 1_555 1_555
O4O Al1O 1_555 1_555
O4O_2 Al1L 1_555 1_555
O4L_2 Al1L_2 1_555 1_555
O4O_3 Al1L_2 1_555 1_555
O4O_4 Al1O_2 1_555 1_555
O4_3 Al1_2 1_555 1_555
O4I_3 Al1_3 1_555 1_555
O4L_3 Al1L_3 1_555 1_555
O4L_4 Al1O_3 1_555 1_555
O4L_5 Al1O_4 1_555 1_555
O4L_6 Al1L_4 1_555 1_555
O5N Al2 1_555 1_555
O5N_2 Al2J 1_555 1_555
O5_2 Al2J_2 1_555 1_555
O5_3 Al2_2 1_555 1_555
C4 C4J 1_555 1_555
C5 O3 1_555 1_555
C14 C15J 1_555 1_555
C15 C15J 1_555 1_555
Al1J O1J 1_555 1_555
Al1J O3J 1_555 1_555
Al1L O4L 1_555 1_555
Al1O_2 O4L_2 1_555 1_555
Al1J_2 O4I 1_555 1_555
Al1_2 O4I_2 1_555 1_555
Al1_3 O4_2 1_555 1_555
Al1L_3 O4O 1_555 1_555
Al1O_3 O4O_2 1_555 1_555
Al1O_4 O4O_3 1_555 1_555
Al1L_4 O4O_4 1_555 1_555
Al2J O2J 1_555 1_555
Al2J_2 O5N 1_555 1_555
Al2_2 O5N_2 1_555 1_555
C1I O1I 1_555 1_555
C1I O1C_2 1_555 1_555
C1I_2 O1C 1_555 1_555
C1L_2 O1F_2 1_555 1_555
C1O_2 O1E 1_555 1_555
C1O_3 O1E_2 1_555 1_555
C1O_4 O1O_2 1_555 1_555
C2J C18J 1_555 1_555
C4J C15J 1_555 1_555
C4F C15L 1_555 1_555
C4F C15F 1_555 1_555
C5L O3F 1_555 1_555
C5L O3L 1_555 1_555
C5I O3I 1_555 1_555
C5I O3C_2 1_555 1_555
C5I_2 O3C 1_555 1_555
C5I_2 O3I_2 1_555 1_555
C5_2 O3J_2 1_555 1_555
C5_2 O3_3 1_555 1_555
C5O O3O 1_555 1_555
C5O O3E_3 1_555 1_555
C5O_2 O3E 1_555 1_555
C5O_2 O3O_3 1_555 1_555
C5L_2 O3L_2 1_555 1_555
C5L_2 O3F_2 1_555 1_555
C5O_3 O3E_2 1_555 1_555
C5O_3 O3O_4 1_555 1_555
C5O_4 O3O_2 1_555 1_555
C5O_4 O3E_4 1_555 1_555
C7J C8J 1_555 1_555
C9L C10F 1_555 1_555
C9L C10L 1_555 1_555
C10J C10F 1_555 1_555
C10J C10L 1_555 1_555
C10F C10L 1_555 1_555
C12J C13J 1_555 1_555
C14L C15L 1_555 1_555
C14L C15F 1_555 1_555
C15L C15F 1_555 1_555
C16L O2L 1_555 1_555
C16L O2F 1_555 1_555
C16H O2H 1_555 1_555
C16N O2D 1_555 1_555
C16N O2N_2 1_555 1_555
C16N_2 O2N 1_555 1_555
C16H_2 O2B 1_555 1_555
C16H_2 O2H_2 1_555 1_555
C17L C18F 1_555 1_555

#END
