
#######################################################################
#
#                 Cambridge Crystallographic Data Centre
#                                CCDC 
#
#######################################################################
#
# If this CIF has been generated from an entry in the Cambridge 
# Structural Database, then it will include bibliographic, chemical, 
# crystal, experimental, refinement or atomic coordinate data resulting 
# from the CCDC's data processing and validation procedures.
#
#######################################################################

data_BETZUX
_chemical_formula_moiety         '(C42 H32 Mg2 O17 P2)n,2n(C5 H11 N1 O1)'
_chemical_name_systematic        
"catena-(bis(\m~4~-hydrogen 3,3',3''-phosphoryltribenzoato)-(\m~2~-aqua)-diaqua-di-magnesium N,N-diethylformamide solvate)"
_symmetry_cell_setting           monoclinic
_symmetry_space_group_name_H-M   'C 2/c'
_symmetry_Int_Tables_number      15
_space_group_name_Hall           '-C 2yc'
loop_
_symmetry_equiv_pos_site_id
_symmetry_equiv_pos_as_xyz
1 x,y,z
2 -x,y,1/2-z
3 1/2+x,1/2+y,z
4 1/2-x,1/2+y,1/2-z
5 -x,-y,-z
6 x,-y,1/2+z
7 1/2-x,1/2-y,-z
8 1/2+x,1/2-y,1/2+z
_cell_length_a                   33.3495(12)
_cell_length_b                   10.5440(3)
_cell_length_c                   15.0994(6)
_cell_angle_alpha                90
_cell_angle_beta                 103.703(2)
_cell_angle_gamma                90
_cell_volume                     5158.38
_exptl_crystal_colour            colorless
_exptl_crystal_description       plate
_cell_formula_units_Z            4
loop_
_atom_site_label
_atom_site_type_symbol
_atom_site_fract_x
_atom_site_fract_y
_atom_site_fract_z
Mg1 Mg 0.02696(3) 0.08839(9) 0.36761(6)
O1 O 0.07733(6) 0.20351(19) 0.40611(13)
O2 O 0.21037(8) 0.0139(3) 0.3770(2)
H1 H 0.2256 -0.0464 0.3692
O3 O 0.25861(7) 0.1302(3) 0.33555(19)
O4 O 0.00449(6) 0.7983(2) 0.55693(13)
O5 O 0.03558(7) 0.6488(2) 0.65410(13)
O6 O 0.05991(6) 0.0264(2) 0.80397(13)
O7 O 0.02380(6) 0.0325(2) 0.65879(13)
O8 O 0.0000 0.2002(3) 0.2500
O9 O 0.04758(6) -0.0230(2) 0.48408(13)
P1 P 0.10010(2) 0.30622(7) 0.46518(5)
C1 C 0.14952(9) 0.3306(3) 0.43941(19)
C2 C 0.16880(9) 0.2244(3) 0.4141(2)
H2 H 0.1557 0.1440 0.4112
C3 C 0.20703(9) 0.2346(3) 0.3931(2)
C4 C 0.22578(10) 0.3527(4) 0.3974(2)
H3 H 0.2518 0.3604 0.3823
C5 C 0.20723(10) 0.4592(4) 0.4232(2)
H4 H 0.2206 0.5393 0.4269
C6 C 0.16878(10) 0.4480(3) 0.4437(2)
H5 H 0.1557 0.5210 0.4607
C7 C 0.22793(10) 0.1223(4) 0.3648(2)
C8 C 0.11013(9) 0.2658(3) 0.58435(18)
C9 C 0.14776(9) 0.2862(3) 0.6455(2)
H6 H 0.1691 0.3313 0.6270
C10 C 0.07332(8) 0.4543(3) 0.44749(19)
C11 C 0.06450(9) 0.5061(3) 0.35999(19)
H7 H 0.0731 0.4634 0.3123
C12 C 0.04334(9) 0.6189(3) 0.3427(2)
H8 H 0.0380 0.6549 0.2834
C13 C 0.02978(9) 0.6803(3) 0.41150(19)
H9 H 0.0148 0.7574 0.3989
C14 C 0.03813(8) 0.6292(3) 0.49895(18)
C15 C 0.06000(9) 0.5164(3) 0.51665(19)
H10 H 0.0659 0.4813 0.5763
C16 C 0.02506(9) 0.6957(3) 0.57641(19)
C17 C 0.15415(10) 0.2401(4) 0.7344(2)
H11 H 0.1795 0.2562 0.7771
C18 C 0.12351(9) 0.1707(3) 0.7607(2)
H12 H 0.1283 0.1379 0.8209
C19 C 0.08589(9) 0.1489(3) 0.69926(19)
C20 C 0.07913(9) 0.1997(3) 0.61229(19)
H13 H 0.0530 0.1894 0.5712
C21 C 0.05403(8) 0.0635(3) 0.72315(19)
Mg1A Mg -0.02696(3) 0.08839(9) 0.13239(6)
O1A O -0.07733(6) 0.20351(19) 0.09389(13)
O2A O -0.21037(8) 0.0139(3) 0.1230(2)
H1A H -0.2256 -0.0464 0.1308
O3A O -0.25861(7) 0.1302(3) 0.16445(19)
O4A O -0.00449(6) 0.7983(2) -0.05693(13)
O5A O -0.03558(7) 0.6488(2) -0.15410(13)
O6A O -0.05991(6) 0.0264(2) -0.30397(13)
O7A O -0.02380(6) 0.0325(2) -0.15879(13)
O9A O -0.04758(6) -0.0230(2) 0.01592(13)
P1A P -0.10010(2) 0.30622(7) 0.03482(5)
C1A C -0.14952(9) 0.3306(3) 0.06059(19)
C2A C -0.16880(9) 0.2244(3) 0.0859(2)
H2A H -0.1557 0.1440 0.0888
C3A C -0.20703(9) 0.2346(3) 0.1069(2)
C4A C -0.22578(10) 0.3527(4) 0.1026(2)
H3A H -0.2518 0.3604 0.1177
C5A C -0.20723(10) 0.4592(4) 0.0768(2)
H4A H -0.2206 0.5393 0.0731
C6A C -0.16878(10) 0.4480(3) 0.0563(2)
H5A H -0.1557 0.5210 0.0393
C7A C -0.22793(10) 0.1223(4) 0.1352(2)
C8A C -0.11013(9) 0.2658(3) -0.08435(18)
C9A C -0.14776(9) 0.2862(3) -0.1455(2)
H6A H -0.1691 0.3313 -0.1270
C10A C -0.07332(8) 0.4543(3) 0.05251(19)
C11A C -0.06450(9) 0.5061(3) 0.14001(19)
H7A H -0.0731 0.4634 0.1877
C12A C -0.04334(9) 0.6189(3) 0.1573(2)
H8A H -0.0380 0.6549 0.2166
C13A C -0.02978(9) 0.6803(3) 0.08850(19)
H9A H -0.0148 0.7574 0.1011
C14A C -0.03813(8) 0.6292(3) 0.00105(18)
C15A C -0.06000(9) 0.5164(3) -0.01665(19)
H10A H -0.0659 0.4813 -0.0763
C16A C -0.02506(9) 0.6957(3) -0.07641(19)
C17A C -0.15415(10) 0.2401(4) -0.2344(2)
H11A H -0.1795 0.2562 -0.2771
C18A C -0.12351(9) 0.1707(3) -0.2607(2)
H12A H -0.1283 0.1379 -0.3209
C19A C -0.08589(9) 0.1489(3) -0.19926(19)
C20A C -0.07913(9) 0.1997(3) -0.11229(19)
H13A H -0.0530 0.1894 -0.0712
C21A C -0.05403(8) 0.0635(3) -0.22315(19)
Mg1D Mg -0.02696(3) -0.08839(9) -0.36761(6)
Mg1D_2 Mg -0.02696(3) -0.08839(9) 0.63239(6)
Mg1D_3 Mg -0.02696(3) 0.91161(9) 0.63239(6)
Mg1E Mg 0.02696(3) -0.08839(9) -0.13239(6)
Mg1E_2 Mg 0.02696(3) -0.08839(9) 0.86761(6)
Mg1E_3 Mg 0.02696(3) 0.91161(9) -0.13239(6)
O4D O -0.00449(6) 0.2017(2) 0.44307(13)
O4E O 0.00449(6) 0.2017(2) 0.05693(13)
O6D O -0.05991(6) -0.0264(2) 0.19603(13)
O6E O 0.05991(6) -0.0264(2) 0.30397(13)
O7D O -0.02380(6) -0.0325(2) 0.34121(13)
O7E O 0.02380(6) -0.0325(2) 0.15879(13)
C22 C 0.21000(13) 0.3405(4) 0.1535(3)
H14 H 0.2117 0.4028 0.1997
C23 C 0.1685(2) 0.1902(6) 0.0498(4)
H15 H 0.1834 0.2223 0.0051
H16 H 0.1387 0.1863 0.0197
C24 C 0.1838(3) 0.0601(7) 0.0812(7)
H17 H 0.2112 0.0667 0.1228
H18 H 0.1857 0.0085 0.0283
H19 H 0.1647 0.0200 0.1128
C25 C 0.14012(12) 0.2992(4) 0.1713(3)
H20 H 0.1187 0.3488 0.1286
H21 H 0.1501 0.3514 0.2267
C26 C 0.12067(13) 0.1808(4) 0.1974(3)
H22 H 0.1057 0.1370 0.1422
H23 H 0.1014 0.2032 0.2349
H24 H 0.1422 0.1249 0.2322
N1 N 0.17496(11) 0.2763(4) 0.1283(2)
O10 O 0.24087(11) 0.3257(3) 0.1215(3)
loop_
_geom_bond_atom_site_label_1
_geom_bond_atom_site_label_2
_geom_bond_site_symmetry_1
_geom_bond_site_symmetry_2
Mg1 O1 1_555 1_555
O1 P1 1_555 1_555
O2 H1 1_555 1_555
O3 C7 1_555 1_555
O4 C16 1_555 1_555
O5 C16 1_555 1_555
O6 C21 1_555 1_555
O7 C21 1_555 1_555
O8 Mg1 1_555 1_555
O9 Mg1 1_555 1_555
P1 C1 1_555 1_555
C1 C2 1_555 1_555
C2 H2 1_555 1_555
C3 C2 1_555 1_555
C4 C3 1_555 1_555
H3 C4 1_555 1_555
C5 C4 1_555 1_555
H4 C5 1_555 1_555
C6 C1 1_555 1_555
H5 C6 1_555 1_555
C7 O2 1_555 1_555
C8 P1 1_555 1_555
C9 C8 1_555 1_555
H6 C9 1_555 1_555
C10 P1 1_555 1_555
C11 C10 1_555 1_555
H7 C11 1_555 1_555
C12 C11 1_555 1_555
H8 C12 1_555 1_555
C13 C12 1_555 1_555
H9 C13 1_555 1_555
C14 C13 1_555 1_555
C15 C10 1_555 1_555
H10 C15 1_555 1_555
C16 C14 1_555 1_555
C17 C9 1_555 1_555
H11 C17 1_555 1_555
C18 C17 1_555 1_555
H12 C18 1_555 1_555
C19 C18 1_555 1_555
C20 C8 1_555 1_555
H13 C20 1_555 1_555
C21 C19 1_555 1_555
C22 H14 1_555 1_555
C23 H15 1_555 1_555
H16 C23 1_555 1_555
C24 C23 1_555 1_555
H17 C24 1_555 1_555
H18 C24 1_555 1_555
H19 C24 1_555 1_555
C25 H20 1_555 1_555
H21 C25 1_555 1_555
C26 C25 1_555 1_555
H22 C26 1_555 1_555
H23 C26 1_555 1_555
H24 C26 1_555 1_555
N1 C22 1_555 1_555
O10 C22 1_555 1_555
Mg1A O8 1_555 1_555
O1A Mg1A 1_555 1_555
O2A H1A 1_555 1_555
O3A C7A 1_555 1_555
O4A C16A 1_555 1_555
O5A C16A 1_555 1_555
O6A C21A 1_555 1_555
O7A C21A 1_555 1_555
O9A Mg1A 1_555 1_555
P1A O1A 1_555 1_555
C1A P1A 1_555 1_555
C2A C1A 1_555 1_555
H2A C2A 1_555 1_555
C3A C2A 1_555 1_555
C4A C3A 1_555 1_555
H3A C4A 1_555 1_555
C5A C4A 1_555 1_555
H4A C5A 1_555 1_555
C6A C1A 1_555 1_555
H5A C6A 1_555 1_555
C7A O2A 1_555 1_555
C8A P1A 1_555 1_555
C9A C8A 1_555 1_555
H6A C9A 1_555 1_555
C10A P1A 1_555 1_555
C11A C10A 1_555 1_555
H7A C11A 1_555 1_555
C12A C11A 1_555 1_555
H8A C12A 1_555 1_555
C13A C12A 1_555 1_555
H9A C13A 1_555 1_555
C14A C13A 1_555 1_555
C15A C10A 1_555 1_555
H10A C15A 1_555 1_555
C16A C14A 1_555 1_555
C17A C9A 1_555 1_555
H11A C17A 1_555 1_555
C18A C17A 1_555 1_555
H12A C18A 1_555 1_555
C19A C18A 1_555 1_555
C20A C8A 1_555 1_555
H13A C20A 1_555 1_555
C21A C19A 1_555 1_555
Mg1D O6A 1_555 1_555
Mg1D_2 O7 1_555 1_555
Mg1D_3 O4 1_555 1_555
Mg1E O7A 1_555 1_555
Mg1E_2 O6 1_555 1_555
Mg1E_3 O4A 1_555 1_555
O4D Mg1 1_555 1_555
O4E Mg1A 1_555 1_555
O6D Mg1A 1_555 1_555
O6E Mg1 1_555 1_555
O7D Mg1 1_555 1_555
O7E Mg1A 1_555 1_555
C3 C7 1_555 1_555
C5 C6 1_555 1_555
C14 C15 1_555 1_555
C19 C20 1_555 1_555
C23 N1 1_555 1_555
C25 N1 1_555 1_555
C3A C7A 1_555 1_555
C5A C6A 1_555 1_555
C14A C15A 1_555 1_555
C19A C20A 1_555 1_555

#END
