
#######################################################################
#
#                 Cambridge Crystallographic Data Centre
#                                CCDC 
#
#######################################################################
#
# If this CIF has been generated from an entry in the Cambridge 
# Structural Database, then it will include bibliographic, chemical, 
# crystal, experimental, refinement or atomic coordinate data resulting 
# from the CCDC's data processing and validation procedures.
#
#######################################################################

data_GULWIU
_chemical_formula_moiety         
'(C33 H38 Cd4 Cl3 N23 O4)n,8n(C3 H7 N1 O1),12n(C1 H4 O1)'
_chemical_name_systematic        
'catena-((\m~4~-4-pyridyltetrazolato)-tris(\m~3~-4-pyridyltetrazolato)-tris(\m~2~-chloro)-tris(dimethylformamide)-hydroxy-tetra-cadmium(ii) dimethylformamide methanol solvent)'
_symmetry_cell_setting           orthorhombic
_symmetry_space_group_name_H-M   'P b c n'
_symmetry_Int_Tables_number      60
_space_group_name_Hall           '-P 2n 2ab'
loop_
_symmetry_equiv_pos_site_id
_symmetry_equiv_pos_as_xyz
1 x,y,z
2 1/2-x,1/2-y,1/2+z
3 -x,y,1/2-z
4 1/2+x,1/2-y,-z
5 -x,-y,-z
6 1/2+x,1/2+y,1/2-z
7 x,-y,1/2+z
8 1/2-x,1/2+y,z
_cell_length_a                   35.5933(10)
_cell_length_b                   20.8616(6)
_cell_length_c                   22.2038(6)
_cell_angle_alpha                90
_cell_angle_beta                 90
_cell_angle_gamma                90
_cell_volume                     16487.1
_exptl_crystal_colour            colorless
_exptl_crystal_description       plate
_cell_formula_units_Z            8
loop_
_atom_site_label
_atom_site_type_symbol
_atom_site_fract_x
_atom_site_fract_y
_atom_site_fract_z
Cd1 Cd 0.08200(2) 0.59534(4) 0.36581(5)
Cd2 Cd 0.156497(17) 0.73077(3) 0.38184(3)
Cd3 Cd -0.165250(17) 0.85614(3) 0.24286(3)
Cd4 Cd -0.091940(18) 0.84850(3) 0.36657(3)
Cl1 Cl 0.09860(7) 0.68755(13) 0.44055(11)
Cl2 Cl 0.20803(6) 0.76926(12) 0.30445(11)
Cl3 Cl -0.11483(6) 0.93276(11) 0.28756(10)
O1 O 0.0740(4) 0.5168(6) 0.4420(7)
O2 O 0.0699(3) 0.5145(5) 0.2971(5)
O3 O -0.03053(18) 0.8730(3) 0.3435(3)
O4 O -0.0711(2) 0.7730(4) 0.4400(4)
N1 N 0.1426(3) 0.5814(4) 0.3455(5)
N2 N 0.1688(2) 0.6254(4) 0.3562(4)
N3 N 0.1608(3) 0.5271(5) 0.3203(5)
N4 N 0.2031(2) 0.6045(4) 0.3404(4)
N5 N 0.2876(3) 0.4284(5) 0.2622(4)
N6 N 0.1413(2) 0.8359(4) 0.3964(3)
N7 N 0.1455(2) 0.8803(4) 0.3544(4)
N8 N 0.1363(2) 0.9375(5) 0.3770(4)
N9 N 0.1280(2) 0.8638(5) 0.4482(4)
N10 N 0.0959(2) 1.0697(5) 0.5598(4)
N11 N -0.1165(2) 0.7288(4) 0.2077(3)
N12 N -0.1167(2) 0.7763(3) 0.2460(3)
N13 N -0.09035(19) 0.7663(4) 0.2864(3)
N14 N -0.08907(19) 0.6867(4) 0.2228(4)
N15 N 0.0215(2) 0.6286(4) 0.3537(4)
N16 N 0.3208(2) 0.6763(4) 0.6608(4)
N17 N 0.3447(2) 0.6813(4) 0.6171(4)
N18 N 0.3274(2) 0.6917(4) 0.5634(4)
N19 N 0.2857(2) 0.6883(4) 0.6386(4)
N20 N 0.2032(2) 0.7256(4) 0.4553(4)
C1 C 0.1966(3) 0.5455(5) 0.3196(5)
C2 C 0.2271(3) 0.5071(4) 0.2985(5)
C3 C 0.2209(3) 0.4484(6) 0.2694(5)
H1 H 0.1960 0.4340 0.2621
C4 C 0.2642(3) 0.5257(5) 0.3073(6)
H2 H 0.2700 0.5659 0.3251
C5 C 0.2933(3) 0.4828(6) 0.2889(6)
H3 H 0.3185 0.4949 0.2968
C6 C 0.2512(3) 0.4115(5) 0.2513(5)
H4 H 0.2464 0.3726 0.2303
C7 C 0.1258(3) 0.9260(5) 0.4334(5)
C8 C 0.1146(2) 0.9770(4) 0.4775(4)
C9 C 0.1172(4) 1.0401(6) 0.4597(5)
H5 H 0.1257 1.0521 0.4207
C10 C 0.1026(3) 0.9595(5) 0.5341(4)
H6 H 0.0998 0.9158 0.5452
C11 C 0.0947(3) 1.0086(6) 0.5743(5)
H7 H 0.0880 0.9976 0.6144
C12 C 0.1064(4) 1.0855(6) 0.5031(5)
H8 H 0.1064 1.1295 0.4921
C13 C -0.0736(2) 0.7101(4) 0.2708(3)
C14 C -0.0427(2) 0.6813(4) 0.3028(4)
C15 C -0.0156(2) 0.7201(4) 0.3314(4)
H9 H -0.0191 0.7652 0.3334
C16 C -0.0365(2) 0.6155(4) 0.3035(4)
H10 H -0.0542 0.5870 0.2860
C17 C -0.0047(3) 0.5925(5) 0.3297(5)
H11 H -0.0012 0.5473 0.3306
C18 C 0.0155(3) 0.6927(5) 0.3559(4)
H12 H 0.0336 0.7193 0.3750
C19 C 0.2921(3) 0.6980(5) 0.5797(4)
C20 C 0.2613(3) 0.7078(5) 0.5377(4)
C21 C 0.2673(3) 0.6943(7) 0.4744(5)
H13 H 0.2904 0.6779 0.4594
C22 C 0.2253(3) 0.7261(7) 0.5565(5)
H14 H 0.2199 0.7327 0.5980
C23 C 0.1977(3) 0.7341(7) 0.5131(6)
H15 H 0.1733 0.7466 0.5260
C24 C 0.2364(3) 0.7074(6) 0.4369(5)
H16 H 0.2400 0.7025 0.3948
N11B N 0.1165(2) 0.7288(4) 0.2923(3)
Cl2B Cl -0.20803(6) 0.76926(12) 0.19555(11)
N5E N -0.2124(3) 0.9284(5) 0.2378(4)
N16C N -0.1792(2) 0.8237(4) 0.3392(4)
N7B N -0.1455(2) 0.8803(4) 0.1456(4)
N10D N -0.0959(2) 0.9303(5) 0.4402(4)
N17C N -0.1553(2) 0.8187(4) 0.3829(4)
Cd3B Cd 0.165250(17) 0.85614(3) 0.25714(3)
Cd3E Cd 0.334750(17) 0.35614(3) 0.25714(3)
Cd4D Cd 0.091940(18) 1.15150(3) 0.63343(3)
Cd2B Cd -0.156497(17) 0.73077(3) 0.11816(3)
Cd3C Cd 0.334750(17) 0.64386(3) 0.75714(3)
Cd4C Cd 0.408060(18) 0.65150(3) 0.63343(3)
loop_
_geom_bond_atom_site_label_1
_geom_bond_atom_site_label_2
_geom_bond_site_symmetry_1
_geom_bond_site_symmetry_2
Cd1 Cl1 1_555 1_555
Cd2 Cl1 1_555 1_555
Cd3 Cl3 1_555 1_555
Cd4 Cl3 1_555 1_555
Cl2 Cd2 1_555 1_555
O1 Cd1 1_555 1_555
O2 Cd1 1_555 1_555
O3 Cd4 1_555 1_555
O4 Cd4 1_555 1_555
N1 Cd1 1_555 1_555
N2 Cd2 1_555 1_555
N3 N1 1_555 1_555
N4 N2 1_555 1_555
N5 C5 1_555 1_555
N6 Cd2 1_555 1_555
N7 N6 1_555 1_555
N8 N7 1_555 1_555
N9 N6 1_555 1_555
N10 C11 1_555 1_555
N11 N12 1_555 1_555
N12 Cd3 1_555 1_555
N13 Cd4 1_555 1_555
N14 N11 1_555 1_555
N15 Cd1 1_555 1_555
N16 N17 1_555 1_555
N17 N18 1_555 1_555
N18 C19 1_555 1_555
N19 N16 1_555 1_555
N20 Cd2 1_555 1_555
C1 N3 1_555 1_555
C2 C1 1_555 1_555
C3 C2 1_555 1_555
H1 C3 1_555 1_555
C4 C2 1_555 1_555
H2 C4 1_555 1_555
C5 C4 1_555 1_555
H3 C5 1_555 1_555
C6 N5 1_555 1_555
H4 C6 1_555 1_555
C7 N8 1_555 1_555
C8 C7 1_555 1_555
C9 C8 1_555 1_555
H5 C9 1_555 1_555
C10 C8 1_555 1_555
H6 C10 1_555 1_555
C11 C10 1_555 1_555
H7 C11 1_555 1_555
C12 N10 1_555 1_555
H8 C12 1_555 1_555
C13 N13 1_555 1_555
C14 C13 1_555 1_555
C15 C14 1_555 1_555
H9 C15 1_555 1_555
C16 C14 1_555 1_555
H10 C16 1_555 1_555
C17 N15 1_555 1_555
H11 C17 1_555 1_555
C18 N15 1_555 1_555
H12 C18 1_555 1_555
C19 N19 1_555 1_555
C20 C19 1_555 1_555
C21 C20 1_555 1_555
H13 C21 1_555 1_555
C22 C20 1_555 1_555
H14 C22 1_555 1_555
C23 N20 1_555 1_555
H15 C23 1_555 1_555
C24 N20 1_555 1_555
H16 C24 1_555 1_555
N11B Cd2 1_555 1_555
Cl2B Cd3 1_555 1_555
N5E Cd3 1_555 1_555
N16C Cd3 1_555 1_555
N7B Cd3 1_555 1_555
N10D Cd4 1_555 1_555
N17C Cd4 1_555 1_555
Cd3B Cl2 1_555 1_555
Cd3E N5 1_555 1_555
Cd4D N10 1_555 1_555
Cd2B N11 1_555 1_555
Cd3C N16 1_555 1_555
Cd4C N17 1_555 1_555
N1 N2 1_555 1_555
N4 C1 1_555 1_555
N7 Cd3B 1_555 1_555
N9 C7 1_555 1_555
N12 N13 1_555 1_555
N14 C13 1_555 1_555
C3 C6 1_555 1_555
C9 C12 1_555 1_555
C15 C18 1_555 1_555
C16 C17 1_555 1_555
C21 C24 1_555 1_555
C22 C23 1_555 1_555
Cl2B Cd2B 1_555 1_555
N16C N17C 1_555 1_555

#END
