
#######################################################################
#
#                 Cambridge Crystallographic Data Centre
#                                CCDC 
#
#######################################################################
#
# If this CIF has been generated from an entry in the Cambridge 
# Structural Database, then it will include bibliographic, chemical, 
# crystal, experimental, refinement or atomic coordinate data resulting 
# from the CCDC's data processing and validation procedures.
#
#######################################################################

data_GULWOA
_chemical_formula_moiety         '(C30 H34 Cd5 Cl6 N22 O4)n,10n(C3 H7 N1 O1)'
_chemical_name_systematic        
'catena-(bis(\m~4~-4-pyridyltetrazolato)-hexakis(\m~3~-4-pyridyltetrazolato)-hexakis(\m~2~-chloro)-bis(dimethylformamide)-diaqua-penta-cadmium(ii) dimethylformamide solvent)'
_symmetry_cell_setting           monoclinic
_symmetry_space_group_name_H-M   'C 2/c'
_symmetry_Int_Tables_number      15
_space_group_name_Hall           '-C 2yc'
loop_
_symmetry_equiv_pos_site_id
_symmetry_equiv_pos_as_xyz
1 x,y,z
2 -x,y,1/2-z
3 1/2+x,1/2+y,z
4 1/2-x,1/2+y,1/2-z
5 -x,-y,-z
6 x,-y,1/2+z
7 1/2-x,1/2-y,-z
8 1/2+x,1/2-y,1/2+z
_cell_length_a                   29.728(5)
_cell_length_b                   12.530(2)
_cell_length_c                   20.920(4)
_cell_angle_alpha                90
_cell_angle_beta                 114.847(4)
_cell_angle_gamma                90
_cell_volume                     7071.2
_exptl_crystal_colour            colorless
_exptl_crystal_description       plate
_cell_formula_units_Z            4
loop_
_atom_site_label
_atom_site_type_symbol
_atom_site_fract_x
_atom_site_fract_y
_atom_site_fract_z
Cd1 Cd 0.24975(4) 1.11708(7) 0.23966(5)
Cd2 Cd 0.24513(4) 1.39305(7) 0.15466(5)
Cd3 Cd 0.5000 1.0000 0.0000
Cl1 Cl 0.18546(13) 1.2280(2) 0.13232(17)
Cl2 Cl 0.32301(14) 1.0275(3) 0.34932(18)
Cl3 Cl 0.18653(13) 1.0422(3) 0.28246(18)
O1 O 0.5324(5) 0.8765(10) 0.0870(8)
O2 O 0.5502(6) 1.1385(13) 0.0711(10)
N1 N 0.2437(4) 0.9466(7) 0.1819(5)
N2 N 0.2411(4) 0.8688(8) 0.2233(6)
N3 N 0.2416(4) 0.7740(8) 0.1949(5)
N4 N 0.2443(4) 0.7876(8) 0.1334(5)
N5 N 0.2603(4) 1.0440(8) -0.0476(5)
N6 N 0.3328(4) 1.2588(8) 0.1284(6)
N7 N 0.3039(4) 1.2620(8) 0.1648(5)
N8 N 0.3078(4) 1.1689(8) 0.1976(5)
N9 N 0.3387(5) 1.1045(8) 0.1848(6)
N10 N 0.4425(5) 1.0430(11) 0.0416(8)
N11 N 0.5897(5) 0.8144(11) 0.1902(8)
C1 C 0.2467(6) 0.8983(10) 0.1255(8)
C2 C 0.2514(5) 0.9462(10) 0.0678(6)
C3 C 0.2368(5) 1.0504(10) 0.0484(6)
H1 H 0.2230 1.0910 0.0740
C4 C 0.2423(4) 1.0957(9) -0.0079(6)
H2 H 0.2327 1.1681 -0.0190
C5 C 0.2740(6) 0.9419(10) -0.0312(7)
H3 H 0.2862 0.9021 -0.0593
C6 C 0.2706(6) 0.8934(11) 0.0268(7)
H4 H 0.2818 0.8220 0.0384
C7 C 0.3526(5) 1.1607(11) 0.1426(7)
C8 C 0.3840(6) 1.1212(12) 0.1083(9)
C9 C 0.4065(7) 1.0231(13) 0.1237(10)
H5 H 0.4020 0.9775 0.1568
C10 C 0.3881(7) 1.1774(14) 0.0561(9)
H6 H 0.3712 1.2434 0.0414
C11 C 0.4179(7) 1.1375(15) 0.0233(10)
H7 H 0.4208 1.1785 -0.0130
C12 C 0.4358(7) 0.9918(14) 0.0904(11)
H8 H 0.4528 0.9258 0.1049
C13 C 0.5697(7) 0.8879(15) 0.1446(11)
H9 H 0.5843 0.9568 0.1551
C14 C 0.6318(6) 0.8282(13) 0.2589(9)
H10 H 0.6428 0.9027 0.2645
H11 H 0.6591 0.7818 0.2616
H12 H 0.6218 0.8091 0.2964
C15 C 0.5724(8) 0.7031(16) 0.1736(14)
H13 H 0.5362 0.7010 0.1554
H14 H 0.5870 0.6596 0.2163
H15 H 0.5825 0.6749 0.1379
Cd1D Cd 0.75025(4) 0.88292(7) -0.23966(5)
Cd1C Cd 0.25025(4) 0.61708(7) 0.26034(5)
Cd1C_2 Cd 0.25025(4) 1.61708(7) 0.26034(5)
Cd2D Cd 0.75487(4) 0.60695(7) -0.15466(5)
Cd2C Cd 0.25487(4) 0.89305(7) 0.34534(5)
Cd2F Cd 0.25487(4) 1.10695(7) -0.15466(5)
Cd2E Cd 0.24513(4) 1.60695(7) 0.65466(5)
Cl1D Cl 0.81454(13) 0.7720(2) -0.13232(17)
Cl2C Cl 0.17699(14) 1.5275(3) 0.15068(18)
Cl2D Cl 0.67699(14) 0.9725(3) -0.34932(18)
Cl2G Cl 0.82301(14) 0.4725(3) -0.15068(18)
Cl3C Cl 0.31347(13) 1.5422(3) 0.21754(18)
Cl3D Cl 0.81347(13) 0.9578(3) -0.28246(18)
Cl3G Cl 0.68653(13) 0.4578(3) -0.21754(18)
O1D O 0.4676(5) 1.1235(10) -0.0870(8)
O2D O 0.4498(6) 0.8615(13) -0.0711(10)
N1C N 0.2563(4) 1.4466(7) 0.3181(5)
N1D N 0.7563(4) 1.0534(7) -0.1819(5)
N2C N 0.2589(4) 1.3688(8) 0.2767(6)
N2G N 0.7411(4) 0.6312(8) -0.2767(6)
N3C N 0.2584(4) 1.2740(8) 0.3051(5)
N3G N 0.7416(4) 0.7260(8) -0.3051(5)
N4C N 0.2557(4) 1.2876(8) 0.3666(5)
N5C N 0.2397(4) 1.5440(8) 0.5476(5)
N5F N 0.2397(4) 1.4560(8) 0.0476(5)
N5B N 0.7603(4) 0.5440(8) -0.0476(5)
N6D N 0.6672(4) 0.7412(8) -0.1284(6)
N7D N 0.6961(4) 0.7380(8) -0.1648(5)
N8D N 0.6922(4) 0.8311(8) -0.1976(5)
N9D N 0.6613(5) 0.8955(8) -0.1848(6)
N10D N 0.5575(5) 0.9570(11) -0.0416(8)
N11D N 0.4103(5) 1.1856(11) -0.1902(8)
C1C C 0.2533(6) 1.3983(10) 0.3745(8)
C2C C 0.2486(5) 1.4462(10) 0.4322(6)
C3C C 0.2632(5) 1.5504(10) 0.4516(6)
H1C H 0.2770 1.5910 0.4260
C4C C 0.2577(4) 1.5957(9) 0.5079(6)
H2C H 0.2673 1.6681 0.5190
C5C C 0.2260(6) 1.4419(10) 0.5312(7)
H3C H 0.2138 1.4021 0.5593
C6C C 0.2294(6) 1.3934(11) 0.4732(7)
H4C H 0.2182 1.3220 0.4616
C7D C 0.6474(5) 0.8393(11) -0.1426(7)
C8D C 0.6160(6) 0.8788(12) -0.1083(9)
C9D C 0.5935(7) 0.9769(13) -0.1237(10)
H5D H 0.5980 1.0225 -0.1568
C10D C 0.6119(7) 0.8226(14) -0.0561(9)
H6D H 0.6288 0.7566 -0.0414
C11D C 0.5821(7) 0.8625(15) -0.0233(10)
H7D H 0.5792 0.8215 0.0130
C12D C 0.5642(7) 1.0082(14) -0.0904(11)
H8D H 0.5472 1.0742 -0.1049
C13D C 0.4303(7) 1.1121(15) -0.1446(11)
H9D H 0.4157 1.0432 -0.1551
C14D C 0.3682(6) 1.1718(13) -0.2589(9)
H10D H 0.3572 1.0973 -0.2645
H11D H 0.3409 1.2182 -0.2616
H12D H 0.3782 1.1909 -0.2964
C15D C 0.4276(8) 1.2969(16) -0.1736(14)
H13D H 0.4638 1.2990 -0.1554
H14D H 0.4130 1.3404 -0.2163
H15D H 0.4175 1.3251 -0.1379
loop_
_geom_bond_atom_site_label_1
_geom_bond_atom_site_label_2
_geom_bond_site_symmetry_1
_geom_bond_site_symmetry_2
Cd1 Cl1 1_555 1_555
Cd2 Cl1 1_555 1_555
Cd3 O1 1_555 1_555
Cl2 Cd1 1_555 1_555
Cl3 Cd1 1_555 1_555
O1 C13 1_555 1_555
O2 Cd3 1_555 1_555
N1 Cd1 1_555 1_555
N2 N1 1_555 1_555
N3 N2 1_555 1_555
N4 N3 1_555 1_555
N5 C4 1_555 1_555
N6 N7 1_555 1_555
N7 Cd2 1_555 1_555
N8 Cd1 1_555 1_555
N9 N8 1_555 1_555
N10 Cd3 1_555 1_555
N11 C13 1_555 1_555
C1 N1 1_555 1_555
C2 C1 1_555 1_555
C3 C2 1_555 1_555
H1 C3 1_555 1_555
C4 C3 1_555 1_555
H2 C4 1_555 1_555
C5 N5 1_555 1_555
H3 C5 1_555 1_555
C6 C2 1_555 1_555
H4 C6 1_555 1_555
C7 N6 1_555 1_555
C8 C7 1_555 1_555
C9 C8 1_555 1_555
H5 C9 1_555 1_555
C10 C8 1_555 1_555
H6 C10 1_555 1_555
C11 N10 1_555 1_555
H7 C11 1_555 1_555
C12 N10 1_555 1_555
H8 C12 1_555 1_555
C13 H9 1_555 1_555
C14 N11 1_555 1_555
H10 C14 1_555 1_555
H11 C14 1_555 1_555
H12 C14 1_555 1_555
C15 N11 1_555 1_555
H13 C15 1_555 1_555
H14 C15 1_555 1_555
H15 C15 1_555 1_555
Cd1D Cl1D 1_555 1_555
Cd1C N3 1_555 1_555
Cd1C_2 Cl2C 1_555 1_555
Cd2D Cl1D 1_555 1_555
Cd2C Cl2 1_555 1_555
Cd2F N5 1_555 1_555
Cd2E N5C 1_555 1_555
Cl2C Cd2 1_555 1_555
Cl2D Cd1D 1_555 1_555
Cl2G Cd2D 1_555 1_555
Cl3C Cd2 1_555 1_555
Cl3D Cd1D 1_555 1_555
Cl3G Cd2D 1_555 1_555
O1D Cd3 1_555 1_555
O2D Cd3 1_555 1_555
N1C Cd1C_2 1_555 1_555
N1D Cd1D 1_555 1_555
N2C Cd2 1_555 1_555
N2G Cd2D 1_555 1_555
N3C Cd1 1_555 1_555
N3G Cd1D 1_555 1_555
N4C N3C 1_555 1_555
N5C C4C 1_555 1_555
N5F Cd2 1_555 1_555
N5B Cd2D 1_555 1_555
N6D N7D 1_555 1_555
N7D Cd2D 1_555 1_555
N8D Cd1D 1_555 1_555
N9D N8D 1_555 1_555
N10D Cd3 1_555 1_555
N11D C13D 1_555 1_555
C1C N1C 1_555 1_555
C2C C1C 1_555 1_555
C3C C2C 1_555 1_555
H1C C3C 1_555 1_555
C4C C3C 1_555 1_555
H2C C4C 1_555 1_555
C5C N5C 1_555 1_555
H3C C5C 1_555 1_555
C6C C2C 1_555 1_555
H4C C6C 1_555 1_555
C7D N6D 1_555 1_555
C8D C7D 1_555 1_555
C9D C8D 1_555 1_555
H5D C9D 1_555 1_555
C10D C8D 1_555 1_555
H6D C10D 1_555 1_555
C11D N10D 1_555 1_555
H7D C11D 1_555 1_555
C12D N10D 1_555 1_555
H8D C12D 1_555 1_555
C13D O1D 1_555 1_555
H9D C13D 1_555 1_555
C14D N11D 1_555 1_555
H10D C14D 1_555 1_555
H11D C14D 1_555 1_555
H12D C14D 1_555 1_555
C15D N11D 1_555 1_555
H13D C15D 1_555 1_555
H14D C15D 1_555 1_555
H15D C15D 1_555 1_555
Cl3 Cd2C 1_555 1_555
N2 Cd2C 1_555 1_555
N4 C1 1_555 1_555
N7 N8 1_555 1_555
N9 C7 1_555 1_555
C5 C6 1_555 1_555
C9 C12 1_555 1_555
C10 C11 1_555 1_555
Cd1C_2 Cl3C 1_555 1_555
N1C N2C 1_555 1_555
N2C N3C 1_555 1_555
N2G N3G 1_555 1_555
N4C C1C 1_555 1_555
N7D N8D 1_555 1_555
N9D C7D 1_555 1_555
C5C C6C 1_555 1_555
C9D C12D 1_555 1_555
C10D C11D 1_555 1_555

#END
