
#######################################################################
#
#                 Cambridge Crystallographic Data Centre
#                                CCDC 
#
#######################################################################
#
# If this CIF has been generated from an entry in the Cambridge 
# Structural Database, then it will include bibliographic, chemical, 
# crystal, experimental, refinement or atomic coordinate data resulting 
# from the CCDC's data processing and validation procedures.
#
#######################################################################

data_IBICAZ
_chemical_formula_moiety         '(C11 H15 Cl1 N2 O2 Zn1)n,2n(H2 O1)'
_chemical_name_systematic        
'catena-((\m~3~-3-Methyl-2-(pyridin-4-ylmethylamino)butanoato)-chloro-zinc dihydrate)'
_symmetry_cell_setting           hexagonal
_symmetry_space_group_name_H-M   'P 61'
_symmetry_Int_Tables_number      169
_space_group_name_Hall           'P 61'
loop_
_symmetry_equiv_pos_site_id
_symmetry_equiv_pos_as_xyz
1 x,y,z
2 x-y,x,1/6+z
3 -y,x-y,1/3+z
4 -x,-y,1/2+z
5 -x+y,-x,2/3+z
6 y,-x+y,5/6+z
_cell_length_a                   17.691(2)
_cell_length_b                   17.691(2)
_cell_length_c                   10.5617(12)
_cell_angle_alpha                90
_cell_angle_beta                 90
_cell_angle_gamma                120
_cell_volume                     2862.66
_exptl_crystal_colour            colorless
_exptl_crystal_description       rod
_cell_formula_units_Z            6
loop_
_atom_site_label
_atom_site_type_symbol
_atom_site_fract_x
_atom_site_fract_y
_atom_site_fract_z
_atom_site_U_iso_or_equiv
_atom_site_thermal_displace_type
Zn1 Zn 0.45961(2) 0.53061(2) 0.11764(4) 0.0291 Uani
Cl1 Cl 0.54491(9) 0.67598(7) 0.11882(12) 0.0697 Uani
O1 O 0.48509(14) 0.51151(15) 0.3120(2) 0.0354 Uani
O2 O 0.56639(18) 0.47247(19) 0.4235(2) 0.0455 Uani
N1 N 0.48480(18) 0.1549(2) -0.0109(2) 0.0370 Uani
N2 N 0.49753(16) 0.43686(15) 0.0968(2) 0.0273 Uani
H1 H 0.5311 0.4499 0.0260 0.0330 Uiso
C1 C 0.5029(2) 0.2207(3) -0.0925(3) 0.0508 Uani
H2 H 0.5321 0.2243 -0.1674 0.0610 Uiso
C2 C 0.4413(2) 0.1506(2) 0.0946(3) 0.0425 Uani
H3 H 0.4275 0.1048 0.1503 0.0510 Uiso
C3 C 0.4158(2) 0.2101(2) 0.1257(3) 0.0438 Uani
H4 H 0.3855 0.2041 0.2005 0.0530 Uiso
C4 C 0.4356(2) 0.2791(2) 0.0446(3) 0.0380 Uani
C5 C 0.4795(2) 0.2829(3) -0.0680(3) 0.0553 Uani
H5 H 0.4928 0.3273 -0.1261 0.0660 Uiso
C6 C 0.4167(2) 0.3509(2) 0.0770(3) 0.0369 Uani
H6 H 0.3829 0.3564 0.0092 0.0440 Uiso
H7 H 0.3816 0.3351 0.1534 0.0440 Uiso
C7 C 0.53190(18) 0.47780(19) 0.3231(3) 0.0281 Uani
C8 C 0.54949(18) 0.4361(2) 0.2062(3) 0.0296 Uani
H8 H 0.5294 0.3750 0.2269 0.0350 Uiso
C9 C 0.6474(2) 0.4804(3) 0.1800(3) 0.0410 Uani
H9 H 0.6756 0.4810 0.2602 0.0490 Uiso
C10 C 0.6858(3) 0.5741(3) 0.1390(5) 0.0646 Uani
H10 H 0.7458 0.5969 0.1155 0.0960 Uiso
H11 H 0.6824 0.6078 0.2076 0.0960 Uiso
H12 H 0.6538 0.5772 0.0677 0.0960 Uiso
C11 C 0.6707(3) 0.4297(4) 0.0845(4) 0.0644 Uani
H13 H 0.6476 0.4310 0.0028 0.0970 Uiso
H14 H 0.6461 0.3702 0.1121 0.0970 Uiso
H15 H 0.7330 0.4561 0.0790 0.0970 Uiso
Zn1C Zn 0.54039(2) 0.46939(2) 0.61764(4) 0.0291 Uani
Zn1E Zn 0.53061(2) 0.07100(3) -0.04903(4) 0.0291 Uani
O2C O 0.43361(18) 0.52753(19) -0.0765(2) 0.0455 Uani
N1A N 0.32990(27) 0.48480(18) 0.1558(2) 0.0370 Uani
O3 O 0.3259(7) 0.2705(6) 0.3866(7) 0.1768 Uani
O4 O 0.1533(15) 0.2143(8) 0.518(2) 0.3980 Uani
loop_
_atom_site_aniso_label
_atom_site_aniso_U_11
_atom_site_aniso_U_22
_atom_site_aniso_U_33
_atom_site_aniso_U_23
_atom_site_aniso_U_13
_atom_site_aniso_U_12
Zn1 0.03849(18) 0.03988(19) 0.02197(16) -0.00070(12) -0.00046(12) 0.02941(15)
Cl1 0.0976(8) 0.0527(5) 0.0609(6) -0.0001(5) -0.0028(6) 0.0391(5)
O1 0.0456(11) 0.0521(12) 0.0246(11) -0.0053(8) -0.0034(8) 0.0364(10)
O2 0.0573 0.0848 0.0205 -0.0042 -0.0064 0.0552
N1 0.0596 0.0276 0.0263 0.0007 -0.0004 0.0237
N2 0.0388(11) 0.0375(11) 0.0160(10) -0.0027(8) -0.0025(8) 0.0269(10)
C1 0.097 0.0409 0.0272 0.0057 0.0122 0.044
C2 0.066 0.0321 0.0311 0.0043 0.0064 0.0257
C3 0.0617 0.0405 0.0337 0.0043 0.0095 0.029
C4 0.0537 0.034 0.0301 -0.0024 -0.0074 0.0248
C5 0.115 0.0425 0.0278 0.0053 0.0078 0.054
C6 0.0406(15) 0.0382(14) 0.0396(16) -0.0047(12) -0.0071(12) 0.0255(12)
C7 0.0332(13) 0.0381(14) 0.0191(13) 0.0014(9) 0.0015(9) 0.0223(11)
C8 0.0409(14) 0.0426(14) 0.0195(12) -0.0034(10) -0.0039(10) 0.0316(12)
C9 0.0394(15) 0.068(2) 0.0284(15) -0.0033(14) -0.0003(12) 0.0364(16)
C10 0.0443(19) 0.070(3) 0.072(3) 0.006(2) 0.0118(19) 0.0229(18)
C11 0.063(2) 0.108(3) 0.048(2) -0.017(2) 0.0017(18) 0.062(3)
Zn1C 0.03849 0.03988 0.02197 0.0007 0.00046 0.02941
Zn1E 0.03988 0.01955 0.02197 -0.00024 -0.0007 0.01047
O2C 0.0573 0.0848 0.0205 0.0042 0.0064 0.0552
N1A 0.0398 0.0596 0.0263 -0.0004 -0.0011 0.0359
O3 0.276(11) 0.211(8) 0.113(5) -0.031(5) -0.063(6) 0.174(8)
O4 0.41(3) 0.155(9) 0.49(4) 0.013(14) 0.22(3) 0.037(13)
loop_
_geom_bond_atom_site_label_1
_geom_bond_atom_site_label_2
_geom_bond_site_symmetry_1
_geom_bond_site_symmetry_2
Zn1 Cl1 1_555 1_555
O1 Zn1 1_555 1_555
O2 C7 1_555 1_555
N1 C1 1_555 1_555
N2 Zn1 1_555 1_555
H1 N2 1_555 1_555
C1 H2 1_555 1_555
C2 N1 1_555 1_555
H3 C2 1_555 1_555
C3 C2 1_555 1_555
H4 C3 1_555 1_555
C4 C3 1_555 1_555
C5 C1 1_555 1_555
H5 C5 1_555 1_555
C6 N2 1_555 1_555
H6 C6 1_555 1_555
H7 C6 1_555 1_555
C7 O1 1_555 1_555
C8 N2 1_555 1_555
H8 C8 1_555 1_555
C9 C8 1_555 1_555
H9 C9 1_555 1_555
C10 C9 1_555 1_555
H10 C10 1_555 1_555
H11 C10 1_555 1_555
H12 C10 1_555 1_555
C11 C9 1_555 1_555
H13 C11 1_555 1_555
H14 C11 1_555 1_555
H15 C11 1_555 1_555
Zn1C O2 1_555 1_555
Zn1E N1 1_555 1_555
O2C Zn1 1_555 1_555
N1A Zn1 1_555 1_555
C4 C5 1_555 1_555
C4 C6 1_555 1_555
C7 C8 1_555 1_555

#END
