
#######################################################################
#
#                 Cambridge Crystallographic Data Centre
#                                CCDC 
#
#######################################################################
#
# If this CIF has been generated from an entry in the Cambridge 
# Structural Database, then it will include bibliographic, chemical, 
# crystal, experimental, refinement or atomic coordinate data resulting 
# from the CCDC's data processing and validation procedures.
#
#######################################################################

data_IBICIH
_chemical_formula_moiety         '(C11 H15 Cl1 N2 O2 Zn1)n,2n(H2 O1)'
_chemical_name_systematic        
'catena-((\m~3~-3-Methyl-2-(pyridin-4-ylmethylamino)butanoato)-chloro-zinc dihydrate)'
_symmetry_cell_setting           hexagonal
_symmetry_space_group_name_H-M   'P 65'
_symmetry_Int_Tables_number      170
_space_group_name_Hall           'P 65'
loop_
_symmetry_equiv_pos_site_id
_symmetry_equiv_pos_as_xyz
1 x,y,z
2 x-y,x,5/6+z
3 -y,x-y,2/3+z
4 -x,-y,1/2+z
5 -x+y,-x,1/3+z
6 y,-x+y,1/6+z
_cell_length_a                   17.703(2)
_cell_length_b                   17.703(2)
_cell_length_c                   10.585(5)
_cell_angle_alpha                90
_cell_angle_beta                 90
_cell_angle_gamma                120
_cell_volume                     2872.87
_exptl_crystal_colour            colorless
_exptl_crystal_description       rod
_cell_formula_units_Z            6
loop_
_atom_site_label
_atom_site_type_symbol
_atom_site_fract_x
_atom_site_fract_y
_atom_site_fract_z
_atom_site_U_iso_or_equiv
_atom_site_thermal_displace_type
Zn1 Zn 0.45986(3) 0.53095(3) 0.98054(5) 0.0264 Uani
Cl1 Cl 0.54560(11) 0.67676(9) 0.97990(15) 0.0602 Uani
O1 O 0.5662(2) 0.4725(3) 0.6747(3) 0.0412 Uani
O2 O 0.4851(2) 0.5118(2) 0.7863(3) 0.0318 Uani
N1 N 0.4848(2) 0.1545(3) 1.1090(3) 0.0333 Uani
N2 N 0.4974(2) 0.4368(2) 1.0016(3) 0.0238 Uani
H1 H 0.5310 0.4497 1.0723 0.0290 Uiso
C1 C 0.5319(3) 0.4781(3) 0.7752(4) 0.0257 Uani
C2 C 0.4170(3) 0.3515(3) 1.0213(4) 0.0341 Uani
H2 H 0.3818 0.3359 0.9451 0.0410 Uiso
H3 H 0.3833 0.3571 1.0892 0.0410 Uiso
C3 C 0.4353(3) 0.2792(3) 1.0532(4) 0.0351 Uani
C4 C 0.4802(5) 0.2837(3) 1.1669(4) 0.0511 Uani
H4 H 0.4935 0.3281 1.2249 0.0610 Uiso
C5 C 0.4162(3) 0.2106(3) 0.9726(5) 0.0403 Uani
H5 H 0.3865 0.2047 0.8975 0.0490 Uiso
C6 C 0.4416(3) 0.1507(3) 1.0045(4) 0.0397 Uani
H6 H 0.4275 0.1048 0.9490 0.0470 Uiso
C7 C 0.5038(4) 0.2218(4) 1.1903(4) 0.0477 Uani
H7 H 0.5340 0.2260 1.2643 0.0570 Uiso
C8 C 0.5499(3) 0.4363(3) 0.8915(4) 0.0264 Uani
H8 H 0.5298 0.3752 0.8706 0.0320 Uiso
C9 C 0.6477(3) 0.4805(3) 0.9187(4) 0.0374 Uani
H9 H 0.6759 0.4811 0.8387 0.0450 Uiso
C10 C 0.6703(4) 0.4285(5) 1.0126(5) 0.0571 Uani
H10 H 0.6430 0.4251 1.0924 0.0860 Uiso
H11 H 0.7324 0.4573 1.0236 0.0860 Uiso
H12 H 0.6496 0.3708 0.9804 0.0860 Uiso
C11 C 0.6855(4) 0.5744(4) 0.9580(6) 0.0587 Uani
H13 H 0.6537 0.5777 1.0292 0.0880 Uiso
H14 H 0.6811 0.6073 0.8890 0.0880 Uiso
H15 H 0.7456 0.5981 0.9807 0.0880 Uiso
Zn1C Zn 0.54014(3) 0.46905(3) 0.48054(5) 0.0264 Uani
Zn1E Zn 0.53095(3) 0.07109(4) 1.14721(5) 0.0264 Uani
O1C O 0.4338(2) 0.5275(3) 1.1747(3) 0.0412 Uani
N1A N 0.3303(4) 0.4848(2) 0.9423(3) 0.0333 Uani
O3 O 0.3259(7) 0.2715(7) 0.7131(8) 0.1386 Uani
O4 O 0.2155(10) 0.0590(17) 0.750(2) 0.3433 Uani
loop_
_atom_site_aniso_label
_atom_site_aniso_U_11
_atom_site_aniso_U_22
_atom_site_aniso_U_33
_atom_site_aniso_U_23
_atom_site_aniso_U_13
_atom_site_aniso_U_12
Zn1 0.0350(3) 0.0360(3) 0.02007(19) 0.00062(18) 0.00034(17) 0.0267(2)
Cl1 0.0844(10) 0.0436(6) 0.0543(7) -0.0010(6) 0.0020(7) 0.0332(7)
O1 0.0519 0.078 0.0189 0.0046 0.0071 0.0513
O2 0.0412 0.048 0.0209 0.0033 0.0038 0.0333
N1 0.054 0.0226 0.0237 0.0008 0.0013 0.0194
N2 0.0337(16) 0.0326(16) 0.0142(15) 0.0009(11) 0.0023(12) 0.0233(14)
C1 0.031 0.0329 0.0179 0.0005 -0.0013 0.0196
C2 0.040(2) 0.036(2) 0.035(2) 0.0053(17) 0.0074(17) 0.0256(19)
C3 0.048(3) 0.033(2) 0.028(2) 0.0043(16) 0.0070(18) 0.023(2)
C4 0.103(4) 0.041(2) 0.024(2) -0.0045(18) -0.007(2) 0.047(3)
C5 0.055(3) 0.039(2) 0.033(2) -0.0033(19) -0.011(2) 0.028(2)
C6 0.064 0.028 0.027 -0.0053 -0.0075 0.023
C7 0.093 0.036 0.023 -0.0029 -0.009 0.039
C8 0.035(2) 0.036(2) 0.0174(16) 0.0029(14) 0.0040(14) 0.0246(17)
C9 0.036(2) 0.062(3) 0.027(2) 0.0029(19) -0.0012(17) 0.034(2)
C10 0.051(3) 0.093(4) 0.046(3) 0.013(3) -0.004(2) 0.050(3)
C11 0.043(3) 0.063(3) 0.068(4) -0.004(3) -0.011(3) 0.025(3)
Zn1C 0.035 0.036 0.02007 -0.00062 -0.00034 0.0267
Zn1E 0.036 0.0176 0.02007 0.00028 0.00062 0.0093
O1C 0.0519 0.078 0.0189 -0.0046 -0.0071 0.0513
N1A 0.0378 0.054 0.0237 0.0013 0.0005 0.0346
O3 0.197(9) 0.175(9) 0.093(5) 0.028(5) 0.039(5) 0.130(8)
O4 0.154(12) 0.44(3) 0.43(3) 0.21(3) 0.016(15) 0.144(17)
loop_
_geom_bond_atom_site_label_1
_geom_bond_atom_site_label_2
_geom_bond_site_symmetry_1
_geom_bond_site_symmetry_2
Zn1 Cl1 1_555 1_555
O1 C1 1_555 1_555
O2 Zn1 1_555 1_555
N1 C6 1_555 1_555
N2 Zn1 1_555 1_555
H1 N2 1_555 1_555
C1 O2 1_555 1_555
C2 N2 1_555 1_555
H2 C2 1_555 1_555
H3 C2 1_555 1_555
C3 C2 1_555 1_555
C4 C3 1_555 1_555
H4 C4 1_555 1_555
C5 C3 1_555 1_555
H5 C5 1_555 1_555
C6 C5 1_555 1_555
H6 C6 1_555 1_555
C7 N1 1_555 1_555
H7 C7 1_555 1_555
C8 N2 1_555 1_555
H8 C8 1_555 1_555
C9 C8 1_555 1_555
H9 C9 1_555 1_555
C10 C9 1_555 1_555
H10 C10 1_555 1_555
H11 C10 1_555 1_555
H12 C10 1_555 1_555
C11 C9 1_555 1_555
H13 C11 1_555 1_555
H14 C11 1_555 1_555
H15 C11 1_555 1_555
Zn1C O1 1_555 1_555
Zn1E N1 1_555 1_555
O1C Zn1 1_555 1_555
N1A Zn1 1_555 1_555
C1 C8 1_555 1_555
C4 C7 1_555 1_555

#END
