
#######################################################################
#
#                 Cambridge Crystallographic Data Centre
#                                CCDC 
#
#######################################################################
#
# If this CIF has been generated from an entry in the Cambridge 
# Structural Database, then it will include bibliographic, chemical, 
# crystal, experimental, refinement or atomic coordinate data resulting 
# from the CCDC's data processing and validation procedures.
#
#######################################################################

data_TUJBUX
_chemical_formula_moiety         '(C30 H32 Cu2 N4 O12)n'
_chemical_name_systematic        
'catena-[bis(\m-5-(4-carboxylatophenoxy)nicotinato)-diaqua-bis(dimethylamine)-di-copper unknown solvate]'
_symmetry_cell_setting           triclinic
_symmetry_space_group_name_H-M   'P -1'
_symmetry_Int_Tables_number      2
_space_group_name_Hall           '-P 1'
loop_
_symmetry_equiv_pos_site_id
_symmetry_equiv_pos_as_xyz
1 x,y,z
2 -x,-y,-z
_cell_length_a                   10.665(15)
_cell_length_b                   12.107(16)
_cell_length_c                   16.77(2)
_cell_angle_alpha                80.14(2)
_cell_angle_beta                 88.09(2)
_cell_angle_gamma                69.37(2)
_cell_volume                     1995.72
_exptl_crystal_colour            blue
_exptl_crystal_description       block
_cell_formula_units_Z            2
loop_
_atom_site_label
_atom_site_type_symbol
_atom_site_fract_x
_atom_site_fract_y
_atom_site_fract_z
Cu1 Cu 0.00954(13) 0.27775(13) 0.75440(7)
Cu2 Cu 0.01310(11) 0.24937(11) 0.25632(7)
O1 O -0.0247(7) 0.2279(8) 0.6524(4)
O2 O 0.1022(10) 0.3073(9) 0.5696(5)
O3 O 0.0294(8) 0.4647(8) 0.7003(5)
H1 H 0.0775 0.4580 0.6509
H2 H 0.0773 0.4868 0.7386
O4 O -0.8010(8) 0.2148(9) 0.2928(4)
O5 O 0.0329(10) 0.0557(9) 0.2306(7)
H3 H 0.1098 -0.0038 0.2598
H4 H 0.0429 0.0542 0.1737
O6 O -0.7454(13) 0.0163(10) 0.3008(8)
O7 O -0.2397(7) 0.0370(7) 0.4788(5)
O8 O -0.0542(12) 0.2020(10) -0.0570(5)
O9 O 0.0368(8) 0.3184(7) -0.1423(4)
O10 O 0.7879(8) 0.4918(8) 0.2047(5)
O11 O 0.8245(6) 0.2949(8) 0.2207(4)
O12 O 0.2524(6) 0.4923(6) 0.0425(4)
N1 N -0.0373(7) 0.2079(7) 0.3711(4)
N2 N 0.0623(7) 0.3078(7) 0.1417(5)
N3 N 0.2071(10) 0.1740(10) 0.7509(6)
H5 H 0.2240 0.1777 0.6929
N4 N -0.1963(10) 0.3409(10) 0.7668(6)
H6 H -0.2112 0.3669 0.8196
C1 C 0.0194(10) 0.2566(10) 0.5832(5)
C2 C -0.0301(10) 0.2115(9) 0.5145(6)
C3 C -0.1167(9) 0.1451(9) 0.5295(7)
H7 H -0.1431 0.1244 0.5817
C4 C -0.1617(9) 0.1117(10) 0.4623(6)
C5 C -0.1214(9) 0.1445(10) 0.3855(6)
H8 H -0.1528 0.1225 0.3418
C6 C 0.0049(9) 0.2401(9) 0.4333(5)
H9 H 0.0612 0.2844 0.4233
C7 C -0.3518(10) 0.0630(11) 0.4293(5)
C8 C -0.4338(11) 0.1774(11) 0.3975(7)
H10 H -0.4117 0.2433 0.4037
C9 C -0.5518(11) 0.1918(11) 0.3557(7)
H11 H -0.6064 0.2677 0.3309
C10 C -0.5880(11) 0.0924(11) 0.3509(6)
C11 C -0.5011(12) -0.0227(12) 0.3812(7)
H12 H -0.5210 -0.0894 0.3743
C12 C -0.3870(11) -0.0355(9) 0.4210(6)
H13 H -0.3304 -0.1120 0.4434
C13 C -0.7180(13) 0.1028(16) 0.3117(8)
C14 C 0.0085(12) 0.2760(10) -0.0726(7)
C15 C 0.0562(10) 0.3109(9) -0.0011(5)
C16 C 0.1396(9) 0.3795(9) -0.0132(6)
H14 H 0.1668 0.4023 -0.0647
C17 C 0.1800(9) 0.4121(8) 0.0539(6)
C18 C 0.1432(8) 0.3757(8) 0.1296(5)
H15 H 0.1733 0.3972 0.1740
C19 C 0.0181(10) 0.2811(9) 0.0762(5)
H16 H -0.0417 0.2401 0.0835
C20 C 0.3714(8) 0.4650(8) 0.0852(6)
C21 C 0.4485(10) 0.3499(10) 0.1210(7)
H17 H 0.4178 0.2871 0.1201
C22 C 0.5716(10) 0.3276(9) 0.1583(6)
H18 H 0.6225 0.2496 0.1815
C23 C 0.6213(9) 0.4218(10) 0.1617(6)
C24 C 0.5378(10) 0.5389(10) 0.1220(5)
H19 H 0.5683 0.6021 0.1214
C25 C 0.4177(9) 0.5625(9) 0.0855(6)
H20 H 0.3666 0.6400 0.0612
C26 C 0.7532(10) 0.4060(12) 0.1975(6)
C27 C 0.2342(14) 0.0489(13) 0.7801(10)
H21 H 0.3231 0.0033 0.7659
H22 H 0.1705 0.0239 0.7560
H23 H 0.2270 0.0358 0.8379
C28 C 0.3095(17) 0.2087(15) 0.7811(12)
H24 H 0.3931 0.1703 0.7571
H25 H 0.3184 0.1849 0.8389
H26 H 0.2854 0.2940 0.7676
C29 C -0.2727(13) 0.4502(14) 0.7055(10)
H27 H -0.2793 0.4263 0.6546
H28 H -0.2261 0.5060 0.6987
H29 H -0.3610 0.4876 0.7245
C30 C -0.2557(15) 0.2474(13) 0.7708(9)
H30 H -0.2176 0.1858 0.8166
H31 H -0.2372 0.2134 0.7221
H32 H -0.3508 0.2818 0.7763
Cu1_2 Cu 0.00954(13) 0.27775(13) -0.24560(7)
Cu2_2 Cu -0.98690(11) 0.24937(11) 0.25632(7)
Cu2_3 Cu 1.01310(11) 0.24937(11) 0.25632(7)
O4_2 O 0.1990(8) 0.2148(9) 0.2928(4)
O9_2 O 0.0368(8) 0.3184(7) 0.8577(4)
O11_2 O -0.1755(6) 0.2949(8) 0.2207(4)
loop_
_geom_bond_atom_site_label_1
_geom_bond_atom_site_label_2
_geom_bond_site_symmetry_1
_geom_bond_site_symmetry_2
Cu1 O1 1_555 1_555
Cu2 O5 1_555 1_555
O1 C1 1_555 1_555
O2 C1 1_555 1_555
O3 Cu1 1_555 1_555
H1 O3 1_555 1_555
H2 O3 1_555 1_555
O4 C13 1_555 1_555
O5 H3 1_555 1_555
H4 O5 1_555 1_555
O6 C13 1_555 1_555
O7 C4 1_555 1_555
O8 C14 1_555 1_555
O9 C14 1_555 1_555
O10 C26 1_555 1_555
O11 C26 1_555 1_555
O12 C17 1_555 1_555
N1 Cu2 1_555 1_555
N2 Cu2 1_555 1_555
N3 Cu1 1_555 1_555
H5 N3 1_555 1_555
N4 Cu1 1_555 1_555
H6 N4 1_555 1_555
C1 C2 1_555 1_555
C2 C3 1_555 1_555
C3 H7 1_555 1_555
C4 C3 1_555 1_555
C5 N1 1_555 1_555
H8 C5 1_555 1_555
C6 N1 1_555 1_555
H9 C6 1_555 1_555
C7 O7 1_555 1_555
C8 C7 1_555 1_555
H10 C8 1_555 1_555
C9 C8 1_555 1_555
H11 C9 1_555 1_555
C10 C9 1_555 1_555
C11 C10 1_555 1_555
H12 C11 1_555 1_555
C12 C7 1_555 1_555
H13 C12 1_555 1_555
C13 C10 1_555 1_555
C14 C15 1_555 1_555
C15 C16 1_555 1_555
C16 H14 1_555 1_555
C17 C16 1_555 1_555
C18 N2 1_555 1_555
H15 C18 1_555 1_555
C19 N2 1_555 1_555
H16 C19 1_555 1_555
C20 O12 1_555 1_555
C21 C20 1_555 1_555
H17 C21 1_555 1_555
C22 C21 1_555 1_555
H18 C22 1_555 1_555
C23 C22 1_555 1_555
C24 C23 1_555 1_555
H19 C24 1_555 1_555
C25 C20 1_555 1_555
H20 C25 1_555 1_555
C26 C23 1_555 1_555
C27 N3 1_555 1_555
H21 C27 1_555 1_555
H22 C27 1_555 1_555
H23 C27 1_555 1_555
C28 N3 1_555 1_555
H24 C28 1_555 1_555
H25 C28 1_555 1_555
H26 C28 1_555 1_555
C29 N4 1_555 1_555
H27 C29 1_555 1_555
H28 C29 1_555 1_555
H29 C29 1_555 1_555
C30 N4 1_555 1_555
H30 C30 1_555 1_555
H31 C30 1_555 1_555
H32 C30 1_555 1_555
Cu1_2 O9 1_555 1_555
Cu2_2 O4 1_555 1_555
Cu2_3 O11 1_555 1_555
O4_2 Cu2 1_555 1_555
O9_2 Cu1 1_555 1_555
O11_2 Cu2 1_555 1_555
C2 C6 1_555 1_555
C4 C5 1_555 1_555
C11 C12 1_555 1_555
C15 C19 1_555 1_555
C17 C18 1_555 1_555
C24 C25 1_555 1_555

#END
