
#######################################################################
#
#                 Cambridge Crystallographic Data Centre
#                                CCDC 
#
#######################################################################
#
# If this CIF has been generated from an entry in the Cambridge 
# Structural Database, then it will include bibliographic, chemical, 
# crystal, experimental, refinement or atomic coordinate data resulting 
# from the CCDC's data processing and validation procedures.
#
#######################################################################

data_UFIREI
_chemical_name_common            JUC-103
_chemical_formula_moiety         '(C69 H42 O13 Zn4)n,n(H2 O1)'
_chemical_name_systematic        
'catena-[(\m~12~-2,4,6-trimethyl-1,3,5-tri(3,5-di(4-carboxylatophenyl-1-yl)phenyl-1-yl)benzene)-(\m~4~-oxo)-tetra-zinc monohydrate unknown solvate]'
_symmetry_cell_setting           rhombohedral
_symmetry_space_group_name_H-M   'R -3 c'
_symmetry_Int_Tables_number      167
_space_group_name_Hall           '-R 3 2"c'
loop_
_symmetry_equiv_pos_site_id
_symmetry_equiv_pos_as_xyz
1 x,y,z
2 -y,x-y,z
3 -x+y,-x,z
4 y,x,1/2-z
5 x-y,-y,1/2-z
6 -x,-x+y,1/2-z
7 2/3+x,1/3+y,1/3+z
8 2/3-y,1/3+x-y,1/3+z
9 2/3-x+y,1/3-x,1/3+z
10 2/3+y,1/3+x,5/6-z
11 2/3+x-y,1/3-y,5/6-z
12 2/3-x,1/3-x+y,5/6-z
13 1/3+x,2/3+y,2/3+z
14 1/3-y,2/3+x-y,2/3+z
15 1/3-x+y,2/3-x,2/3+z
16 1/3+y,2/3+x,1/6-z
17 1/3+x-y,2/3-y,1/6-z
18 1/3-x,2/3-x+y,1/6-z
19 -x,-y,-z
20 y,-x+y,-z
21 x-y,x,-z
22 -y,-x,1/2+z
23 -x+y,y,1/2+z
24 x,x-y,1/2+z
25 1/3-x,2/3-y,2/3-z
26 1/3+y,2/3-x+y,2/3-z
27 1/3+x-y,2/3+x,2/3-z
28 1/3-y,2/3-x,1/6+z
29 1/3-x+y,2/3+y,1/6+z
30 1/3+x,2/3+x-y,1/6+z
31 2/3-x,1/3-y,1/3-z
32 2/3+y,1/3-x+y,1/3-z
33 2/3+x-y,1/3+x,1/3-z
34 2/3-y,1/3-x,5/6+z
35 2/3-x+y,1/3+y,5/6+z
36 2/3+x,1/3+x-y,5/6+z
_cell_length_a                   19.850(3)
_cell_length_b                   19.850(3)
_cell_length_c                   83.91(3)
_cell_angle_alpha                90
_cell_angle_beta                 90
_cell_angle_gamma                120
_cell_volume                     28632.9
_cell_formula_units_Z            12
loop_
_atom_site_label
_atom_site_type_symbol
_atom_site_fract_x
_atom_site_fract_y
_atom_site_fract_z
C1 C 0.6988(4) 1.1695(4) -0.01632(8)
H1 H 0.7170 1.2031 -0.0250
C2 C 0.6364(4) 1.1350(4) 0.00899(8)
H2 H 0.6156 1.1468 0.0178
C3 C 0.6688(4) 1.1889(4) -0.00337(8)
C4 C 0.5915(4) 1.0055(4) 0.02085(8)
C5 C 0.5051(4) 0.8896(4) 0.04320(8)
C6 C 0.6344(4) 1.0647(4) 0.00853(8)
C7 C 0.7029(4) 1.1027(4) -0.01687(8)
C8 C 0.4555(5) 0.8255(4) 0.05429(9)
C9 C 0.7440(5) 1.0886(5) -0.02986(9)
C10 C 0.5208(5) 0.9940(5) 0.02651(9)
H3 H 0.5016 1.0252 0.0227
C11 C 0.6177(5) 0.9570(5) 0.02677(8)
H4 H 0.6645 0.9629 0.0231
C12 C 0.7425(5) 1.1090(5) -0.04552(8)
H5 H 0.7137 1.1326 -0.0482
C13 C 0.4798(5) 0.9389(4) 0.03725(9)
H6 H 0.4329 0.9332 0.0409
C14 C 0.5756(5) 0.9008(5) 0.03791(9)
H7 H 0.5948 0.8700 0.0419
C15 C 0.6696(4) 1.0495(4) -0.00444(8)
H8 H 0.6708 1.0032 -0.0047
C16 C 0.7823(6) 1.0953(5) -0.05727(10)
H9 H 0.7800 1.1099 -0.0677
C17 C 0.8261(7) 1.0601(7) -0.05381(12)
C18 C 0.7879(8) 1.0516(8) -0.02657(12)
H10 H 0.7910 1.0376 -0.0161
C19 C 0.8246(8) 1.0366(9) -0.03804(14)
H11 H 0.8502 1.0095 -0.0355
C20 C 0.5219(4) 1.1871(4) -0.00206(11)
H12 H 0.5137 1.1673 0.0086
H13 H 0.5243 1.1504 -0.0092
H14 H 0.4797 1.1949 -0.0051
C21 C 0.8664(12) 1.0433(9) -0.06617(17)
C22 C 0.5961(4) 1.2622(4) -0.00285(8)
C23 C 0.6677(4) 1.2643(4) -0.00286(7)
O1 O 0.3333 0.6667 0.07937(8)
O2 O 0.4786(3) 0.7789(4) 0.05791(7)
O3 O 0.8604(6) 1.0523(4) -0.08010(9)
O4 O 0.9048(14) 1.0105(11) -0.0624(2)
O5 O 0.3943(3) 0.8218(3) 0.05915(7)
Zn1 Zn 0.43718(4) 0.69057(5) 0.072663(8)
Zn2 Zn 0.3333 0.6667 0.10347(3)
C1A C 0.8305(4) 1.5293(6) -0.01632(8)
H1A H 0.7969 1.5139 -0.0250
C2A C 0.8650(4) 1.5014(6) 0.00899(8)
H2A H 0.8532 1.4688 0.0178
C3A C 0.8111(4) 1.4799(6) -0.00337(8)
C4A C 0.9945(4) 1.5860(6) 0.02085(8)
C5A C 1.1104(4) 1.6155(6) 0.04320(8)
C6A C 0.9353(4) 1.5697(6) 0.00853(8)
C7A C 0.8973(4) 1.6002(6) -0.01687(8)
C8A C 1.1745(4) 1.6300(6) 0.05429(9)
C9A C 0.9114(5) 1.6554(7) -0.02986(9)
C10A C 1.0060(5) 1.5268(7) 0.02651(9)
H3A H 0.9748 1.4764 0.0227
C11A C 1.0430(5) 1.6607(7) 0.02677(8)
H4A H 1.0371 1.7016 0.0231
C12A C 0.8910(5) 1.6335(7) -0.04552(8)
H5A H 0.8674 1.5811 -0.0482
C13A C 1.0611(4) 1.5409(6) 0.03725(9)
H6A H 1.0668 1.4997 0.0409
C14A C 1.0992(5) 1.6748(7) 0.03791(9)
H7A H 1.1300 1.7248 0.0419
C15A C 0.9505(4) 1.6201(6) -0.00444(8)
H8A H 0.9968 1.6676 -0.0047
C16A C 0.9047(5) 1.6870(8) -0.05727(10)
H9A H 0.8901 1.6701 -0.0677
C17A C 0.9399(7) 1.7660(10) -0.05381(12)
C18A C 0.9484(8) 1.7363(11) -0.02657(12)
H10A H 0.9624 1.7534 -0.0161
C19A C 0.9634(9) 1.7880(12) -0.03804(14)
H11A H 0.9905 1.8407 -0.0355
C20A C 0.8129(4) 1.3348(6) -0.00206(11)
H12A H 0.8327 1.3464 0.0086
H13A H 0.8496 1.3739 -0.0092
H14A H 0.8051 1.2848 -0.0051
C22A C 0.7378(4) 1.3339(6) -0.00285(8)
C23A C 0.7357(4) 1.4034(6) -0.00286(7)
O2A O 1.2211(4) 1.6997(5) 0.05791(7)
O5A O 1.1782(3) 1.5725(4) 0.05915(7)
C21A C 0.9567(9) 1.8231(15) -0.06617(17)
O3A O 0.9477(4) 1.8081(7) -0.08010(9)
O4A O 0.9895(11) 1.8943(18) -0.0624(2)
C1B C 0.4707(6) 1.3012(4) -0.01632(8)
H1B H 0.4861 1.2830 -0.0250
C2B C 0.4986(6) 1.3636(4) 0.00899(8)
H2B H 0.5312 1.3844 0.0178
C3B C 0.5201(6) 1.3312(4) -0.00337(8)
C4B C 0.4140(6) 1.4085(4) 0.02085(8)
C5B C 0.3845(6) 1.4949(4) 0.04320(8)
C6B C 0.4303(6) 1.3656(4) 0.00853(8)
C7B C 0.3998(6) 1.2971(4) -0.01687(8)
C8B C 0.3700(6) 1.5445(5) 0.05429(9)
C9B C 0.3446(7) 1.2560(5) -0.02986(9)
C10B C 0.4732(7) 1.4792(5) 0.02651(9)
H3B H 0.5236 1.4984 0.0227
C11B C 0.3393(7) 1.3823(5) 0.02677(8)
H4B H 0.2984 1.3355 0.0231
C12B C 0.3665(7) 1.2575(5) -0.04552(8)
H5B H 0.4189 1.2863 -0.0482
C13B C 0.4591(6) 1.5202(5) 0.03725(9)
H6B H 0.5003 1.5671 0.0409
C14B C 0.3252(7) 1.4244(5) 0.03791(9)
H7B H 0.2752 1.4052 0.0419
C15B C 0.3799(6) 1.3304(4) -0.00444(8)
H8B H 0.3324 1.3292 -0.0047
C16B C 0.3130(8) 1.2177(6) -0.05727(10)
H9B H 0.3299 1.2200 -0.0677
C17B C 0.2340(10) 1.1739(7) -0.05381(12)
C18B C 0.2637(11) 1.2121(8) -0.02657(12)
H10B H 0.2466 1.2090 -0.0161
C19B C 0.2120(12) 1.1754(8) -0.03804(14)
H11B H 0.1593 1.1498 -0.0355
C20B C 0.6652(6) 1.4781(4) -0.00206(11)
H12B H 0.6536 1.4863 0.0086
H13B H 0.6261 1.4757 -0.0092
H14B H 0.7152 1.5203 -0.0051
C22B C 0.6661(6) 1.4039(4) -0.00285(8)
C23B C 0.5966(6) 1.3323(4) -0.00286(7)
O2B O 0.3003(5) 1.5214(3) 0.05791(7)
O5B O 0.4275(4) 1.6057(3) 0.05915(7)
C21B C 0.1769(15) 1.1336(12) -0.06617(17)
O3B O 0.1919(7) 1.1396(6) -0.08010(9)
O4B O 0.1057(18) 1.0952(14) -0.0624(2)
Zn1A Zn 0.30943(5) 0.74661(6) 0.072663(8)
Zn1B Zn 0.25339(6) 0.56282(4) 0.072663(8)
O2A_2 O 0.2211(4) 0.6997(5) 0.05791(7)
O2B_2 O 0.3003(5) 0.5214(3) 0.05791(7)
O3AA O 0.2810(4) 0.8063(6) 0.08657(9)
O3BA O 0.5252(7) 0.7190(4) 0.08657(9)
O3CA O 0.1937(6) 0.4748(7) 0.08657(9)
O4AA O 0.3228(11) 0.7619(14) 0.1043(2)
O4BA O 0.4390(18) 0.6772(11) 0.1043(2)
O4CA O 0.2381(14) 0.5610(18) 0.1043(2)
O5A_2 O 0.1782(3) 0.5725(4) 0.05915(7)
O5B_2 O 0.4275(4) 0.6057(3) 0.05915(7)
Zn1_2 Zn 0.43718(4) 1.69057(5) 0.072663(8)
Zn1A_2 Zn 1.30943(5) 1.74661(6) 0.072663(8)
Zn1B_2 Zn 0.25339(6) 1.56282(4) 0.072663(8)
Zn1B_3 Zn 1.25339(6) 1.56282(4) 0.072663(8)
Zn1GA Zn 0.97610(5) 1.89615(4) -0.094004(8)
Zn1HA Zn 0.92006(6) 1.02390(5) -0.094004(8)
Zn1IA Zn 0.10385(4) 1.07994(6) -0.094004(8)
Zn2GA Zn -0.0000 1.0000 -0.06320(3)
Zn2GA_2 Zn 1.0000 1.0000 -0.06320(3)
Zn2GA_3 Zn 1.0000 2.0000 -0.06320(3)
loop_
_geom_bond_atom_site_label_1
_geom_bond_atom_site_label_2
_geom_bond_site_symmetry_1
_geom_bond_site_symmetry_2
C1 H1 1_555 1_555
C2 H2 1_555 1_555
C3 C1 1_555 1_555
C4 C6 1_555 1_555
C5 C8 1_555 1_555
C6 C2 1_555 1_555
C7 C1 1_555 1_555
C8 O2 1_555 1_555
C9 C7 1_555 1_555
C10 C4 1_555 1_555
H3 C10 1_555 1_555
C11 C4 1_555 1_555
H4 C11 1_555 1_555
C12 C9 1_555 1_555
H5 C12 1_555 1_555
C13 C5 1_555 1_555
H6 C13 1_555 1_555
C14 C5 1_555 1_555
H7 C14 1_555 1_555
C15 C6 1_555 1_555
H8 C15 1_555 1_555
C16 C12 1_555 1_555
H9 C16 1_555 1_555
C17 C16 1_555 1_555
C18 C9 1_555 1_555
H10 C18 1_555 1_555
C19 C17 1_555 1_555
H11 C19 1_555 1_555
C20 H12 1_555 1_555
H13 C20 1_555 1_555
H14 C20 1_555 1_555
C21 C17 1_555 1_555
C22 C20 1_555 1_555
C23 C3 1_555 1_555
O1 Zn1 1_555 1_555
O2 Zn1 1_555 1_555
O3 C21 1_555 1_555
O4 C21 1_555 1_555
O5 C8 1_555 1_555
Zn1 O3BA 1_555 1_555
Zn2 O1 1_555 1_555
C1A H1A 1_555 1_555
C2A H2A 1_555 1_555
C3A C1A 1_555 1_555
C4A C6A 1_555 1_555
C5A C8A 1_555 1_555
C6A C2A 1_555 1_555
C7A C1A 1_555 1_555
C8A O2A 1_555 1_555
C9A C7A 1_555 1_555
C10A C4A 1_555 1_555
H3A C10A 1_555 1_555
C11A C4A 1_555 1_555
H4A C11A 1_555 1_555
C12A C9A 1_555 1_555
H5A C12A 1_555 1_555
C13A C5A 1_555 1_555
H6A C13A 1_555 1_555
C14A C5A 1_555 1_555
H7A C14A 1_555 1_555
C15A C6A 1_555 1_555
H8A C15A 1_555 1_555
C16A C12A 1_555 1_555
H9A C16A 1_555 1_555
C17A C16A 1_555 1_555
C18A C9A 1_555 1_555
H10A C18A 1_555 1_555
C19A C17A 1_555 1_555
H11A C19A 1_555 1_555
C20A H12A 1_555 1_555
H13A C20A 1_555 1_555
H14A C20A 1_555 1_555
C22A C23 1_555 1_555
C23A C3A 1_555 1_555
O2A Zn1A_2 1_555 1_555
O5A C8A 1_555 1_555
C21A C17A 1_555 1_555
O3A C21A 1_555 1_555
O4A C21A 1_555 1_555
C1B H1B 1_555 1_555
C2B H2B 1_555 1_555
C3B C1B 1_555 1_555
C4B C6B 1_555 1_555
C5B C8B 1_555 1_555
C6B C2B 1_555 1_555
C7B C1B 1_555 1_555
C8B O2B 1_555 1_555
C9B C7B 1_555 1_555
C10B C4B 1_555 1_555
H3B C10B 1_555 1_555
C11B C4B 1_555 1_555
H4B C11B 1_555 1_555
C12B C9B 1_555 1_555
H5B C12B 1_555 1_555
C13B C5B 1_555 1_555
H6B C13B 1_555 1_555
C14B C5B 1_555 1_555
H7B C14B 1_555 1_555
C15B C6B 1_555 1_555
H8B C15B 1_555 1_555
C16B C12B 1_555 1_555
H9B C16B 1_555 1_555
C17B C16B 1_555 1_555
C18B C9B 1_555 1_555
H10B C18B 1_555 1_555
C19B C17B 1_555 1_555
H11B C19B 1_555 1_555
C20B H12B 1_555 1_555
H13B C20B 1_555 1_555
H14B C20B 1_555 1_555
C22B C23A 1_555 1_555
C23B C22 1_555 1_555
O2B Zn1B_2 1_555 1_555
O5B C8B 1_555 1_555
C21B C17B 1_555 1_555
O3B C21B 1_555 1_555
O4B C21B 1_555 1_555
Zn1A O1 1_555 1_555
Zn1B O1 1_555 1_555
O2A_2 Zn1A 1_555 1_555
O2B_2 Zn1B 1_555 1_555
O3AA Zn1A 1_555 1_555
O3CA Zn1B 1_555 1_555
O4AA Zn2 1_555 1_555
O4BA Zn2 1_555 1_555
O4CA Zn2 1_555 1_555
O5A_2 Zn1B 1_555 1_555
O5B_2 Zn1 1_555 1_555
Zn1_2 O5B 1_555 1_555
Zn1B_3 O5A 1_555 1_555
Zn1GA O3A 1_555 1_555
Zn1HA O3 1_555 1_555
Zn1IA O3B 1_555 1_555
Zn2GA O4B 1_555 1_555
Zn2GA_2 O4 1_555 1_555
Zn2GA_3 O4A 1_555 1_555
C2 C3 1_555 1_555
C7 C15 1_555 1_555
C10 C13 1_555 1_555
C11 C14 1_555 1_555
C18 C19 1_555 1_555
C22 C23 1_555 1_555
O5 Zn1A 1_555 1_555
C2A C3A 1_555 1_555
C7A C15A 1_555 1_555
C10A C13A 1_555 1_555
C11A C14A 1_555 1_555
C18A C19A 1_555 1_555
C20A C22A 1_555 1_555
C22A C23A 1_555 1_555
C2B C3B 1_555 1_555
C3B C23B 1_555 1_555
C7B C15B 1_555 1_555
C10B C13B 1_555 1_555
C11B C14B 1_555 1_555
C18B C19B 1_555 1_555
C20B C22B 1_555 1_555
C22B C23B 1_555 1_555

#END
