
#######################################################################
#
#                 Cambridge Crystallographic Data Centre
#                                CCDC 
#
#######################################################################
#
# If this CIF has been generated from an entry in the Cambridge 
# Structural Database, then it will include bibliographic, chemical, 
# crystal, experimental, refinement or atomic coordinate data resulting 
# from the CCDC's data processing and validation procedures.
#
#######################################################################

data_RIWQOF
_chemical_formula_moiety         '(C19 H19 Mn1 N1 O7)n'
_chemical_name_systematic        
catena-[(\m~4~-2,2'-Dimethoxybiphenyl-4,4'-dicarboxylato)-(\m~2~-dimethylformamide)-manganese]
_symmetry_cell_setting           orthorhombic
_symmetry_space_group_name_H-M   'I m a 2'
_symmetry_Int_Tables_number      46
_space_group_name_Hall           'I 2 -2a'
loop_
_symmetry_equiv_pos_site_id
_symmetry_equiv_pos_as_xyz
1 x,y,z
2 -x,-y,z
3 1/2+x,-y,z
4 1/2-x,y,z
5 1/2+x,1/2+y,1/2+z
6 1/2-x,1/2-y,1/2+z
7 x,1/2-y,1/2+z
8 -x,1/2+y,1/2+z
_cell_length_a                   28.410(8)
_cell_length_b                   8.844(3)
_cell_length_c                   7.497(2)
_cell_angle_alpha                90
_cell_angle_beta                 90
_cell_angle_gamma                90
_cell_volume                     1883.68
_exptl_crystal_colour            'light yellow'
_exptl_crystal_description       plate
_cell_formula_units_Z            4
loop_
_atom_site_label
_atom_site_type_symbol
_atom_site_fract_x
_atom_site_fract_y
_atom_site_fract_z
Mn1 Mn 0.7500 1.24200(8) -0.44301(16)
O1 O 0.69447(11) 1.1218(4) -0.8425(4)
O2 O 0.69591(10) 1.0993(4) -0.5461(4)
O3 O 0.53401(10) 0.8876(4) -0.4079(4)
C1 C 0.67526(12) 1.0990(4) -0.6948(7)
C2 C 0.62308(12) 1.0683(4) -0.6953(7)
C3 C 0.60293(14) 0.9984(5) -0.5445(5)
H1 H 0.6221 0.9722 -0.4455
C4 C 0.55483(14) 0.9678(4) -0.5410(5)
C5 C 0.52586(12) 1.0157(4) -0.6835(7)
C6 C 0.54685(15) 1.0883(5) -0.8261(6)
H2 H 0.5277 1.1222 -0.9220
C7 C 0.59456(15) 1.1128(5) -0.8328(5)
H3 H 0.6079 1.1612 -0.9340
C8 C 0.55840(17) 0.8705(7) -0.2455(6)
H4 H 0.5396 0.8090 -0.1634
H5 H 0.5640 0.9702 -0.1926
H6 H 0.5886 0.8203 -0.2676
O4 O 0.7500 1.1085(3) -0.1872(6)
N1 N 0.7500 0.8541(5) -0.1727(9)
C9 C 0.7304(3) 0.9817(8) -0.1818(13)
C10 C 0.7283(4) 0.7073(10) -0.1671(18)
C11 C 0.8056(3) 0.8544(11) -0.1722(17)
O1A O 0.30553(11) 0.8782(4) -0.8425(4)
O2A O 0.30409(10) 0.9007(4) -0.5461(4)
O3A O 0.46599(10) 1.1124(4) -0.4079(4)
C1A C 0.32474(12) 0.9010(4) -0.6948(7)
C2A C 0.37692(12) 0.9317(4) -0.6953(7)
C3A C 0.39707(14) 1.0016(5) -0.5445(5)
H1A H 0.3779 1.0278 -0.4455
C4A C 0.44517(14) 1.0322(4) -0.5410(5)
C5A C 0.47414(12) 0.9843(4) -0.6835(7)
C6A C 0.45315(15) 0.9117(5) -0.8261(6)
H2A H 0.4723 0.8778 -0.9220
C7A C 0.40544(15) 0.8872(5) -0.8328(5)
H3A H 0.3921 0.8388 -0.9340
C8A C 0.44160(17) 1.1295(7) -0.2455(6)
H4A H 0.4604 1.1910 -0.1634
H5A H 0.4360 1.0298 -0.1926
H6A H 0.4114 1.1797 -0.2676
C9C C 0.7696(3) 0.9817(8) -0.1818(13)
C10C C 0.7717(4) 0.7073(10) -0.1671(18)
C11C C 0.6944(3) 0.8544(11) -0.1722(17)
Mn1A Mn 0.2500 0.75800(8) -0.44301(16)
Mn1D Mn 0.2500 0.74200(8) -0.94301(16)
Mn1E Mn 0.7500 1.25800(8) -0.94301(16)
Mn1E_2 Mn 0.7500 1.25800(8) 0.05699(16)
O1E O 0.80553(11) 1.3782(4) -0.3425(4)
O1F O 0.69447(11) 1.3782(4) -0.3425(4)
O2C O 0.80409(10) 1.0993(4) -0.5461(4)
O4E O 0.7500 1.3915(3) -0.6872(6)
loop_
_geom_bond_atom_site_label_1
_geom_bond_atom_site_label_2
_geom_bond_site_symmetry_1
_geom_bond_site_symmetry_2
Mn1 O2 1_555 1_555
O1 C1 1_555 1_555
O2 C1 1_555 1_555
O3 C4 1_555 1_555
C1 C2 1_555 1_555
C2 C3 1_555 1_555
C3 H1 1_555 1_555
C4 C3 1_555 1_555
C5 C4 1_555 1_555
C6 C5 1_555 1_555
H2 C6 1_555 1_555
C7 C2 1_555 1_555
H3 C7 1_555 1_555
C8 O3 1_555 1_555
H4 C8 1_555 1_555
H5 C8 1_555 1_555
H6 C8 1_555 1_555
O4 Mn1 1_555 1_555
N1 C9 1_555 1_555
C9 O4 1_555 1_555
C10 N1 1_555 1_555
C11 N1 1_555 1_555
O1A C1A 1_555 1_555
O2A C1A 1_555 1_555
O3A C4A 1_555 1_555
C1A C2A 1_555 1_555
C2A C3A 1_555 1_555
C3A H1A 1_555 1_555
C4A C3A 1_555 1_555
C5A C5 1_555 1_555
C6A C5A 1_555 1_555
H2A C6A 1_555 1_555
C7A C2A 1_555 1_555
H3A C7A 1_555 1_555
C8A O3A 1_555 1_555
H4A C8A 1_555 1_555
H5A C8A 1_555 1_555
H6A C8A 1_555 1_555
C9C O4 1_555 1_555
C10C N1 1_555 1_555
C11C N1 1_555 1_555
Mn1A O2A 1_555 1_555
Mn1D O1A 1_555 1_555
Mn1E O1 1_555 1_555
Mn1E_2 O4 1_555 1_555
O1E Mn1 1_555 1_555
O1F Mn1 1_555 1_555
O2C Mn1 1_555 1_555
O4E Mn1 1_555 1_555
C6 C7 1_555 1_555
N1 C9C 1_555 1_555
C9 C9C 1_555 1_555
C9 C11C 1_555 1_555
C10 C10C 1_555 1_555
C10 C11C 1_555 1_555
C11 C9C 1_555 1_555
C11 C10C 1_555 1_555
C4A C5A 1_555 1_555
C6A C7A 1_555 1_555
Mn1E O4E 1_555 1_555

#END
