
#######################################################################
#
#                 Cambridge Crystallographic Data Centre
#                                CCDC 
#
#######################################################################
#
# If this CIF has been generated from an entry in the Cambridge 
# Structural Database, then it will include bibliographic, chemical, 
# crystal, experimental, refinement or atomic coordinate data resulting 
# from the CCDC's data processing and validation procedures.
#
#######################################################################

data_UXUPAF
_chemical_formula_moiety         '(C22 H16 Cu1 F6 N4 O6 S2)n'
_chemical_name_systematic        
"catena-(bis(\m~2~-4,4'-Bipyridine)-bis(trifluoromethanesulfonato)-copper unknown solvate)"
_symmetry_cell_setting           orthorhombic
_symmetry_space_group_name_H-M   'P n n a'
_symmetry_Int_Tables_number      52
_space_group_name_Hall           '-P 2a 2bc'
loop_
_symmetry_equiv_pos_site_id
_symmetry_equiv_pos_as_xyz
1 x,y,z
2 1/2-x,-y,z
3 1/2-x,1/2+y,1/2-z
4 x,1/2-y,1/2-z
5 -x,-y,-z
6 1/2+x,y,-z
7 1/2+x,1/2-y,1/2+z
8 -x,1/2+y,1/2+z
_cell_length_a                   16.510(3)
_cell_length_b                   14.417(3)
_cell_length_c                   14.910(3)
_cell_angle_alpha                90
_cell_angle_beta                 90
_cell_angle_gamma                90
_cell_volume                     3548.95
_exptl_crystal_colour            blue
_exptl_crystal_description       block
_cell_formula_units_Z            4
loop_
_atom_site_label
_atom_site_type_symbol
_atom_site_fract_x
_atom_site_fract_y
_atom_site_fract_z
Cu1 Cu 0.93200(3) -0.2500 0.2500
N1 N 1.01818(18) -0.2456(2) 0.3460(2)
N2 N 1.34360(19) -0.2503(2) 0.6553(2)
C1 C 1.0802(2) -0.1854(3) 0.3394(3)
H1 H 1.0805 -0.1435 0.2920
C2 C 1.1440(2) -0.1833(3) 0.4004(3)
H2 H 1.1858 -0.1407 0.3933
C3 C 1.1452(2) -0.2440(3) 0.4712(3)
C4 C 1.0805(3) -0.3062(4) 0.4793(3)
H3 H 1.0786 -0.3484 0.5264
C5 C 1.0189(2) -0.3037(3) 0.4155(3)
H4 H 0.9759 -0.3449 0.4218
C6 C 1.3356(3) -0.1819(3) 0.5952(3)
H5 H 1.3744 -0.1351 0.5940
C7 C 1.2732(3) -0.1778(3) 0.5358(3)
H6 H 1.2700 -0.1288 0.4954
C8 C 1.2143(2) -0.2464(3) 0.5354(3)
C9 C 1.2228(2) -0.3167(3) 0.5976(3)
H7 H 1.1844 -0.3639 0.6005
C10 C 1.2879(3) -0.3170(3) 0.6555(3)
H8 H 1.2930 -0.3656 0.6961
F1 F 0.9302(4) 0.1663(3) 0.3065(5)
F2 F 0.9263(4) 0.0528(4) 0.3987(3)
O1 O 0.93512(17) -0.0825(2) 0.25288(19)
O2 O 0.9320(3) 0.0423(4) 0.1485(3)
C11 C 0.9110(6) 0.0775(5) 0.3137(6)
S1 S 0.9598(2) 0.00634(14) 0.22829(14)
F3 F 0.8309(4) 0.0681(5) 0.3020(4)
O3 O 1.0442(3) 0.0223(5) 0.2409(6)
Cu1E Cu 1.43200(3) -0.2500 0.7500
Cu1E_2 Cu 1.43200(3) -0.2500 -0.2500
N1C N 1.01818(18) -0.2544(2) 0.1540(2)
N2C N 1.34360(19) -0.2497(2) -0.1553(2)
N2E N 0.84360(19) -0.2503(2) 0.3447(2)
N2F N 0.84360(19) -0.2497(2) 0.1553(2)
C1C C 1.0802(2) -0.3146(3) 0.1606(3)
H1C H 1.0805 -0.3565 0.2080
C2C C 1.1440(2) -0.3167(3) 0.0996(3)
H2C H 1.1858 -0.3593 0.1067
C3C C 1.1452(2) -0.2560(3) 0.0288(3)
C4C C 1.0805(3) -0.1938(4) 0.0207(3)
H3C H 1.0786 -0.1516 -0.0264
C5C C 1.0189(2) -0.1963(3) 0.0845(3)
H4C H 0.9759 -0.1551 0.0782
C6C C 1.3356(3) -0.3181(3) -0.0952(3)
H5C H 1.3744 -0.3649 -0.0940
C7C C 1.2732(3) -0.3222(3) -0.0358(3)
H6C H 1.2700 -0.3712 0.0046
C8C C 1.2143(2) -0.2536(3) -0.0354(3)
C9C C 1.2228(2) -0.1833(3) -0.0976(3)
H7C H 1.1844 -0.1361 -0.1005
C10C C 1.2879(3) -0.1830(3) -0.1555(3)
H8C H 1.2930 -0.1344 -0.1961
F1C F 0.9302(4) -0.6663(3) 0.1935(5)
F2C F 0.9263(4) -0.5528(4) 0.1013(3)
O1C O 0.93512(17) -0.4175(2) 0.24712(19)
O2C O 0.9320(3) -0.5423(4) 0.3515(3)
C11C C 0.9110(6) -0.5775(5) 0.1863(6)
S1C S 0.9598(2) -0.50634(14) 0.27171(14)
F3C F 0.8309(4) -0.5681(5) 0.1980(4)
O3C O 1.0442(3) -0.5223(5) 0.2591(6)
C12? C 0.9579(7) 0.0832(7) 0.3247(7)
F4? F 1.0368(6) 0.0784(12) 0.3295(12)
O4? O 0.8285(5) 0.0242(8) 0.2495(10)
S2? S 0.9132(4) 0.0131(3) 0.2382(3)
loop_
_geom_bond_atom_site_label_1
_geom_bond_atom_site_label_2
_geom_bond_site_symmetry_1
_geom_bond_site_symmetry_2
Cu1 N1 1_555 1_555
N1 C1 1_555 1_555
N2 C6 1_555 1_555
C1 H1 1_555 1_555
C2 C1 1_555 1_555
H2 C2 1_555 1_555
C3 C2 1_555 1_555
C4 C3 1_555 1_555
H3 C4 1_555 1_555
C5 N1 1_555 1_555
H4 C5 1_555 1_555
C6 H5 1_555 1_555
C7 C6 1_555 1_555
H6 C7 1_555 1_555
C8 C3 1_555 1_555
C9 C8 1_555 1_555
H7 C9 1_555 1_555
C10 N2 1_555 1_555
H8 C10 1_555 1_555
F1 C11 1_555 1_555
F2 C11 1_555 1_555
O1 Cu1 1_555 1_555
O2 S1 1_555 1_555
C11 S1 1_555 1_555
S1 O1 1_555 1_555
F3 C11 1_555 1_555
O3 S1 1_555 1_555
Cu1E N2 1_555 1_555
Cu1E_2 N2C 1_555 1_555
N1C Cu1 1_555 1_555
N2C C6C 1_555 1_555
N2E Cu1 1_555 1_555
N2F Cu1 1_555 1_555
C1C N1C 1_555 1_555
H1C C1C 1_555 1_555
C2C C1C 1_555 1_555
H2C C2C 1_555 1_555
C3C C2C 1_555 1_555
C4C C3C 1_555 1_555
H3C C4C 1_555 1_555
C5C N1C 1_555 1_555
H4C C5C 1_555 1_555
C6C H5C 1_555 1_555
C7C C6C 1_555 1_555
H6C C7C 1_555 1_555
C8C C3C 1_555 1_555
C9C C8C 1_555 1_555
H7C C9C 1_555 1_555
C10C N2C 1_555 1_555
H8C C10C 1_555 1_555
F1C C11C 1_555 1_555
F2C C11C 1_555 1_555
O1C Cu1 1_555 1_555
O2C S1C 1_555 1_555
C11C S1C 1_555 1_555
S1C O1C 1_555 1_555
F3C C11C 1_555 1_555
O3C S1C 1_555 1_555
C4 C5 1_555 1_555
C7 C8 1_555 1_555
C9 C10 1_555 1_555
C4C C5C 1_555 1_555
C7C C8C 1_555 1_555
C9C C10C 1_555 1_555

#END
