
#######################################################################
#
#                 Cambridge Crystallographic Data Centre
#                                CCDC 
#
#######################################################################
#
# If this CIF has been generated from an entry in the Cambridge 
# Structural Database, then it will include bibliographic, chemical, 
# crystal, experimental, refinement or atomic coordinate data resulting 
# from the CCDC's data processing and validation procedures.
#
#######################################################################

data_DIKFAF
_chemical_formula_moiety         
'(C40 H38 Cu4 N2 O20)n,2n(C3 H7 N1 O1),n(H2 O1)'
_chemical_name_systematic        
'catena-(tetrakis(\m~4~-Isophthalato)-aqua-bis(dimethylformamide)-ethanol-tetra-copper(ii) dimethylformamide ethanol solvate monohydrate)'
_symmetry_cell_setting           orthorhombic
_symmetry_space_group_name_H-M   'C m c a'
_symmetry_Int_Tables_number      64
_space_group_name_Hall           '-C 2ac 2'
loop_
_symmetry_equiv_pos_site_id
_symmetry_equiv_pos_as_xyz
1 x,y,z
2 1/2+x,1/2+y,z
3 -x,1/2-y,1/2+z
4 -x,1/2+y,1/2-z
5 x,-y,-z
6 1/2-x,-y,1/2+z
7 1/2-x,y,1/2-z
8 1/2+x,1/2-y,-z
9 -x,-y,-z
10 1/2-x,1/2-y,-z
11 x,1/2+y,1/2-z
12 x,1/2-y,1/2+z
13 -x,y,z
14 1/2+x,y,1/2-z
15 1/2+x,-y,1/2+z
16 1/2-x,1/2+y,z
_cell_length_a                   28.129(6)
_cell_length_b                   25.034(5)
_cell_length_c                   15.343(3)
_cell_angle_alpha                90
_cell_angle_beta                 90
_cell_angle_gamma                90
_cell_volume                     10804.3
_exptl_crystal_colour            blue
_exptl_crystal_description       sheet
_cell_formula_units_Z            8
loop_
_atom_site_label
_atom_site_type_symbol
_atom_site_fract_x
_atom_site_fract_y
_atom_site_fract_z
Cu1 Cu 0.5000 0.30911(4) 0.20058(7)
Cu2 Cu 0.5000 0.38530(4) 0.31984(7)
Cu3 Cu 0.21904(3) 0.59833(3) 0.18588(7)
O2 O 0.45061(17) 0.41882(18) 0.2468(4)
O3 O 0.5000 0.4446(3) 0.4183(5)
O4 O 0.45092(19) 0.3538(2) 0.1488(3)
O5 O 0.26114(17) 0.53995(18) 0.1438(4)
O6 O 0.31650(17) 0.54505(19) 0.2477(4)
O7 O 0.26208(19) 0.15142(18) 0.3653(4)
O8 O 0.31191(18) 0.15606(18) 0.2525(4)
O9 O 0.45026(17) 0.27566(17) 0.2718(3)
O10 O 0.44972(19) 0.34050(18) 0.3707(3)
O11 O 0.5000 0.2532(3) 0.1005(4)
O12 O 0.1764(2) 0.5927(2) 0.0720(5)
N2 N 0.1755(3) 0.5895(3) -0.0761(6)
C4 C 0.4341(3) 0.3961(3) 0.1807(6)
C5 C 0.3899(3) 0.4169(3) 0.1390(5)
C6 C 0.3704(3) 0.3914(3) 0.0680(6)
H1 H 0.3862 0.3615 0.0431
C7 C 0.3281(3) 0.4091(3) 0.0331(6)
H2 H 0.3149 0.3916 -0.0163
C8 C 0.3048(3) 0.4520(3) 0.0693(6)
H3 H 0.2753 0.4635 0.0459
C9 C 0.3245(2) 0.4786(3) 0.1405(6)
C10 C 0.3671(3) 0.4610(3) 0.1749(5)
H4 H 0.3809 0.4791 0.2232
C11 C 0.2989(2) 0.5253(3) 0.1803(6)
C12 C 0.2977(3) 0.1704(3) 0.3261(6)
C13 C 0.3255(3) 0.2122(3) 0.3738(6)
C14 C 0.3109(4) 0.2284(3) 0.4560(7)
H5 H 0.2835 0.2130 0.4821
C15 C 0.3365(4) 0.2667(3) 0.4992(7)
H6 H 0.3267 0.2777 0.5557
C16 C 0.3765(4) 0.2897(3) 0.4617(6)
H7 H 0.3939 0.3164 0.4922
C17 C 0.3909(3) 0.2735(2) 0.3795(5)
C18 C 0.3651(2) 0.2346(2) 0.3358(5)
H8 H 0.3749 0.2233 0.2794
C19 C 0.4342(2) 0.2982(2) 0.3377(4)
C20 C 0.4826(5) 0.2525(5) 0.0204(9)
C21 C 0.5000 0.2990(4) -0.0366(7)
C22 C 0.1926(4) 0.6039(3) 0.0025(9)
H9 H 0.2205 0.6252 0.0026
C23 C 0.1980(5) 0.6062(5) -0.1562(9)
H10 H 0.2256 0.6286 -0.1426
H11 H 0.1753 0.6268 -0.1912
H12 H 0.2083 0.5747 -0.1890
C24 C 0.1339(4) 0.5559(4) -0.0807(7)
H13 H 0.1227 0.5479 -0.0216
H14 H 0.1419 0.5225 -0.1106
H15 H 0.1087 0.5744 -0.1129
C20L C 0.5174(5) 0.2525(5) 0.0204(9)
Cu3F Cu 0.28096(3) 0.59833(3) 0.31412(7)
O2F O 0.04939(17) 0.41882(18) 0.2532(4)
O4F O 0.04908(19) 0.3538(2) 0.3512(3)
O5F O 0.23886(17) 0.53995(18) 0.3562(4)
O6F O 0.18350(17) 0.54505(19) 0.2523(4)
O12F O 0.3236(2) 0.5927(2) 0.4280(5)
N2F N 0.3245(3) 0.5895(3) 0.5761(6)
C4F C 0.0659(3) 0.3961(3) 0.3193(6)
C5F C 0.1101(3) 0.4169(3) 0.3610(5)
C6F C 0.1296(3) 0.3914(3) 0.4320(6)
H1F H 0.1138 0.3615 0.4569
C7F C 0.1719(3) 0.4091(3) 0.4669(6)
H2F H 0.1851 0.3916 0.5163
C8F C 0.1952(3) 0.4520(3) 0.4307(6)
H3F H 0.2247 0.4635 0.4541
C9F C 0.1755(2) 0.4786(3) 0.3595(6)
C10F C 0.1329(3) 0.4610(3) 0.3251(5)
H4F H 0.1191 0.4791 0.2768
C11F C 0.2011(2) 0.5253(3) 0.3197(6)
C22F C 0.3074(4) 0.6039(3) 0.4975(9)
H9F H 0.2795 0.6252 0.4974
C23F C 0.3020(5) 0.6062(5) 0.6562(9)
H10F H 0.2744 0.6286 0.6426
H11F H 0.3247 0.6268 0.6912
H12F H 0.2917 0.5747 0.6890
C24F C 0.3661(4) 0.5559(4) 0.5807(7)
H13F H 0.3773 0.5479 0.5216
H14F H 0.3581 0.5225 0.6106
H15F H 0.3913 0.5744 0.6129
O7L O 0.73792(19) 0.15142(18) 0.3653(4)
O8L O 0.68809(18) 0.15606(18) 0.2525(4)
O9L O 0.54974(17) 0.27566(17) 0.2718(3)
O10L O 0.55028(19) 0.34050(18) 0.3707(3)
C12L C 0.7023(3) 0.1704(3) 0.3261(6)
C13L C 0.6745(3) 0.2122(3) 0.3738(6)
C14L C 0.6891(4) 0.2284(3) 0.4560(7)
H5L H 0.7165 0.2130 0.4821
C15L C 0.6635(4) 0.2667(3) 0.4992(7)
H6L H 0.6733 0.2777 0.5557
C16L C 0.6235(4) 0.2897(3) 0.4617(6)
H7L H 0.6061 0.3164 0.4922
C17L C 0.6091(3) 0.2735(2) 0.3795(5)
C18L C 0.6349(2) 0.2346(2) 0.3358(5)
H8L H 0.6251 0.2233 0.2794
C19L C 0.5658(2) 0.2982(2) 0.3377(4)
Cu1F Cu 0.0000 0.30911(4) 0.29942(7)
Cu2F Cu 0.0000 0.38530(4) 0.18016(7)
Cu3A Cu 0.71904(3) 0.09833(3) 0.18588(7)
Cu3C Cu 0.78096(3) 0.09833(3) 0.31412(7)
Cu3J Cu 0.21904(3) 0.09833(3) 0.31412(7)
Cu3O Cu 0.28096(3) 0.09833(3) 0.18588(7)
O2L O 0.54939(17) 0.41882(18) 0.2468(4)
O4L O 0.54908(19) 0.3538(2) 0.1488(3)
O7J O 0.26208(19) 0.65142(18) 0.1347(4)
O7O O 0.23792(19) 0.65142(18) 0.3653(4)
O8J O 0.31191(18) 0.65606(18) 0.2475(4)
O8O O 0.18809(18) 0.65606(18) 0.2525(4)
O1 O 0.4578(4) 0.0383(4) 0.0900(7)
N1 N 0.4365(2) 0.1002(3) 0.2294(10)
C1 C 0.4454(5) 0.0515(5) 0.1766(9)
C2 C 0.4506(6) 0.1502(7) 0.2048(13)
C3 C 0.4256(5) 0.0971(6) 0.3200(10)
H16? H 0.5239 0.4653 0.4163
H17? H 0.4964 0.4319 0.4693
H18? H 0.5292 0.2456 0.0936
H19? H 0.4485 0.2538 0.0236
H20? H 0.4913 0.2196 -0.0074
H21? H 0.4862 0.2966 -0.0936
H22? H 0.4908 0.3321 -0.0098
H23? H 0.5340 0.2975 -0.0412
O13? O 0.5000 0.4800(11) 0.0329(15)
O14? O 0.4577(4) 0.1582(4) 0.1303(7)
O15? O 0.5000 0.4968(6) 0.1225(10)
C25? C 0.4217(11) 0.0653(13) 0.1901(19)
C26? C 0.4233(5) 0.1386(6) 0.1394(10)
H24? H 0.473(2) 0.484(2) 0.026(4)
H25? H 0.5000 0.449(5) 0.019(8)
loop_
_geom_bond_atom_site_label_1
_geom_bond_atom_site_label_2
_geom_bond_site_symmetry_1
_geom_bond_site_symmetry_2
O1 C1 1_555 1_555
N1 C1 1_555 1_555
C2 N1 1_555 1_555
C3 N1 1_555 1_555
Cu1 Cu2 1_555 1_555
Cu2 O2 1_555 1_555
Cu3 O5 1_555 1_555
O2 C4 1_555 1_555
O3 Cu2 1_555 1_555
O4 Cu1 1_555 1_555
O5 C11 1_555 1_555
O6 C11 1_555 1_555
O7 C12 1_555 1_555
O8 C12 1_555 1_555
O9 Cu1 1_555 1_555
O10 Cu2 1_555 1_555
O11 Cu1 1_555 1_555
O12 Cu3 1_555 1_555
N2 C22 1_555 1_555
C4 O4 1_555 1_555
C5 C4 1_555 1_555
C6 C5 1_555 1_555
H1 C6 1_555 1_555
C7 C6 1_555 1_555
H2 C7 1_555 1_555
C8 C7 1_555 1_555
H3 C8 1_555 1_555
C9 C8 1_555 1_555
C10 C5 1_555 1_555
H4 C10 1_555 1_555
C11 C9 1_555 1_555
C12 C13 1_555 1_555
C13 C14 1_555 1_555
C14 H5 1_555 1_555
C15 C14 1_555 1_555
H6 C15 1_555 1_555
C16 C15 1_555 1_555
H7 C16 1_555 1_555
C17 C16 1_555 1_555
C18 C13 1_555 1_555
H8 C18 1_555 1_555
C19 O9 1_555 1_555
C20 O11 1_555 1_555
C21 C20 1_555 1_555
C22 O12 1_555 1_555
H9 C22 1_555 1_555
C23 N2 1_555 1_555
H10 C23 1_555 1_555
H11 C23 1_555 1_555
H12 C23 1_555 1_555
C24 N2 1_555 1_555
H13 C24 1_555 1_555
H14 C24 1_555 1_555
H15 C24 1_555 1_555
C20L O11 1_555 1_555
Cu3F Cu3 1_555 1_555
O2F C4F 1_555 1_555
O4F C4F 1_555 1_555
O5F Cu3F 1_555 1_555
O6F Cu3 1_555 1_555
O12F Cu3F 1_555 1_555
N2F C22F 1_555 1_555
C4F C5F 1_555 1_555
C5F C6F 1_555 1_555
C6F H1F 1_555 1_555
C7F C6F 1_555 1_555
H2F C7F 1_555 1_555
C8F C7F 1_555 1_555
H3F C8F 1_555 1_555
C9F C8F 1_555 1_555
C10F C5F 1_555 1_555
H4F C10F 1_555 1_555
C11F O5F 1_555 1_555
C22F O12F 1_555 1_555
H9F C22F 1_555 1_555
C23F N2F 1_555 1_555
H10F C23F 1_555 1_555
H11F C23F 1_555 1_555
H12F C23F 1_555 1_555
C24F N2F 1_555 1_555
H13F C24F 1_555 1_555
H14F C24F 1_555 1_555
H15F C24F 1_555 1_555
O7L C12L 1_555 1_555
O8L C12L 1_555 1_555
O9L Cu1 1_555 1_555
O10L Cu2 1_555 1_555
C12L C13L 1_555 1_555
C13L C14L 1_555 1_555
C14L H5L 1_555 1_555
C15L C14L 1_555 1_555
H6L C15L 1_555 1_555
C16L C15L 1_555 1_555
H7L C16L 1_555 1_555
C17L C16L 1_555 1_555
C18L C13L 1_555 1_555
H8L C18L 1_555 1_555
C19L O9L 1_555 1_555
Cu1F O4F 1_555 1_555
Cu2F O2F 1_555 1_555
Cu3A O8L 1_555 1_555
Cu3C O7L 1_555 1_555
Cu3J O7 1_555 1_555
Cu3O O8 1_555 1_555
O2L Cu2 1_555 1_555
O4L Cu1 1_555 1_555
O7J Cu3 1_555 1_555
O7O Cu3F 1_555 1_555
O8J Cu3F 1_555 1_555
O8O Cu3 1_555 1_555
O6 Cu3F 1_555 1_555
O10 C19 1_555 1_555
C9 C10 1_555 1_555
C17 C18 1_555 1_555
C17 C19 1_555 1_555
C20 C20L 1_555 1_555
C21 C20L 1_555 1_555
O6F C11F 1_555 1_555
C9F C10F 1_555 1_555
C9F C11F 1_555 1_555
O10L C19L 1_555 1_555
C17L C18L 1_555 1_555
C17L C19L 1_555 1_555
Cu1F Cu2F 1_555 1_555
Cu3A Cu3C 1_555 1_555
Cu3J Cu3O 1_555 1_555

#END
