
#######################################################################
#
#                 Cambridge Crystallographic Data Centre
#                                CCDC 
#
#######################################################################
#
# If this CIF has been generated from an entry in the Cambridge 
# Structural Database, then it will include bibliographic, chemical, 
# crystal, experimental, refinement or atomic coordinate data resulting 
# from the CCDC's data processing and validation procedures.
#
#######################################################################

data_GAYFUJ
_chemical_formula_moiety         '(C6 H4 Cd1 N4)n,n(C3 H7 N1 O1)'
_chemical_name_systematic        
"catena-((\m~4~-4,4'-bipyrazolato)-cadmium(ii) dimethylformamide solvate)"
_symmetry_cell_setting           hexagonal
_symmetry_space_group_name_H-M   'P 61 2 2'
_symmetry_Int_Tables_number      178
_space_group_name_Hall           'P 61 2 (0 0 5)'
loop_
_symmetry_equiv_pos_site_id
_symmetry_equiv_pos_as_xyz
1 x,y,z
2 x-y,x,1/6+z
3 -y,-x,5/6-z
4 -y,x-y,1/3+z
5 x-y,-y,-z
6 -x,-y,1/2+z
7 x,x-y,1/6-z
8 -x+y,-x,2/3+z
9 y,x,1/3-z
10 y,-x+y,5/6+z
11 -x+y,y,1/2-z
12 -x,-x+y,2/3-z
_cell_length_a                   10.09032(12)
_cell_length_b                   10.09032(12)
_cell_length_c                   21.25676(38)
_cell_angle_alpha                90
_cell_angle_beta                 90
_cell_angle_gamma                120
_cell_volume                     1874.29
_exptl_crystal_colour            white
_exptl_crystal_description       plate-like
_cell_formula_units_Z            6
loop_
_atom_site_label
_atom_site_type_symbol
_atom_site_fract_x
_atom_site_fract_y
_atom_site_fract_z
Cd1 Cd 0.08819(13) 0.17637(25) 0.25000
C1 C -0.369930 0.131070 0.264940
C2 C -0.237010 0.160340 0.236720
H1 H -0.210320 0.188590 0.193980
N1 N -0.149010 0.142090 0.280440
N2 N -0.227540 0.101530 0.335670
C3 C -0.364080 0.094710 0.326090
H2 H -0.441730 0.069070 0.356740
Cd1A Cd -0.08818(28) 0.08819(13) 0.41667
Cd1J Cd -0.91182(28) 0.17637(25) 0.25000
Cd1H Cd -0.82363(25) 0.08819(13) 0.08333
C1J C -0.499000 0.131070 0.235060
C2J C -0.602650 0.160340 0.263280
H1J H -0.601090 0.188590 0.306020
N1J N -0.708900 0.142090 0.219560
N1J_2 N 0.291100 0.142090 0.219560
N2J N -0.670930 0.101530 0.164330
N2I N 0.101530 0.329070 0.169003
N2K N 0.227540 0.329070 0.330997
C3J C -0.541210 0.094710 0.173910
H2J H -0.489200 0.069070 0.143260
O1? O -0.049661 0.00000 0.00000
H3? H -0.208530 -0.112690 -0.059740
N3? N -0.253413 0.045384 -0.014839
C4? C -0.170713 -0.034348 -0.028761
C5? C -0.195692 0.164958 0.032446
H4? H -0.103511 0.176886 0.049719
H5? H -0.176196 0.258508 0.013719
H6? H -0.269499 0.137933 0.064923
C6? C -0.393834 0.005540 -0.048201
H7? H -0.415637 -0.074239 -0.077322
H8? H -0.475648 -0.027928 -0.018983
H9? H -0.382346 0.092647 -0.070187
loop_
_geom_bond_atom_site_label_1
_geom_bond_atom_site_label_2
_geom_bond_site_symmetry_1
_geom_bond_site_symmetry_2
Cd1 N1 1_555 1_555
C1 C2 1_555 1_555
C2 H1 1_555 1_555
N1 C2 1_555 1_555
N2 N1 1_555 1_555
C3 C1 1_555 1_555
H2 C3 1_555 1_555
Cd1A N2 1_555 1_555
Cd1J N1J 1_555 1_555
Cd1H N2J 1_555 1_555
C1J C1 1_555 1_555
C2J C1J 1_555 1_555
H1J C2J 1_555 1_555
N1J C2J 1_555 1_555
N1J_2 Cd1 1_555 1_555
N2J N1J 1_555 1_555
N2I Cd1 1_555 1_555
N2K Cd1 1_555 1_555
C3J C1J 1_555 1_555
H2J C3J 1_555 1_555
N2 C3 1_555 1_555
N2J C3J 1_555 1_555

#END
