
#######################################################################
#
#                 Cambridge Crystallographic Data Centre
#                                CCDC 
#
#######################################################################
#
# If this CIF has been generated from an entry in the Cambridge 
# Structural Database, then it will include bibliographic, chemical, 
# crystal, experimental, refinement or atomic coordinate data resulting 
# from the CCDC's data processing and validation procedures.
#
#######################################################################

data_GAYGEU
_chemical_formula_moiety         '(C6 H4 N4 Ni1)n,C2 H3 N1'
_chemical_name_systematic        
"catena-((\m~4~-4,4'-bipyrazolato)-nickel(ii) acetonitrile solvate)"
_symmetry_cell_setting           orthorhombic
_symmetry_space_group_name_H-M   'I m m a'
_symmetry_Int_Tables_number      74
_space_group_name_Hall           '-I 2b 2'
loop_
_symmetry_equiv_pos_site_id
_symmetry_equiv_pos_as_xyz
1 x,y,z
2 1/2+x,1/2+y,1/2+z
3 x,-y,-z
4 1/2+x,1/2-y,1/2-z
5 -x,1/2+y,-z
6 -x,1/2-y,z
7 1/2-x,y,1/2-z
8 1/2-x,-y,1/2+z
9 -x,-y,-z
10 1/2-x,1/2-y,1/2-z
11 -x,y,z
12 1/2-x,1/2+y,1/2+z
13 x,1/2-y,z
14 x,1/2+y,-z
15 1/2+x,-y,1/2+z
16 1/2+x,y,1/2-z
_cell_length_a                   14.6599(17)
_cell_length_b                   6.94944(70)
_cell_length_c                   10.0239(11)
_cell_angle_alpha                90
_cell_angle_beta                 90
_cell_angle_gamma                90
_cell_volume                     1021.22
_exptl_crystal_colour            'dark orange'
_exptl_crystal_description       plate-like
_cell_formula_units_Z            4
loop_
_atom_site_label
_atom_site_type_symbol
_atom_site_fract_x
_atom_site_fract_y
_atom_site_fract_z
_atom_site_U_iso_or_equiv
_atom_site_thermal_displace_type
Ni1 Ni 0.00000 0.00000 0.00000 0.0219 Uiso
C1 C -0.200406 -0.25 0.203893 0.0472 Uiso
C2 C -0.158939 -0.091676 0.152106 0.0472 Uiso
H1 H -0.174167 0.038335 0.171124 0.0472 Uiso
N1 N -0.091843 -0.152150 0.068314 0.0472 Uiso
C1F C -0.299594 -0.25 0.296107 0.0472 Uiso
C2F C -0.341061 -0.091676 0.347894 0.0472 Uiso
H1F H -0.325833 0.038335 0.328876 0.0472 Uiso
N1F N -0.408157 -0.152150 0.431686 0.0472 Uiso
C2I C -0.341061 -0.408324 0.347894 0.0472 Uiso
H1I H -0.325833 -0.538335 0.328876 0.0472 Uiso
N1I N -0.408157 -0.347850 0.431686 0.0472 Uiso
C2L C -0.158939 -0.408324 0.152106 0.0472 Uiso
H1L H -0.174167 -0.538335 0.171124 0.0472 Uiso
N1L N -0.091843 -0.347850 0.068314 0.0472 Uiso
Ni1A Ni -0.50000 -0.50000 0.50000 0.0219 Uiso
Ni1D Ni 0.00000 -0.50000 0.00000 0.0219 Uiso
Ni1F Ni -0.50000 0.00000 0.50000 0.0219 Uiso
N1B N -0.091843 0.152150 -0.068314 0.0472 Uiso
N1H N 0.091843 0.152150 -0.068314 0.0472 Uiso
N1J N 0.091843 -0.152150 0.068314 0.0472 Uiso
N2? N -0.467338 -0.096435 0.829179 0.0979 Uiso
C3? C -0.508487 -0.194086 0.899585 0.0979 Uiso
C4? C -0.562158 -0.321457 0.991420 0.0979 Uiso
H2? H -0.548599 -0.289279 1.08137 0.0979 Uiso
H3? H -0.625497 -0.303795 0.975567 0.0979 Uiso
H4? H -0.546419 -0.452079 0.975567 0.0979 Uiso
loop_
_geom_bond_atom_site_label_1
_geom_bond_atom_site_label_2
_geom_bond_site_symmetry_1
_geom_bond_site_symmetry_2
Ni1 N1 1_555 1_555
C1 C2 1_555 1_555
C2 H1 1_555 1_555
N1 C2 1_555 1_555
C1F C1 1_555 1_555
C2F C1F 1_555 1_555
H1F C2F 1_555 1_555
N1F C2F 1_555 1_555
C2I C1F 1_555 1_555
H1I C2I 1_555 1_555
N1I N1F 1_555 1_555
C2L C1 1_555 1_555
H1L C2L 1_555 1_555
N1L N1 1_555 1_555
Ni1A N1I 1_555 1_555
Ni1D N1L 1_555 1_555
Ni1F N1F 1_555 1_555
N1B Ni1 1_555 1_555
N1H Ni1 1_555 1_555
N1J Ni1 1_555 1_555
C2I N1I 1_555 1_555
C2L N1L 1_555 1_555

#END
