
#######################################################################
#
#                 Cambridge Crystallographic Data Centre
#                                CCDC 
#
#######################################################################
#
# If this CIF has been generated from an entry in the Cambridge 
# Structural Database, then it will include bibliographic, chemical, 
# crystal, experimental, refinement or atomic coordinate data resulting 
# from the CCDC's data processing and validation procedures.
#
#######################################################################

data_GAYGAQ
_chemical_formula_moiety         '(C8 H7 Cu1 N5)n'
_chemical_name_systematic        
catena-((\m~4~-4,4'-bipyrazolato)-(\m~2~-acetonitrile)-copper(ii))
_symmetry_cell_setting           orthorhombic
_symmetry_space_group_name_H-M   'I m m a'
_symmetry_Int_Tables_number      74
_space_group_name_Hall           '-I 2b 2'
loop_
_symmetry_equiv_pos_site_id
_symmetry_equiv_pos_as_xyz
1 x,y,z
2 1/2+x,1/2+y,1/2+z
3 x,-y,-z
4 1/2+x,1/2-y,1/2-z
5 -x,1/2+y,-z
6 -x,1/2-y,z
7 1/2-x,y,1/2-z
8 1/2-x,-y,1/2+z
9 -x,-y,-z
10 1/2-x,1/2-y,1/2-z
11 -x,y,z
12 1/2-x,1/2+y,1/2+z
13 x,1/2-y,z
14 x,1/2+y,-z
15 1/2+x,-y,1/2+z
16 1/2+x,y,1/2-z
_cell_length_a                   15.7895(13)
_cell_length_b                   7.13275(55)
_cell_length_c                   8.72068(60)
_cell_angle_alpha                90
_cell_angle_beta                 90
_cell_angle_gamma                90
_cell_volume                     982.145
_exptl_crystal_colour            brown
_exptl_crystal_description       plate-like
_cell_formula_units_Z            4
loop_
_atom_site_label
_atom_site_type_symbol
_atom_site_fract_x
_atom_site_fract_y
_atom_site_fract_z
Cu1 Cu 0.00000 0.00000 0.00000
N1 N 0.00000 0.25000 0.234467
N2 N 0.092990 -0.154670 0.094290
C1 C 0.00000 0.25000 0.366338
C2 C 0.165860 -0.095740 0.162070
C3 C 0.00000 0.25000 0.538343
C4 C 0.210890 -0.25000 0.203950
N2F N 0.407010 -0.154670 0.405710
C2F C 0.334140 -0.095740 0.337930
C4F C 0.289110 -0.25000 0.296050
N2I N 0.407010 -0.345330 0.405710
C2I C 0.334140 -0.404260 0.337930
N2L N 0.092990 -0.345330 0.094290
C2L C 0.165860 -0.404260 0.162070
Cu1A Cu 0.50000 -0.50000 0.50000
Cu1D Cu 0.00000 -0.50000 0.00000
Cu1D_2 Cu 0.00000 0.50000 0.00000
Cu1F Cu 0.50000 0.00000 0.50000
N1B N 0.00000 -0.25000 -0.234467
N2B N 0.092990 0.154670 -0.094290
N2H N -0.092990 0.154670 -0.094290
N2J N -0.092990 -0.154670 0.094290
H1? H 0.317606 0.530925 -0.322552
H2? H 0.056715 0.25000 0.574707
H3? H -0.028358 0.358729 0.574707
loop_
_geom_bond_atom_site_label_1
_geom_bond_atom_site_label_2
_geom_bond_site_symmetry_1
_geom_bond_site_symmetry_2
Cu1 N1 1_555 1_555
N1 C1 1_555 1_555
N2 Cu1 1_555 1_555
C1 C3 1_555 1_555
C2 N2 1_555 1_555
C4 C2 1_555 1_555
N2F C2F 1_555 1_555
C2F C4F 1_555 1_555
C4F C4 1_555 1_555
N2I N2F 1_555 1_555
C2I C4F 1_555 1_555
N2L N2 1_555 1_555
C2L C4 1_555 1_555
Cu1A N2I 1_555 1_555
Cu1D N2L 1_555 1_555
Cu1D_2 N1 1_555 1_555
Cu1F N2F 1_555 1_555
N1B Cu1 1_555 1_555
N2B Cu1 1_555 1_555
N2H Cu1 1_555 1_555
N2J Cu1 1_555 1_555
N2I C2I 1_555 1_555
N2L C2L 1_555 1_555
Cu1D N1B 1_555 1_555

#END
