
#######################################################################
#
#                 Cambridge Crystallographic Data Centre
#                                CCDC 
#
#######################################################################
#
# If this CIF has been generated from an entry in the Cambridge 
# Structural Database, then it will include bibliographic, chemical, 
# crystal, experimental, refinement or atomic coordinate data resulting 
# from the CCDC's data processing and validation procedures.
#
#######################################################################

data_YOZBOF01
_chemical_formula_moiety         '(C22 H18 N10 O4 Zn2)n,n(H2 O1)'
_chemical_name_systematic        
'catena-(bis((\m~2~-5-Methylbenzimidazolato)-(\m~2~-2-nitroimidazolato))-di-zinc(ii) unknown solvate monohydrate)'
_symmetry_cell_setting           hexagonal
_symmetry_space_group_name_H-M   'P 63/m m c'
_symmetry_Int_Tables_number      194
_space_group_name_Hall           '-P 6c 2c'
loop_
_symmetry_equiv_pos_site_id
_symmetry_equiv_pos_as_xyz
1 x,y,z
2 -y,x-y,z
3 -x+y,-x,z
4 -x,-y,1/2+z
5 y,-x+y,1/2+z
6 x-y,x,1/2+z
7 y,x,-z
8 x-y,-y,-z
9 -x,-x+y,-z
10 -y,-x,1/2-z
11 -x+y,y,1/2-z
12 x,x-y,1/2-z
13 -x,-y,-z
14 y,-x+y,-z
15 x-y,x,-z
16 x,y,1/2-z
17 -y,x-y,1/2-z
18 -x+y,-x,1/2-z
19 -y,-x,z
20 -x+y,y,z
21 x,x-y,z
22 y,x,1/2+z
23 x-y,-y,1/2+z
24 -x,-x+y,1/2+z
_cell_length_a                   25.9263(3)
_cell_length_b                   25.9263(3)
_cell_length_c                   19.6532(4)
_cell_angle_alpha                90
_cell_angle_beta                 90
_cell_angle_gamma                120
_cell_volume                     11440.5
_exptl_crystal_colour            yellow
_exptl_crystal_description       prism
_cell_formula_units_Z            12
loop_
_atom_site_label
_atom_site_type_symbol
_atom_site_fract_x
_atom_site_fract_y
_atom_site_fract_z
_atom_site_U_iso_or_equiv
_atom_site_thermal_displace_type
Zn1 Zn 0.10131(8) 0.43277(9) 0.40307(10) 0.0934 Uani
C1 C 0.0000 0.3836(8) 0.5000 0.0940 Uiso
H1 H 0.0000 0.4202 0.5000 0.1120 Uiso
N1 N 0.0360(5) 0.3734(6) 0.4585(6) 0.1160 Uiso
C2 C 0.0215(6) 0.3167(7) 0.4746(6) 0.1420 Uiso
C3 C 0.0480(10) 0.2821(9) 0.4434(10) 0.1920 Uiso
H2 H 0.0762 0.2957 0.4074 0.2300 Uiso
C4 C 0.0236(7) 0.2244(8) 0.4772(10) 0.2790 Uiso
C5 C 0.039(3) 0.178(3) 0.452(4) 0.5000 Uiso
H4 H 0.0033 0.1389 0.4494 0.5990 Uiso
H5 H 0.0676 0.1759 0.4838 0.5990 Uiso
H6 H 0.0578 0.1893 0.4068 0.5990 Uiso
C6 C 0.2165(4) 0.4330(7) 0.3997(9) 0.0760 Uiso
H7 H 0.2174 0.4347 0.3514 0.0910 Uiso
N2 N 0.1720(5) 0.4318(5) 0.4368(6) 0.1040 Uiso
C7 C 0.1902(6) 0.4338(7) 0.5012(8) 0.1220 Uiso
C8 C 0.1577(10) 0.4328(10) 0.5667(12) 0.1890 Uiso
H8 H 0.1201 0.4309 0.5676 0.2270 Uiso
C9 C 0.1908(6) 0.4353(12) 0.6272(13) 0.2730 Uiso
C10 C 0.147(2) 0.437(3) 0.679(2) 0.3100 Uiso
H9 H 0.1685 0.4625 0.7168 0.4640 Uiso
H10 H 0.1199 0.3961 0.6953 0.4640 Uiso
H11 H 0.1230 0.4517 0.6561 0.4640 Uiso
C11 C 0.0923(10) 0.5461(5) 0.4131(9) 0.0670 Uiso
N3 N 0.1127(5) 0.5129(5) 0.4273(5) 0.0840 Uiso
C12 C 0.1599(9) 0.5524(7) 0.4612(9) 0.1600 Uiso
H12 H 0.1889 0.5455 0.4820 0.1920 Uiso
N4 N 0.0390(15) 0.5195(7) 0.3751(16) 0.1869 Uani
O1 O 0.0133(6) 0.5473(6) 0.3687(10) 0.2116 Uani
C13 C 0.1073(10) 0.4300(10) 0.2500 0.0780 Uiso
N5 N 0.0819(5) 0.4058(5) 0.3061(6) 0.0920 Uiso
C14 C 0.0311(7) 0.3544(7) 0.2835(7) 0.1210 Uiso
H13 H 0.0015 0.3245 0.3118 0.1450 Uiso
N6 N 0.1613(8) 0.4849(8) 0.2500 0.0871 Uani
O2 O 0.1851(5) 0.5097(5) 0.3049(5) 0.0814 Uani
Zn1H Zn -0.10131(8) 0.33146(12) 0.59693(10) 0.0934 Uani
Zn1S Zn 0.33146(12) 0.43277(9) 0.40307(10) 0.0934 Uani
Zn1T Zn 0.10131(8) 0.66854(12) 0.40307(10) 0.0934 Uani
Zn1O Zn 0.10131(8) 0.43277(9) 0.09693(10) 0.0934 Uani
N1H N -0.0360(5) 0.3374(8) 0.5415(6) 0.1160 Uiso
C2H C -0.0215(6) 0.2952(9) 0.5254(6) 0.1420 Uiso
C3H C -0.0480(10) 0.2341(13) 0.5566(10) 0.1920 Uiso
H2H H -0.0762 0.2195 0.5926 0.2300 Uiso
C4H C -0.0236(7) 0.2008(11) 0.5228(10) 0.2790 Uiso
C5H C -0.039(3) 0.139(4) 0.548(4) 0.5000 Uiso
H4H H -0.0033 0.1356 0.5506 0.5990 Uiso
H5H H -0.0676 0.1083 0.5162 0.5990 Uiso
H6H H -0.0578 0.1315 0.5932 0.5990 Uiso
N2S N 0.2598(7) 0.4318(5) 0.4368(6) 0.1040 Uiso
N2H N -0.1720(5) 0.2598(7) 0.5632(6) 0.1040 Uiso
C7S C 0.2436(9) 0.4338(7) 0.5012(8) 0.1220 Uiso
C8S C 0.2751(14) 0.4328(10) 0.5667(12) 0.1890 Uiso
H8S H 0.3108 0.4309 0.5676 0.2270 Uiso
C9S C 0.2445(13) 0.4353(12) 0.6272(13) 0.2730 Uiso
C10S C 0.290(4) 0.437(3) 0.679(2) 0.3100 Uiso
H9S H 0.2940 0.4625 0.7168 0.4640 Uiso
H10S H 0.2762 0.3961 0.6953 0.4640 Uiso
H11S H 0.3287 0.4517 0.6561 0.4640 Uiso
N3T N 0.1127(5) 0.5998(7) 0.4273(5) 0.0840 Uiso
N3H N -0.1127(5) 0.4002(7) 0.5727(5) 0.0840 Uiso
C12T C 0.1599(9) 0.6075(11) 0.4612(9) 0.1600 Uiso
H12T H 0.1889 0.6434 0.4820 0.1920 Uiso
O1T O 0.0133(6) 0.4660(8) 0.3687(10) 0.2116 Uani
N5O N 0.0819(5) 0.4058(5) 0.1939(6) 0.0920 Uiso
N5H N -0.0819(5) 0.3239(7) 0.6939(6) 0.0920 Uiso
C14O C 0.0311(7) 0.3544(7) 0.2165(7) 0.1210 Uiso
H13O H 0.0015 0.3245 0.1882 0.1450 Uiso
O2O O 0.1851(5) 0.5097(5) 0.1951(5) 0.0814 Uani
H3? H 0.0416 0.2011 0.4671 0.3350 Uiso
H14? H 0.1747 0.4370 0.6700 0.3280 Uiso
loop_
_atom_site_aniso_label
_atom_site_aniso_U_11
_atom_site_aniso_U_22
_atom_site_aniso_U_33
_atom_site_aniso_U_23
_atom_site_aniso_U_13
_atom_site_aniso_U_12
Zn1 0.0679(18) 0.103(2) 0.120(2) 0.0265(12) 0.0411(11) 0.0508(14)
N4 0.22(3) 0.078(11) 0.31(3) -0.045(13) -0.09(3) 0.110(17)
O1 0.114(11) 0.093(13) 0.42(2) -0.043(13) -0.052(13) 0.046(9)
N6 0.040(15) 0.061(17) 0.16(3) 0.000 0.000 0.025(14)
O2 0.058(7) 0.095(9) 0.087(10) -0.003(6) 0.013(6) 0.035(7)
Zn1H 0.0679 0.0693 0.12 0.0146 0.0411 0.0171
Zn1S 0.0693 0.103 0.12 0.0265 -0.0146 0.0522
Zn1T 0.0679 0.0693 0.12 0.0146 0.0411 0.0171
Zn1O 0.0679 0.103 0.12 -0.0265 -0.0411 0.0508
O1T 0.114 0.115 0.42 -0.009 -0.052 0.068
O2O 0.058 0.095 0.087 0.003 -0.013 0.035
loop_
_geom_bond_atom_site_label_1
_geom_bond_atom_site_label_2
_geom_bond_site_symmetry_1
_geom_bond_site_symmetry_2
Zn1 N1 1_555 1_555
C1 H1 1_555 1_555
N1 C1 1_555 1_555
C2 N1 1_555 1_555
C3 C2 1_555 1_555
H2 C3 1_555 1_555
C4 C3 1_555 1_555
C5 C4 1_555 1_555
H4 C5 1_555 1_555
H5 C5 1_555 1_555
H6 C5 1_555 1_555
C6 H7 1_555 1_555
N2 Zn1 1_555 1_555
C7 N2 1_555 1_555
C8 C7 1_555 1_555
H8 C8 1_555 1_555
C9 C8 1_555 1_555
C10 C9 1_555 1_555
H9 C10 1_555 1_555
H10 C10 1_555 1_555
H11 C10 1_555 1_555
C11 N3 1_555 1_555
N3 Zn1 1_555 1_555
C12 N3 1_555 1_555
H12 C12 1_555 1_555
N4 C11 1_555 1_555
O1 N4 1_555 1_555
C13 N5 1_555 1_555
N5 Zn1 1_555 1_555
C14 N5 1_555 1_555
H13 C14 1_555 1_555
N6 C13 1_555 1_555
O2 N6 1_555 1_555
Zn1H N1H 1_555 1_555
Zn1S N2S 1_555 1_555
Zn1T N3T 1_555 1_555
Zn1O N5O 1_555 1_555
N1H C1 1_555 1_555
C2H C2 1_555 1_555
C3H C2H 1_555 1_555
H2H C3H 1_555 1_555
C4H C4 1_555 1_555
C5H C4H 1_555 1_555
H4H C5H 1_555 1_555
H5H C5H 1_555 1_555
H6H C5H 1_555 1_555
N2S C6 1_555 1_555
N2H Zn1H 1_555 1_555
C7S C7 1_555 1_555
C8S C7S 1_555 1_555
H8S C8S 1_555 1_555
C9S C9 1_555 1_555
C10S C9S 1_555 1_555
H9S C10S 1_555 1_555
H10S C10S 1_555 1_555
H11S C10S 1_555 1_555
N3T C11 1_555 1_555
N3H Zn1H 1_555 1_555
C12T C12 1_555 1_555
H12T C12T 1_555 1_555
O1T N4 1_555 1_555
N5O C13 1_555 1_555
N5H Zn1H 1_555 1_555
C14O C14 1_555 1_555
H13O C14O 1_555 1_555
O2O N6 1_555 1_555
C6 N2 1_555 1_555
N1H C2H 1_555 1_555
C3H C4H 1_555 1_555
N2S C7S 1_555 1_555
C8S C9S 1_555 1_555
N3T C12T 1_555 1_555
N5O C14O 1_555 1_555

#END
