
#######################################################################
#
#                 Cambridge Crystallographic Data Centre
#                                CCDC 
#
#######################################################################
#
# If this CIF has been generated from an entry in the Cambridge 
# Structural Database, then it will include bibliographic, chemical, 
# crystal, experimental, refinement or atomic coordinate data resulting 
# from the CCDC's data processing and validation procedures.
#
#######################################################################

data_YOZBIZ
_chemical_formula_moiety         '(C20 H12 N12 O8 Zn2)n'
_chemical_name_systematic        
'catena-(bis((\m~2~-5-Nitrobenzimidazolato)-(\m~2~-2-nitroimidazolato))-di-zinc(ii) unknown solvate)'
_symmetry_cell_setting           hexagonal
_symmetry_space_group_name_H-M   'P 63/m m c'
_symmetry_Int_Tables_number      194
_space_group_name_Hall           '-P 6c 2c'
loop_
_symmetry_equiv_pos_site_id
_symmetry_equiv_pos_as_xyz
1 x,y,z
2 -y,x-y,z
3 -x+y,-x,z
4 -x,-y,1/2+z
5 y,-x+y,1/2+z
6 x-y,x,1/2+z
7 y,x,-z
8 x-y,-y,-z
9 -x,-x+y,-z
10 -y,-x,1/2-z
11 -x+y,y,1/2-z
12 x,x-y,1/2-z
13 -x,-y,-z
14 y,-x+y,-z
15 x-y,x,-z
16 x,y,1/2-z
17 -y,x-y,1/2-z
18 -x+y,-x,1/2-z
19 -y,-x,z
20 -x+y,y,z
21 x,x-y,z
22 y,x,1/2+z
23 x-y,-y,1/2+z
24 -x,-x+y,1/2+z
_cell_length_a                   26.1174(3)
_cell_length_b                   26.1174(3)
_cell_length_c                   19.4910(4)
_cell_angle_alpha                90
_cell_angle_beta                 90
_cell_angle_gamma                120
_cell_volume                     11514
_exptl_crystal_colour            yellow
_exptl_crystal_description       prism
_cell_formula_units_Z            12
loop_
_atom_site_label
_atom_site_type_symbol
_atom_site_fract_x
_atom_site_fract_y
_atom_site_fract_z
_atom_site_U_iso_or_equiv
_atom_site_thermal_displace_type
Zn1 Zn 0.43548(9) 0.33209(8) 0.59630(11) 0.0819 Uani
C1 C 0.3580(9) 0.3264(7) 0.7115(9) 0.1110 Uiso
H1 H 0.3300 0.3287 0.6827 0.1330 Uiso
N1 N 0.4049(6) 0.3224(5) 0.6909(7) 0.0886 Uani
C2 C 0.4295(10) 0.3202(8) 0.7500 0.0600 Uiso
N2 N 0.4868(7) 0.3226(6) 0.7500 0.0576 Uani
O1 O 0.5082(5) 0.3215(4) 0.6939(5) 0.0721 Uani
C3 C 0.5622(15) 0.3828(19) 0.5400(15) 0.1190 Uiso
H2 H 0.5564 0.3458 0.5246 0.1430 Uiso
N3 N 0.5179(11) 0.3938(10) 0.5671(10) 0.0480 Uiso
C6 C 0.5450(12) 0.4550(12) 0.600(3) 0.0600 Uiso
N6 N 0.5180(9) 0.4820(9) 0.6104(17) 0.0860 Uiso
O2 O 0.5478(9) 0.5347(9) 0.6220(10) 0.0840 Uiso
C7 C 0.4327(6) 0.2164(3) 0.6001(5) 0.0660 Uiso
H4 H 0.4341 0.2170 0.6488 0.0800 Uiso
N7 N 0.4316(4) 0.2602(2) 0.5607(5) 0.0772 Uani
C8 C 0.4300(7) 0.2416(4) 0.4962(5) 0.1100 Uiso
C9 C 0.4268(11) 0.2682(6) 0.4341(5) 0.2220 Uiso
H5 H 0.4249 0.3036 0.4336 0.2660 Uiso
C10 C 0.4266(14) 0.2400(7) 0.3751(5) 0.2850 Uiso
N8 N 0.441(7) 0.281(6) 0.319(6) 0.6100 Uiso
O4 O 0.4258(19) 0.319(2) 0.316(3) 0.2400 Uiso
C11 C 0.3879(9) 0.3879(9) 0.5000 0.0940 Uiso
H7 H 0.4243 0.4243 0.5000 0.1130 Uiso
N9 N 0.3765(6) 0.3384(5) 0.5404(8) 0.1156 Uani
C12 C 0.3197(7) 0.2977(8) 0.5248(8) 0.0940 Uiso
C13 C 0.2856(9) 0.2392(9) 0.5516(10) 0.1320 Uiso
C14 C 0.2313(10) 0.2083(11) 0.5270(11) 0.1540 Uiso
N10 N 0.1982(19) 0.1375(18) 0.558(2) 0.1650 Uiso
Zn1O Zn 0.43548(9) 0.33209(8) 0.90370(11) 0.0819 Uani
Zn1F Zn 0.33209(8) 0.43548(9) 0.40370(11) 0.0819 Uani
Zn1R Zn 0.66791(8) 0.56452(9) 0.59630(11) 0.0819 Uani
Zn1T Zn 0.43548(9) 0.10339(12) 0.59630(11) 0.0819 Uani
C1O C 0.3580(9) 0.3264(7) 0.7885(9) 0.1110 Uiso
N1O N 0.4049(6) 0.3224(5) 0.8091(7) 0.0886 Uani
O1O O 0.5082(5) 0.3215(4) 0.8061(5) 0.0721 Uani
C3R C 0.6172(19) 0.4378(15) 0.5400(15) 0.1190 Uiso
N3R N 0.6062(10) 0.4821(11) 0.5671(10) 0.0480 Uiso
O2R O 0.4653(9) 0.4522(9) 0.6220(10) 0.0840 Uiso
N7T N 0.4316(4) 0.1714(4) 0.5607(5) 0.0772 Uani
C8T C 0.4300(7) 0.1884(8) 0.4962(5) 0.1100 Uiso
C9T C 0.4268(11) 0.1586(13) 0.4341(5) 0.2220 Uiso
C10T C 0.4266(14) 0.1866(16) 0.3751(5) 0.2850 Uiso
N8T N 0.441(7) 0.160(9) 0.319(6) 0.6100 Uiso
N9F N 0.3384(5) 0.3765(6) 0.4596(8) 0.1156 Uani
C12F C 0.2977(8) 0.3197(7) 0.4752(8) 0.0940 Uiso
C13F C 0.2392(9) 0.2856(9) 0.4484(10) 0.1320 Uiso
C14F C 0.2083(11) 0.2313(10) 0.4730(11) 0.1540 Uiso
N10F N 0.1375(18) 0.1982(19) 0.442(2) 0.1650 Uiso
O8 O 0.3713(12) 0.1857(6) 0.7500 0.1041 Uani
C15 C 0.305(6) 0.152(3) 0.7500 0.3000 Uiso
C16 C 0.271(3) 0.1357(14) 0.7500 0.1390 Uiso
C17 C 0.241(3) 0.075(4) 0.7500 0.1700 Uiso
C17K C 0.241(3) 0.166(5) 0.7500 0.1700 Uiso
C4? C 0.5511(10) 0.4489(10) 0.576(2) 0.0410 Uiso
C5? C 0.5490(19) 0.3979(19) 0.524(2) 0.1410 Uiso
H3? H 0.5371 0.3642 0.4957 0.1690 Uiso
N4? N 0.5108(19) 0.4086(19) 0.5878(19) 0.1370 Uiso
N5? N 0.5249(11) 0.4751(11) 0.658(3) 0.1500 Uiso
O3? O 0.5578(14) 0.5225(14) 0.6744(15) 0.1520 Uiso
H6? H 0.4264 0.2574 0.3323 0.3420 Uiso
O5? O 0.480(5) 0.290(5) 0.2500 0.3700 Uiso
H8? H 0.3008 0.2236 0.5848 0.1580 Uiso
H9? H 0.2061 0.1697 0.5445 0.1850 Uiso
O6? O 0.1433(17) 0.1169(15) 0.5204(18) 0.2000 Uiso
O7? O 0.219(2) 0.1093(11) 0.595(2) 0.3300 Uiso
C18? C 0.098(4) 0.549(2) 0.615(4) 0.4000 Uiso
C19? C 0.0479(14) 0.5239(7) 0.5609(16) 0.1500 Uiso
C20? C 0.357(3) 0.1785(15) 0.2500 0.2200 Uiso
C21? C 0.220(4) 0.1101(18) 0.335(4) 0.3900 Uiso
C22? C 0.6667 0.3333 0.606(8) 0.2500 Uiso
C23? C 0.6667 0.3333 0.546(8) 0.3000 Uiso
C24? C 0.551(3) 0.449(3) 0.2500 0.2300 Uiso
C25? C 0.6667 0.3333 0.654(19) 0.8000 Uiso
loop_
_atom_site_aniso_label
_atom_site_aniso_U_11
_atom_site_aniso_U_22
_atom_site_aniso_U_33
_atom_site_aniso_U_23
_atom_site_aniso_U_13
_atom_site_aniso_U_12
Zn1 0.087(3) 0.067(2) 0.100(3) 0.0132(10) -0.0190(11) 0.0447(16)
N1 0.094(10) 0.096(10) 0.103(12) -0.008(7) -0.005(9) 0.068(8)
N2 0.066(14) 0.034(10) 0.070(16) 0.000 0.000 0.023(9)
O1 0.081(7) 0.092(8) 0.055(7) 0.004(5) 0.001(6) 0.052(6)
N7 0.116(10) 0.108(10) 0.021(6) -0.024(6) -0.015(6) 0.066(9)
N9 0.100(11) 0.054(8) 0.172(14) 0.015(8) -0.067(10) 0.023(8)
Zn1O 0.087 0.067 0.1 -0.0132 0.019 0.0447
Zn1F 0.067 0.087 0.1 0.019 -0.0132 0.0447
Zn1R 0.067 0.087 0.1 0.019 -0.0132 0.0447
Zn1T 0.087 0.0646 0.1 -0.0322 -0.019 0.0423
N1O 0.094 0.096 0.103 0.008 0.005 0.068
O1O 0.081 0.092 0.055 -0.004 -0.001 0.052
N7T 0.116 0.092 0.021 0.009 -0.015 0.05
N9F 0.054 0.1 0.172 0.067 -0.015 0.023
O8 0.16(2) 0.090(11) 0.083(14) 0.000 0.000 0.078(11)
loop_
_geom_bond_atom_site_label_1
_geom_bond_atom_site_label_2
_geom_bond_site_symmetry_1
_geom_bond_site_symmetry_2
Zn1 N1 1_555 1_555
C1 H1 1_555 1_555
N1 C1 1_555 1_555
C2 N1 1_555 1_555
N2 C2 1_555 1_555
O1 N2 1_555 1_555
C3 H2 1_555 1_555
N3 Zn1 1_555 1_555
C6 N3 1_555 1_555
N6 C6 1_555 1_555
O2 N6 1_555 1_555
C7 H4 1_555 1_555
N7 Zn1 1_555 1_555
C8 N7 1_555 1_555
C9 C8 1_555 1_555
H5 C9 1_555 1_555
C10 C9 1_555 1_555
N8 C10 1_555 1_555
O4 N8 1_555 1_555
C11 H7 1_555 1_555
N9 Zn1 1_555 1_555
C12 N9 1_555 1_555
C13 C12 1_555 1_555
C14 C13 1_555 1_555
N10 C14 1_555 1_555
O8 C15 1_555 1_555
C15 C16 1_555 1_555
C16 C17 1_555 1_555
Zn1O N1O 1_555 1_555
Zn1F N9F 1_555 1_555
Zn1R N3R 1_555 1_555
Zn1T N7T 1_555 1_555
C1O C1 1_555 1_555
N1O C2 1_555 1_555
O1O N2 1_555 1_555
C3R C3 1_555 1_555
N3R C6 1_555 1_555
O2R N6 1_555 1_555
N7T C7 1_555 1_555
C8T C8 1_555 1_555
C9T C8T 1_555 1_555
C10T C10 1_555 1_555
N8T C10T 1_555 1_555
N9F C11 1_555 1_555
C12F C12 1_555 1_555
C13F C12F 1_555 1_555
C14F C14 1_555 1_555
N10F C14F 1_555 1_555
C17K C16 1_555 1_555
C3 N3 1_555 1_555
C7 N7 1_555 1_555
C11 N9 1_555 1_555
C1O N1O 1_555 1_555
C3R N3R 1_555 1_555
N7T C8T 1_555 1_555
C9T C10T 1_555 1_555
N9F C12F 1_555 1_555
C13F C14F 1_555 1_555

#END
