
#######################################################################
#
#                 Cambridge Crystallographic Data Centre
#                                CCDC 
#
#######################################################################
#
# If this CIF has been generated from an entry in the Cambridge 
# Structural Database, then it will include bibliographic, chemical, 
# crystal, experimental, refinement or atomic coordinate data resulting 
# from the CCDC's data processing and validation procedures.
#
#######################################################################

data_YOZBOF
_chemical_formula_moiety         '(C22 H18 N10 O4 Zn2)n,n(H2 O1)'
_chemical_name_systematic        
'catena-(bis((\m~2~-5-Methylbenzimidazolato)-(\m~2~-2-nitroimidazolato))-di-zinc(ii) unknown solvate monohydrate)'
_symmetry_cell_setting           hexagonal
_symmetry_space_group_name_H-M   'P 63/m m c'
_symmetry_Int_Tables_number      194
_space_group_name_Hall           '-P 6c 2c'
loop_
_symmetry_equiv_pos_site_id
_symmetry_equiv_pos_as_xyz
1 x,y,z
2 -y,x-y,z
3 -x+y,-x,z
4 -x,-y,1/2+z
5 y,-x+y,1/2+z
6 x-y,x,1/2+z
7 y,x,-z
8 x-y,-y,-z
9 -x,-x+y,-z
10 -y,-x,1/2-z
11 -x+y,y,1/2-z
12 x,x-y,1/2-z
13 -x,-y,-z
14 y,-x+y,-z
15 x-y,x,-z
16 x,y,1/2-z
17 -y,x-y,1/2-z
18 -x+y,-x,1/2-z
19 -y,-x,z
20 -x+y,y,z
21 x,x-y,z
22 y,x,1/2+z
23 x-y,-y,1/2+z
24 -x,-x+y,1/2+z
_cell_length_a                   25.789(7)
_cell_length_b                   25.789(7)
_cell_length_c                   19.797(8)
_cell_angle_alpha                90
_cell_angle_beta                 90
_cell_angle_gamma                120
_cell_volume                     11402.5
_exptl_crystal_colour            yellow
_exptl_crystal_description       prism
_cell_formula_units_Z            12
loop_
_atom_site_label
_atom_site_type_symbol
_atom_site_fract_x
_atom_site_fract_y
_atom_site_fract_z
_atom_site_U_iso_or_equiv
_atom_site_thermal_displace_type
Zn1 Zn 0.10032(12) 0.43191(13) 0.40215(13) 0.0971 Uani
C1 C 0.0000 0.3842(14) 0.5000 0.1060 Uiso
H1 H 0.0000 0.4210 0.5000 0.1280 Uiso
N1 N 0.0351(8) 0.3713(9) 0.4572(9) 0.1230 Uiso
C2 C 0.0221(8) 0.3148(10) 0.4730(9) 0.1340 Uiso
C3 C 0.0464(14) 0.2826(15) 0.4440(15) 0.1820 Uiso
H2 H 0.0756 0.2975 0.4090 0.2180 Uiso
C4 C 0.0212(10) 0.2217(13) 0.4743(11) 0.2800 Uiso
C5 C 0.050(4) 0.187(5) 0.442(5) 0.4100 Uiso
C6 C 0.2161(6) 0.4321(13) 0.3974(17) 0.0920 Uiso
H7 H 0.2170 0.4341 0.3494 0.1100 Uiso
N2 N 0.1708(8) 0.4306(8) 0.4359(9) 0.1040 Uiso
C7 C 0.1902(9) 0.4323(10) 0.5015(12) 0.1200 Uiso
C8 C 0.1571(16) 0.4365(15) 0.5617(18) 0.1830 Uiso
H8 H 0.1200 0.4358 0.5610 0.2200 Uiso
C9 C 0.1940(8) 0.4419(17) 0.6245(15) 0.2480 Uiso
C10 C 0.158(4) 0.449(4) 0.683(3) 0.2800 Uiso
H10 H 0.1849 0.4831 0.7100 0.4140 Uiso
H11 H 0.1411 0.4137 0.7104 0.4140 Uiso
H12 H 0.1273 0.4549 0.6648 0.4140 Uiso
C11 C 0.0917(15) 0.5458(8) 0.4087(16) 0.0820 Uiso
N3 N 0.1136(8) 0.5117(9) 0.4242(9) 0.1030 Uiso
C12 C 0.1642(14) 0.5550(12) 0.4542(14) 0.1610 Uiso
H13 H 0.1950 0.5493 0.4726 0.1930 Uiso
N4 N 0.039(3) 0.5194(15) 0.370(3) 0.2644 Uani
O1 O 0.0084(10) 0.5453(9) 0.3676(14) 0.2080 Uani
C13 C 0.1062(15) 0.4296(14) 0.2500 0.0790 Uiso
N5 N 0.0800(8) 0.4042(8) 0.3069(9) 0.0920 Uiso
C14 C 0.0285(11) 0.3541(10) 0.2838(10) 0.1130 Uiso
H14 H -0.0020 0.3245 0.3115 0.1350 Uiso
N6 N 0.1620(11) 0.4866(12) 0.2500 0.0824 Uani
O2 O 0.1858(7) 0.5085(7) 0.3053(7) 0.0884 Uani
Zn1H Zn -0.10032(12) 0.33159(18) 0.59785(13) 0.0971 Uani
Zn1S Zn 0.33159(18) 0.43191(13) 0.40215(13) 0.0971 Uani
Zn1T Zn 0.10032(12) 0.66841(18) 0.40215(13) 0.0971 Uani
Zn1O Zn 0.10032(12) 0.43191(13) 0.09785(13) 0.0971 Uani
N1H N -0.0351(8) 0.3362(12) 0.5428(9) 0.1230 Uiso
C2H C -0.0221(8) 0.2927(13) 0.5270(9) 0.1340 Uiso
C3H C -0.0464(14) 0.2362(21) 0.5560(15) 0.1820 Uiso
H2H H -0.0756 0.2219 0.5910 0.2180 Uiso
C4H C -0.0212(10) 0.2005(16) 0.5257(11) 0.2800 Uiso
C5H C -0.050(4) 0.137(6) 0.558(5) 0.4100 Uiso
N2S N 0.2598(11) 0.4306(8) 0.4359(9) 0.1040 Uiso
N2H N -0.1708(8) 0.2598(11) 0.5641(9) 0.1040 Uiso
C7S C 0.2421(13) 0.4323(10) 0.5015(12) 0.1200 Uiso
C8S C 0.2794(22) 0.4365(15) 0.5617(18) 0.1830 Uiso
H8S H 0.3158 0.4358 0.5610 0.2200 Uiso
C9S C 0.2479(19) 0.4419(17) 0.6245(15) 0.2480 Uiso
C10S C 0.291(6) 0.449(4) 0.683(3) 0.2800 Uiso
H10S H 0.2982 0.4831 0.7100 0.4140 Uiso
H11S H 0.2726 0.4137 0.7104 0.4140 Uiso
H12S H 0.3276 0.4549 0.6648 0.4140 Uiso
N3T N 0.1136(8) 0.6019(12) 0.4242(9) 0.1030 Uiso
N3H N -0.1136(8) 0.3981(12) 0.5758(9) 0.1030 Uiso
C12T C 0.1642(14) 0.6092(18) 0.4542(14) 0.1610 Uiso
H13T H 0.1950 0.6457 0.4726 0.1930 Uiso
O1T O 0.0084(10) 0.4631(13) 0.3676(14) 0.2080 Uani
N5O N 0.0800(8) 0.4042(8) 0.1931(9) 0.0920 Uiso
N5H N -0.0800(8) 0.3242(11) 0.6931(9) 0.0920 Uiso
C14O C 0.0285(11) 0.3541(10) 0.2162(10) 0.1130 Uiso
H14O H -0.0020 0.3245 0.1885 0.1350 Uiso
O2O O 0.1858(7) 0.5085(7) 0.1947(7) 0.0884 Uani
H3? H 0.0350 0.1961 0.4577 0.3420 Uiso
H4? H 0.0198 0.1471 0.4335 0.6150 Uiso
H5? H 0.0868 0.4589 0.2387 0.6150 Uiso
H6? H 0.0300 0.3844 0.4170 0.6150 Uiso
H9? H 0.1789 0.4456 0.6669 0.2980 Uiso
O3? O 0.1854(7) 0.3707(15) 0.2500 0.1210 Uiso
O4? O 0.1357(11) 0.271(2) 0.2500 0.2130 Uiso
C15? C 0.8734(18) 0.1266(18) 0.363(4) 0.1400 Uiso
loop_
_atom_site_aniso_label
_atom_site_aniso_U_11
_atom_site_aniso_U_22
_atom_site_aniso_U_33
_atom_site_aniso_U_23
_atom_site_aniso_U_13
_atom_site_aniso_U_12
Zn1 0.078(2) 0.114(3) 0.107(2) 0.0164(18) 0.0272(17) 0.0537(17)
N4 0.36(8) 0.13(2) 0.38(7) -0.10(3) -0.20(6) 0.18(4)
O1 0.148(19) 0.120(19) 0.34(3) -0.02(2) -0.07(2) 0.055(15)
N6 0.049(19) 0.09(2) 0.11(3) 0.000 0.000 0.036(18)
O2 0.082(11) 0.110(12) 0.076(12) -0.004(10) -0.005(9) 0.050(10)
Zn1H 0.078 0.0846 0.107 0.0108 0.0272 0.0243
Zn1S 0.0846 0.114 0.107 0.0164 -0.0108 0.0603
Zn1T 0.078 0.0846 0.107 0.0108 0.0272 0.0243
Zn1O 0.078 0.114 0.107 -0.0164 -0.0272 0.0537
O1T 0.148 0.158 0.34 -0.05 -0.07 0.093
O2O 0.082 0.11 0.076 0.004 0.005 0.05
loop_
_geom_bond_atom_site_label_1
_geom_bond_atom_site_label_2
_geom_bond_site_symmetry_1
_geom_bond_site_symmetry_2
Zn1 N1 1_555 1_555
C1 H1 1_555 1_555
N1 C1 1_555 1_555
C2 N1 1_555 1_555
C3 C2 1_555 1_555
H2 C3 1_555 1_555
C4 C3 1_555 1_555
C5 C4 1_555 1_555
C6 H7 1_555 1_555
N2 Zn1 1_555 1_555
C7 N2 1_555 1_555
C8 C7 1_555 1_555
H8 C8 1_555 1_555
C9 C8 1_555 1_555
C10 C9 1_555 1_555
H10 C10 1_555 1_555
H11 C10 1_555 1_555
H12 C10 1_555 1_555
C11 N3 1_555 1_555
N3 Zn1 1_555 1_555
C12 N3 1_555 1_555
H13 C12 1_555 1_555
N4 C11 1_555 1_555
O1 N4 1_555 1_555
C13 N5 1_555 1_555
N5 Zn1 1_555 1_555
C14 N5 1_555 1_555
H14 C14 1_555 1_555
N6 C13 1_555 1_555
O2 N6 1_555 1_555
Zn1H N1H 1_555 1_555
Zn1S N2S 1_555 1_555
Zn1T N3T 1_555 1_555
Zn1O N5O 1_555 1_555
N1H C1 1_555 1_555
C2H C2 1_555 1_555
C3H C2H 1_555 1_555
H2H C3H 1_555 1_555
C4H C4 1_555 1_555
C5H C4H 1_555 1_555
N2S C6 1_555 1_555
N2H Zn1H 1_555 1_555
C7S C7 1_555 1_555
C8S C7S 1_555 1_555
H8S C8S 1_555 1_555
C9S C9 1_555 1_555
C10S C9S 1_555 1_555
H10S C10S 1_555 1_555
H11S C10S 1_555 1_555
H12S C10S 1_555 1_555
N3T C11 1_555 1_555
N3H Zn1H 1_555 1_555
C12T C12 1_555 1_555
H13T C12T 1_555 1_555
O1T N4 1_555 1_555
N5O C13 1_555 1_555
N5H Zn1H 1_555 1_555
C14O C14 1_555 1_555
H14O C14O 1_555 1_555
O2O N6 1_555 1_555
C6 N2 1_555 1_555
N1H C2H 1_555 1_555
C3H C4H 1_555 1_555
N2S C7S 1_555 1_555
C8S C9S 1_555 1_555
N3T C12T 1_555 1_555
N5O C14O 1_555 1_555

#END
