
#######################################################################
#
#                 Cambridge Crystallographic Data Centre
#                                CCDC 
#
#######################################################################
#
# If this CIF has been generated from an entry in the Cambridge 
# Structural Database, then it will include bibliographic, chemical, 
# crystal, experimental, refinement or atomic coordinate data resulting 
# from the CCDC's data processing and validation procedures.
#
#######################################################################

data_YOZCEW
_chemical_formula_moiety         '(C14 H8 N12 O4 Zn2)n,0.32n(H2 O1)'
_chemical_name_systematic        
'catena-(bis((\m~2~-4-Cyanoimidazolato)-(\m~2~-2-nitroimidazolato))-di-zinc(ii) unknown solvate hydrate)'
_symmetry_cell_setting           hexagonal
_symmetry_space_group_name_H-M   'P 63/m m c'
_symmetry_Int_Tables_number      194
_space_group_name_Hall           '-P 6c 2c'
loop_
_symmetry_equiv_pos_site_id
_symmetry_equiv_pos_as_xyz
1 x,y,z
2 -y,x-y,z
3 -x+y,-x,z
4 -x,-y,1/2+z
5 y,-x+y,1/2+z
6 x-y,x,1/2+z
7 y,x,-z
8 x-y,-y,-z
9 -x,-x+y,-z
10 -y,-x,1/2-z
11 -x+y,y,1/2-z
12 x,x-y,1/2-z
13 -x,-y,-z
14 y,-x+y,-z
15 x-y,x,-z
16 x,y,1/2-z
17 -y,x-y,1/2-z
18 -x+y,-x,1/2-z
19 -y,-x,z
20 -x+y,y,z
21 x,x-y,z
22 y,x,1/2+z
23 x-y,-y,1/2+z
24 -x,-x+y,1/2+z
_cell_length_a                   26.4422(3)
_cell_length_b                   26.4422(3)
_cell_length_c                   18.9703(4)
_cell_angle_alpha                90
_cell_angle_beta                 90
_cell_angle_gamma                120
_cell_volume                     11486.8
_exptl_crystal_colour            yellow
_exptl_crystal_description       prism
_cell_formula_units_Z            12
loop_
_atom_site_label
_atom_site_type_symbol
_atom_site_fract_x
_atom_site_fract_y
_atom_site_fract_z
_atom_site_U_iso_or_equiv
_atom_site_thermal_displace_type
O3 O -0.030(2) 0.4851(10) 0.431(3) 0.2430 Uiso
Zn1 Zn 0.10599(3) 0.43877(3) 0.40927(3) 0.0662 Uani
C1 C 0.0000 0.3830(3) 0.5000 0.0691 Uiso
H1 H 0.0000 0.4182 0.5000 0.0830 Uiso
N1 N 0.0395(2) 0.3767(2) 0.4648(2) 0.0757 Uani
C2 C 0.0128(6) 0.3129(5) 0.4655(6) 0.0780 Uiso
C4 C 0.0636(19) 0.274(2) 0.433(2) 0.3400 Uiso
C5 C 0.21933(16) 0.4387(3) 0.4075(4) 0.0690 Uiso
H4 H 0.2219 0.4438 0.3588 0.0820 Uiso
N3 N 0.1747(2) 0.4348(2) 0.4438(2) 0.0833 Uani
C6 C 0.1794(5) 0.4103(6) 0.5083(6) 0.0730 Uiso
C8 C 0.1481(10) 0.4146(10) 0.5680(12) 0.1670 Uiso
N4 N 0.1178(9) 0.427(2) 0.6189(12) 0.4081 Uani
C9 C 0.1017(3) 0.55084(17) 0.4113(4) 0.0730 Uiso
N5 N 0.1161(2) 0.5151(2) 0.4398(3) 0.0816 Uani
C11 C 0.1121(5) 0.5304(5) 0.5118(7) 0.0970 Uiso
N6 N 0.0387(6) 0.5194(3) 0.3747(10) 0.2358 Uani
O1 O 0.0136(5) 0.5487(4) 0.3682(7) 0.1214 Uani
C12 C 0.1103(3) 0.4406(3) 0.2500 0.0660 Uiso
N7 N 0.0835(2) 0.4150(2) 0.3089(3) 0.0793 Uani
C13 C 0.0339(3) 0.3700(3) 0.2870(4) 0.1140 Uiso
H9 H 0.0041 0.3430 0.3157 0.1370 Uiso
N8 N 0.1646(3) 0.4935(3) 0.2500 0.0661 Uani
O2 O 0.18606(18) 0.51473(19) 0.3072(2) 0.0854 Uani
N9 N 0.0037(4) 0.2309(4) 0.4097(4) 0.0870 Uiso
Zn1H Zn -0.10599(3) 0.33278(4) 0.59073(3) 0.0662 Uani
Zn1S Zn 0.33278(4) 0.43877(3) 0.40927(3) 0.0662 Uani
Zn1T Zn 0.10599(3) 0.66722(4) 0.40927(3) 0.0662 Uani
Zn1O Zn 0.10599(3) 0.43877(3) 0.09073(3) 0.0662 Uani
N1H N -0.0395(2) 0.3372(3) 0.5352(2) 0.0757 Uani
C2H C -0.0128(6) 0.3001(8) 0.5345(6) 0.0780 Uiso
N3S N 0.2601(3) 0.4348(2) 0.4438(2) 0.0833 Uani
N3H N -0.1747(2) 0.2601(3) 0.5562(2) 0.0833 Uani
C6S C 0.2309(8) 0.4103(6) 0.5083(6) 0.0730 Uiso
C8S C 0.2665(14) 0.4146(10) 0.5680(12) 0.1670 Uiso
N4S N 0.3092(22) 0.427(2) 0.6189(12) 0.4081 Uani
N5T N 0.1161(2) 0.6010(3) 0.4398(3) 0.0816 Uani
N5H N -0.1161(2) 0.3990(3) 0.5602(3) 0.0816 Uani
C11T C 0.1121(5) 0.5817(7) 0.5118(7) 0.0970 Uiso
O1T O 0.0136(5) 0.4649(6) 0.3682(7) 0.1214 Uani
N7O N 0.0835(2) 0.4150(2) 0.1911(3) 0.0793 Uani
N7H N -0.0835(2) 0.3315(3) 0.6911(3) 0.0793 Uani
C13O C 0.0339(3) 0.3700(3) 0.2130(4) 0.1140 Uiso
H9O H 0.0041 0.3430 0.1843 0.1370 Uiso
O2O O 0.18606(18) 0.51473(19) 0.1928(2) 0.0854 Uani
H2? H 0.0126 0.2878 0.4310 0.0930 Uiso
C3? C 0.0391(5) 0.3300(5) 0.4911(6) 0.0660 Uiso
H3? H 0.0682 0.3206 0.4979 0.0790 Uiso
N2? N 0.0829(17) 0.2340(17) 0.514(2) 0.4100 Uiso
H5? H 0.1520 0.3966 0.5445 0.0870 Uiso
C7? C 0.1929(5) 0.4369(6) 0.5137(7) 0.0760 Uiso
H6? H 0.1731 0.4380 0.5536 0.0910 Uiso
C10? C 0.1678(7) 0.5560(6) 0.4678(8) 0.1100 Uiso
H7? H 0.1976 0.5500 0.4840 0.1320 Uiso
H8? H 0.1099 0.5087 0.5515 0.1160 Uiso
loop_
_atom_site_aniso_label
_atom_site_aniso_U_11
_atom_site_aniso_U_22
_atom_site_aniso_U_33
_atom_site_aniso_U_23
_atom_site_aniso_U_13
_atom_site_aniso_U_12
Zn1 0.0623(6) 0.0837(7) 0.0595(7) 0.0118(3) 0.0140(3) 0.0416(5)
N1 0.079(3) 0.080(3) 0.079(3) 0.018(2) 0.031(2) 0.048(3)
N3 0.075(3) 0.132(4) 0.058(2) 0.009(3) 0.009(2) 0.063(3)
N4 0.170(19) 0.93(9) 0.091(12) -0.07(3) 0.016(12) 0.25(4)
N5 0.087(3) 0.089(3) 0.074(3) -0.005(3) -0.010(2) 0.048(3)
N6 0.142(12) 0.266(17) 0.258(17) -0.038(6) -0.077(12) 0.071(6)
O1 0.112(7) 0.093(6) 0.187(10) -0.023(7) -0.065(7) 0.072(6)
N7 0.062(3) 0.090(3) 0.066(3) 0.001(2) -0.003(2) 0.023(3)
N8 0.063(4) 0.080(4) 0.057(4) 0.000 0.000 0.037(3)
O2 0.084(3) 0.097(3) 0.059(2) -0.006(2) -0.004(2) 0.033(2)
Zn1H 0.0623 0.0628 0.0595 0.0022 0.014 0.0207
Zn1S 0.0628 0.0837 0.0595 0.0118 -0.0022 0.0421
Zn1T 0.0623 0.0628 0.0595 0.0022 0.014 0.0207
Zn1O 0.0623 0.0837 0.0595 -0.0118 -0.014 0.0416
N1H 0.079 0.063 0.079 0.013 0.031 0.031
N3S 0.081 0.132 0.058 0.009 0 0.069
N3H 0.075 0.081 0.058 0 0.009 0.012
N4S 0.6 0.93 0.091 -0.07 -0.086 0.68
N5T 0.087 0.08 0.074 -0.005 -0.01 0.039
N5H 0.087 0.08 0.074 -0.005 -0.01 0.039
O1T 0.112 0.061 0.187 -0.042 -0.065 0.04
N7O 0.062 0.09 0.066 -0.001 0.003 0.023
N7H 0.062 0.106 0.066 -0.004 -0.003 0.039
O2O 0.084 0.097 0.059 0.006 0.004 0.033
loop_
_geom_bond_atom_site_label_1
_geom_bond_atom_site_label_2
_geom_bond_site_symmetry_1
_geom_bond_site_symmetry_2
Zn1 N1 1_555 1_555
C1 H1 1_555 1_555
N1 C1 1_555 1_555
C2 N1 1_555 1_555
C4 N9 1_555 1_555
C5 H4 1_555 1_555
N3 Zn1 1_555 1_555
C6 N3 1_555 1_555
C8 C6 1_555 1_555
N4 C8 1_555 1_555
C9 N5 1_555 1_555
N5 Zn1 1_555 1_555
C11 N5 1_555 1_555
N6 C9 1_555 1_555
O1 N6 1_555 1_555
C12 N7 1_555 1_555
N7 Zn1 1_555 1_555
C13 N7 1_555 1_555
H9 C13 1_555 1_555
N8 C12 1_555 1_555
O2 N8 1_555 1_555
Zn1H N1H 1_555 1_555
Zn1S N3S 1_555 1_555
Zn1T N5T 1_555 1_555
Zn1O N7O 1_555 1_555
N1H C1 1_555 1_555
C2H C2 1_555 1_555
N3S C5 1_555 1_555
N3H Zn1H 1_555 1_555
C6S C6 1_555 1_555
C8S C6S 1_555 1_555
N4S C8S 1_555 1_555
N5T C9 1_555 1_555
N5H Zn1H 1_555 1_555
C11T C11 1_555 1_555
O1T N6 1_555 1_555
N7O C12 1_555 1_555
N7H Zn1H 1_555 1_555
C13O C13 1_555 1_555
H9O C13O 1_555 1_555
O2O N8 1_555 1_555
C4 C2H 1_555 1_555
C5 N3 1_555 1_555
N1H C2H 1_555 1_555
N3S C6S 1_555 1_555
N5T C11T 1_555 1_555
N7O C13O 1_555 1_555

#END
