
#######################################################################
#
#                 Cambridge Crystallographic Data Centre
#                                CCDC 
#
#######################################################################
#
# If this CIF has been generated from an entry in the Cambridge 
# Structural Database, then it will include bibliographic, chemical, 
# crystal, experimental, refinement or atomic coordinate data resulting 
# from the CCDC's data processing and validation procedures.
#
#######################################################################

data_CAPRUI
_chemical_formula_moiety         '(C96 H72 Eu2 N14 O12)n'
_chemical_name_systematic        
catena-(bis(\m~4~-4,4',4''-(2,2',2''-nitrilotris(methylene)-tris(1H-benzo(d)imidazole-2,1-diyl)tris(methylene)tribenzoato))-di-europium)
_symmetry_cell_setting           trigonal
_symmetry_space_group_name_H-M   'P -3 c 1'
_symmetry_Int_Tables_number      165
_space_group_name_Hall           '-P 3 2"c'
loop_
_symmetry_equiv_pos_site_id
_symmetry_equiv_pos_as_xyz
1 x,y,z
2 -y,x-y,z
3 -x+y,-x,z
4 y,x,1/2-z
5 x-y,-y,1/2-z
6 -x,-x+y,1/2-z
7 -x,-y,-z
8 y,-x+y,-z
9 x-y,x,-z
10 -y,-x,1/2+z
11 -x+y,y,1/2+z
12 x,x-y,1/2+z
_cell_length_a                   18.7594(9)
_cell_length_b                   18.7594(9)
_cell_length_c                   15.4559(11)
_cell_angle_alpha                90
_cell_angle_beta                 90
_cell_angle_gamma                120
_cell_volume                     4710.45
_exptl_crystal_colour            colorless
_exptl_crystal_description       prism
_cell_formula_units_Z            2
loop_
_atom_site_label
_atom_site_type_symbol
_atom_site_fract_x
_atom_site_fract_y
_atom_site_fract_z
Eu1 Eu 0.6667 0.3333 0.23627(7)
O1 O 0.5847(3) 0.4024(3) 0.2588(3)
O2 O 0.5600(3) 0.3002(3) 0.3468(3)
N1 N 0.2756(3) 0.4467(3) 0.4411(4)
N2 N 0.2542(4) 0.5256(4) 0.3486(4)
N3 N 0.3333 0.6667 0.4387(7)
C1 C 0.5485(4) 0.3578(4) 0.3232(5)
C2 C 0.4902(4) 0.3758(4) 0.3732(5)
C3 C 0.4406(5) 0.3244(5) 0.4353(6)
H1 H 0.4433 0.2764 0.4484
C4 C 0.3864(5) 0.3396(4) 0.4799(5)
H2 H 0.3520 0.3021 0.5231
C5 C 0.3816(4) 0.4102(4) 0.4619(5)
C6 C 0.4342(5) 0.4633(5) 0.3985(5)
H3 H 0.4322 0.5115 0.3844
C7 C 0.4889(5) 0.4472(5) 0.3562(5)
H4 H 0.5259 0.4854 0.3150
C8 C 0.3194(5) 0.4258(5) 0.5066(5)
H5 H 0.2796 0.3760 0.5389
H6 H 0.3475 0.4716 0.5483
C9 C 0.2223(5) 0.3949(5) 0.3795(5)
C10 C 0.1858(6) 0.3112(5) 0.3700(7)
H7 H 0.1964 0.2781 0.4084
C11 C 0.1329(7) 0.2785(6) 0.3011(8)
H8 H 0.1067 0.2208 0.2916
C12 C 0.1150(7) 0.3268(6) 0.2428(7)
H9 H 0.0769 0.3012 0.1968
C13 C 0.1534(5) 0.4105(5) 0.2540(6)
H10 H 0.1427 0.4441 0.2164
C14 C 0.2081(4) 0.4441(4) 0.3217(5)
C15 C 0.2932(4) 0.5251(4) 0.4194(5)
C16 C 0.3460(5) 0.5998(5) 0.4708(5)
H11 H 0.3311 0.5894 0.5328
H12 H 0.4045 0.6153 0.4645
Eu1B Eu -0.3334 -0.6667 0.23627(7)
Eu1_2 Eu -0.3333 0.3333 0.23627(7)
Eu1_3 Eu 0.6667 -0.6667 0.23627(7)
Eu1_4 Eu 0.6667 1.3333 0.23627(7)
Eu1C Eu 0.3333 -0.3333 0.26373(7)
Eu1C_2 Eu 0.3333 0.6667 0.26373(7)
O1A O 0.5976(3) 1.1823(4) 0.2588(3)
O1B O -0.1823(4) 0.4153(3) 0.2588(3)
O1A_2 O 0.5976(3) 0.1823(4) 0.2588(3)
O1B_2 O -0.1823(4) -0.5847(3) 0.2588(3)
O1_2 O 0.5847(3) -0.5976(3) 0.2588(3)
O1_3 O -0.4153(3) -0.5976(3) 0.2588(3)
O1A_3 O -0.4024(3) -0.8177(4) 0.2588(3)
O1B_3 O 0.8177(4) 0.4153(3) 0.2588(3)
O2A O 0.6998(3) 1.2598(4) 0.3468(3)
O2B O -0.2598(4) 0.4400(3) 0.3468(3)
O2A_2 O 0.6998(3) 0.2598(4) 0.3468(3)
O2B_2 O -0.2598(4) -0.5600(3) 0.3468(3)
O2_2 O 0.5600(3) -0.6998(3) 0.3468(3)
O2_3 O -0.4400(3) -0.6998(3) 0.3468(3)
O2A_3 O -0.3002(3) -0.7402(4) 0.3468(3)
O2B_3 O 0.7402(4) 0.4400(3) 0.3468(3)
N1A N 0.5533(3) 0.8289(4) 0.4411(4)
N1B N 0.1711(4) 0.7244(3) 0.4411(4)
N1A_2 N 0.5533(3) -0.1711(4) 0.4411(4)
N1B_2 N 0.1711(4) -0.2756(3) 0.4411(4)
N1_2 N 0.2756(3) -0.5533(3) 0.4411(4)
N2A N 0.4744(4) 0.7286(6) 0.3486(4)
N2B N 0.2714(6) 0.7458(4) 0.3486(4)
N2A_2 N 0.4744(4) -0.2714(6) 0.3486(4)
N2B_2 N 0.2714(6) -0.2542(4) 0.3486(4)
N2_2 N 0.2542(4) -0.4744(4) 0.3486(4)
N2C N -0.4744(4) -0.7458(4) 0.1514(4)
N2C_2 N 0.5256(4) 0.2542(4) 0.1514(4)
N2D N -0.2714(6) -0.5256(4) 0.1514(4)
N2D_2 N 0.7286(6) 0.4744(4) 0.1514(4)
N2E N -0.2542(4) -0.7286(6) 0.1514(4)
N2E_2 N 0.7458(4) 0.2714(6) 0.1514(4)
N3A N 0.3333 -0.3334 0.4387(7)
N3C N -0.3333 -0.6667 0.0613(7)
N3C_2 N 0.6667 0.3333 0.0613(7)
C1A C 0.6422(4) 1.1907(6) 0.3232(5)
C1B C -0.1907(6) 0.4515(4) 0.3232(5)
C1A_2 C 0.6422(4) 0.1907(6) 0.3232(5)
C1B_2 C -0.1907(6) -0.5485(4) 0.3232(5)
C1_2 C 0.5485(4) -0.6422(4) 0.3232(5)
C1_3 C -0.4515(4) -0.6422(4) 0.3232(5)
C1A_3 C -0.3578(4) -0.8093(6) 0.3232(5)
C1B_3 C 0.8093(6) 0.4515(4) 0.3232(5)
C2A C 0.6242(4) 1.1144(6) 0.3732(5)
C2B C -0.1144(6) 0.5098(4) 0.3732(5)
C2A_2 C 0.6242(4) 0.1144(6) 0.3732(5)
C2B_2 C -0.1144(6) -0.4902(4) 0.3732(5)
C2_2 C 0.4902(4) -0.6242(4) 0.3732(5)
C3A C 0.6756(5) 1.1162(7) 0.4353(6)
C3B C -0.1162(7) 0.5594(5) 0.4353(6)
C3A_2 C 0.6756(5) 0.1162(7) 0.4353(6)
C3B_2 C -0.1162(7) -0.4406(5) 0.4353(6)
C3_2 C 0.4406(5) -0.6756(5) 0.4353(6)
H1A H 0.7236 1.1669 0.4484
H1B H -0.1669 0.5567 0.4484
H1A_2 H 0.7236 0.1669 0.4484
H1B_2 H -0.1669 -0.4433 0.4484
H1_2 H 0.4433 -0.7236 0.4484
C4A C 0.6604(4) 1.0468(6) 0.4799(5)
C4B C -0.0468(6) 0.6136(5) 0.4799(5)
C4A_2 C 0.6604(4) 0.0468(6) 0.4799(5)
C4B_2 C -0.0468(6) -0.3864(5) 0.4799(5)
C4_2 C 0.3864(5) -0.6604(4) 0.4799(5)
H2A H 0.6979 1.0499 0.5231
H2B H -0.0499 0.6480 0.5231
H2A_2 H 0.6979 0.0499 0.5231
H2B_2 H -0.0499 -0.3520 0.5231
H2_2 H 0.3520 -0.6979 0.5231
C5A C 0.5898(4) 0.9714(6) 0.4619(5)
C5B C 0.0286(6) 0.6184(4) 0.4619(5)
C5A_2 C 0.5898(4) -0.0286(6) 0.4619(5)
C5B_2 C 0.0286(6) -0.3816(4) 0.4619(5)
C5_2 C 0.3816(4) -0.5898(4) 0.4619(5)
C6A C 0.5367(5) 0.9709(7) 0.3985(5)
C6B C 0.0291(7) 0.5658(5) 0.3985(5)
C6A_2 C 0.5367(5) -0.0291(7) 0.3985(5)
C6B_2 C 0.0291(7) -0.4342(5) 0.3985(5)
C6_2 C 0.4342(5) -0.5367(5) 0.3985(5)
H3A H 0.4885 0.9207 0.3844
H3B H 0.0793 0.5678 0.3844
H3A_2 H 0.4885 -0.0793 0.3844
H3B_2 H 0.0793 -0.4322 0.3844
H3_2 H 0.4322 -0.4885 0.3844
C7A C 0.5528(5) 1.0417(7) 0.3562(5)
C7B C -0.0417(7) 0.5111(5) 0.3562(5)
C7A_2 C 0.5528(5) 0.0417(7) 0.3562(5)
C7B_2 C -0.0417(7) -0.4889(5) 0.3562(5)
C7_2 C 0.4889(5) -0.5528(5) 0.3562(5)
H4A H 0.5146 1.0405 0.3150
H4B H -0.0405 0.4741 0.3150
H4A_2 H 0.5146 0.0405 0.3150
H4B_2 H -0.0405 -0.5259 0.3150
H4_2 H 0.5259 -0.5146 0.3150
C8A C 0.5742(5) 0.8936(7) 0.5066(5)
C8B C 0.1064(7) 0.6806(5) 0.5066(5)
C8A_2 C 0.5742(5) -0.1064(7) 0.5066(5)
C8B_2 C 0.1064(7) -0.3194(5) 0.5066(5)
C8_2 C 0.3194(5) -0.5742(5) 0.5066(5)
H5A H 0.6240 0.9036 0.5389
H5B H 0.0964 0.7204 0.5389
H5A_2 H 0.6240 -0.0964 0.5389
H5B_2 H 0.0964 -0.2796 0.5389
H5_2 H 0.2796 -0.6240 0.5389
H6A H 0.5284 0.8759 0.5483
H6B H 0.1241 0.6525 0.5483
H6A_2 H 0.5284 -0.1241 0.5483
H6B_2 H 0.1241 -0.3475 0.5483
H6_2 H 0.3475 -0.5284 0.5483
C9A C 0.6051(5) 0.8274(7) 0.3795(5)
C9B C 0.1726(7) 0.7777(5) 0.3795(5)
C9A_2 C 0.6051(5) -0.1726(7) 0.3795(5)
C9B_2 C 0.1726(7) -0.2223(5) 0.3795(5)
C9_2 C 0.2223(5) -0.6051(5) 0.3795(5)
C10A C 0.6888(5) 0.8746(8) 0.3700(7)
C10B C 0.1254(8) 0.8142(6) 0.3700(7)
C10A_2 C 0.6888(5) -0.1254(8) 0.3700(7)
C10B_2 C 0.1254(8) -0.1858(6) 0.3700(7)
C10_2 C 0.1858(6) -0.6888(5) 0.3700(7)
H7A H 0.7219 0.9183 0.4084
H7B H 0.0817 0.8036 0.4084
H7A_2 H 0.7219 -0.0817 0.4084
H7B_2 H 0.0817 -0.1964 0.4084
H7_2 H 0.1964 -0.7219 0.4084
C11A C 0.7215(6) 0.8544(9) 0.3011(8)
C11B C 0.1456(9) 0.8671(7) 0.3011(8)
C11A_2 C 0.7215(6) -0.1456(9) 0.3011(8)
C11B_2 C 0.1456(9) -0.1329(7) 0.3011(8)
C11_2 C 0.1329(7) -0.7215(6) 0.3011(8)
H8A H 0.7792 0.8859 0.2916
H8B H 0.1141 0.8933 0.2916
H8A_2 H 0.7792 -0.1141 0.2916
H8B_2 H 0.1141 -0.1067 0.2916
H8_2 H 0.1067 -0.7792 0.2916
C12A C 0.6732(6) 0.7882(9) 0.2428(7)
C12B C 0.2118(9) 0.8850(7) 0.2428(7)
C12A_2 C 0.6732(6) -0.2118(9) 0.2428(7)
C12B_2 C 0.2118(9) -0.1150(7) 0.2428(7)
C12_2 C 0.1150(7) -0.6732(6) 0.2428(7)
H9A H 0.6988 0.7757 0.1968
H9B H 0.2243 0.9231 0.1968
H9A_2 H 0.6988 -0.2243 0.1968
H9B_2 H 0.2243 -0.0769 0.1968
H9_2 H 0.0769 -0.6988 0.1968
C13A C 0.5895(5) 0.7429(7) 0.2540(6)
C13B C 0.2571(7) 0.8466(5) 0.2540(6)
C13A_2 C 0.5895(5) -0.2571(7) 0.2540(6)
C13B_2 C 0.2571(7) -0.1534(5) 0.2540(6)
C13_2 C 0.1534(5) -0.5895(5) 0.2540(6)
H10A H 0.5559 0.6986 0.2164
H10B H 0.3014 0.8573 0.2164
H10A_2 H 0.5559 -0.3014 0.2164
H10B_2 H 0.3014 -0.1427 0.2164
H10_2 H 0.1427 -0.5559 0.2164
C14A C 0.5559(4) 0.7640(6) 0.3217(5)
C14B C 0.2360(6) 0.7919(4) 0.3217(5)
C14A_2 C 0.5559(4) -0.2360(6) 0.3217(5)
C14B_2 C 0.2360(6) -0.2081(4) 0.3217(5)
C14_2 C 0.2081(4) -0.5559(4) 0.3217(5)
C15A C 0.4749(4) 0.7681(6) 0.4194(5)
C15B C 0.2319(6) 0.7068(4) 0.4194(5)
C15A_2 C 0.4749(4) -0.2319(6) 0.4194(5)
C15B_2 C 0.2319(6) -0.2932(4) 0.4194(5)
C15_2 C 0.2932(4) -0.4749(4) 0.4194(5)
C16A C 0.4002(5) 0.7462(7) 0.4708(5)
C16B C 0.2538(7) 0.6540(5) 0.4708(5)
C16A_2 C 0.4002(5) -0.2538(7) 0.4708(5)
C16B_2 C 0.2538(7) -0.3460(5) 0.4708(5)
C16_2 C 0.3460(5) -0.4002(5) 0.4708(5)
H11A H 0.4106 0.7417 0.5328
H11B H 0.2583 0.6689 0.5328
H11A_2 H 0.4106 -0.2583 0.5328
H11B_2 H 0.2583 -0.3311 0.5328
H11_2 H 0.3311 -0.4106 0.5328
H12A H 0.3847 0.7892 0.4645
H12B H 0.2108 0.5955 0.4645
H12A_2 H 0.3847 -0.2108 0.4645
H12B_2 H 0.2108 -0.4045 0.4645
H12_2 H 0.4045 -0.3847 0.4645
Eu2? Eu 0.6667 0.3333 0.2336(2)
loop_
_geom_bond_atom_site_label_1
_geom_bond_atom_site_label_2
_geom_bond_site_symmetry_1
_geom_bond_site_symmetry_2
Eu1 O1 1_555 1_555
O1 C1 1_555 1_555
O2 Eu1 1_555 1_555
N1 C8 1_555 1_555
N2 C14 1_555 1_555
N3 C16 1_555 1_555
C1 O2 1_555 1_555
C2 C1 1_555 1_555
C3 C2 1_555 1_555
H1 C3 1_555 1_555
C4 C3 1_555 1_555
H2 C4 1_555 1_555
C5 C4 1_555 1_555
C6 C5 1_555 1_555
H3 C6 1_555 1_555
C7 C2 1_555 1_555
H4 C7 1_555 1_555
C8 C5 1_555 1_555
H5 C8 1_555 1_555
H6 C8 1_555 1_555
C9 N1 1_555 1_555
C10 C9 1_555 1_555
H7 C10 1_555 1_555
C11 C10 1_555 1_555
H8 C11 1_555 1_555
C12 C11 1_555 1_555
H9 C12 1_555 1_555
C13 C12 1_555 1_555
H10 C13 1_555 1_555
C14 C9 1_555 1_555
C15 N1 1_555 1_555
C16 C15 1_555 1_555
H11 C16 1_555 1_555
H12 C16 1_555 1_555
Eu1B O1B_2 1_555 1_555
Eu1_2 O1B 1_555 1_555
Eu1_3 O1_2 1_555 1_555
Eu1_4 O1A 1_555 1_555
Eu1C N2A_2 1_555 1_555
Eu1C_2 N2 1_555 1_555
O1A C1A 1_555 1_555
O1B C1B 1_555 1_555
O1A_2 Eu1 1_555 1_555
O1B_2 C1B_2 1_555 1_555
O1_2 C1_2 1_555 1_555
O1_3 Eu1B 1_555 1_555
O1A_3 Eu1B 1_555 1_555
O1B_3 Eu1 1_555 1_555
O2A Eu1_4 1_555 1_555
O2B Eu1_2 1_555 1_555
O2A_2 Eu1 1_555 1_555
O2B_2 Eu1B 1_555 1_555
O2_2 Eu1_3 1_555 1_555
O2_3 Eu1B 1_555 1_555
O2A_3 Eu1B 1_555 1_555
O2B_3 Eu1 1_555 1_555
N1A C8A 1_555 1_555
N1B C8B 1_555 1_555
N1A_2 C8A_2 1_555 1_555
N1B_2 C8B_2 1_555 1_555
N1_2 C8_2 1_555 1_555
N2A Eu1C_2 1_555 1_555
N2B Eu1C_2 1_555 1_555
N2A_2 C14A_2 1_555 1_555
N2B_2 Eu1C 1_555 1_555
N2_2 Eu1C 1_555 1_555
N2C Eu1B 1_555 1_555
N2C_2 Eu1 1_555 1_555
N2D Eu1B 1_555 1_555
N2D_2 Eu1 1_555 1_555
N2E Eu1B 1_555 1_555
N2E_2 Eu1 1_555 1_555
N3A Eu1C 1_555 1_555
N3C Eu1B 1_555 1_555
N3C_2 Eu1 1_555 1_555
C1A O2A 1_555 1_555
C1B O2B 1_555 1_555
C1A_2 O1A_2 1_555 1_555
C1B_2 O2B_2 1_555 1_555
C1_2 O2_2 1_555 1_555
C1_3 O1_3 1_555 1_555
C1A_3 O1A_3 1_555 1_555
C1B_3 O1B_3 1_555 1_555
C2A C1A 1_555 1_555
C2B C1B 1_555 1_555
C2A_2 C1A_2 1_555 1_555
C2B_2 C1B_2 1_555 1_555
C2_2 C1_2 1_555 1_555
C3A C2A 1_555 1_555
C3B C2B 1_555 1_555
C3A_2 C2A_2 1_555 1_555
C3B_2 C2B_2 1_555 1_555
C3_2 C2_2 1_555 1_555
H1A C3A 1_555 1_555
H1B C3B 1_555 1_555
H1A_2 C3A_2 1_555 1_555
H1B_2 C3B_2 1_555 1_555
H1_2 C3_2 1_555 1_555
C4A C3A 1_555 1_555
C4B C3B 1_555 1_555
C4A_2 C3A_2 1_555 1_555
C4B_2 C3B_2 1_555 1_555
C4_2 C3_2 1_555 1_555
H2A C4A 1_555 1_555
H2B C4B 1_555 1_555
H2A_2 C4A_2 1_555 1_555
H2B_2 C4B_2 1_555 1_555
H2_2 C4_2 1_555 1_555
C5A C4A 1_555 1_555
C5B C4B 1_555 1_555
C5A_2 C4A_2 1_555 1_555
C5B_2 C4B_2 1_555 1_555
C5_2 C4_2 1_555 1_555
C6A C5A 1_555 1_555
C6B C5B 1_555 1_555
C6A_2 C5A_2 1_555 1_555
C6B_2 C5B_2 1_555 1_555
C6_2 C5_2 1_555 1_555
H3A C6A 1_555 1_555
H3B C6B 1_555 1_555
H3A_2 C6A_2 1_555 1_555
H3B_2 C6B_2 1_555 1_555
H3_2 C6_2 1_555 1_555
C7A C2A 1_555 1_555
C7B C2B 1_555 1_555
C7A_2 C2A_2 1_555 1_555
C7B_2 C2B_2 1_555 1_555
C7_2 C2_2 1_555 1_555
H4A C7A 1_555 1_555
H4B C7B 1_555 1_555
H4A_2 C7A_2 1_555 1_555
H4B_2 C7B_2 1_555 1_555
H4_2 C7_2 1_555 1_555
C8A C5A 1_555 1_555
C8B C5B 1_555 1_555
C8A_2 C5A_2 1_555 1_555
C8B_2 C5B_2 1_555 1_555
C8_2 C5_2 1_555 1_555
H5A C8A 1_555 1_555
H5B C8B 1_555 1_555
H5A_2 C8A_2 1_555 1_555
H5B_2 C8B_2 1_555 1_555
H5_2 C8_2 1_555 1_555
H6A C8A 1_555 1_555
H6B C8B 1_555 1_555
H6A_2 C8A_2 1_555 1_555
H6B_2 C8B_2 1_555 1_555
H6_2 C8_2 1_555 1_555
C9A N1A 1_555 1_555
C9B N1B 1_555 1_555
C9A_2 N1A_2 1_555 1_555
C9B_2 N1B_2 1_555 1_555
C9_2 N1_2 1_555 1_555
C10A C9A 1_555 1_555
C10B C9B 1_555 1_555
C10A_2 C9A_2 1_555 1_555
C10B_2 C9B_2 1_555 1_555
C10_2 C9_2 1_555 1_555
H7A C10A 1_555 1_555
H7B C10B 1_555 1_555
H7A_2 C10A_2 1_555 1_555
H7B_2 C10B_2 1_555 1_555
H7_2 C10_2 1_555 1_555
C11A C10A 1_555 1_555
C11B C10B 1_555 1_555
C11A_2 C10A_2 1_555 1_555
C11B_2 C10B_2 1_555 1_555
C11_2 C10_2 1_555 1_555
H8A C11A 1_555 1_555
H8B C11B 1_555 1_555
H8A_2 C11A_2 1_555 1_555
H8B_2 C11B_2 1_555 1_555
H8_2 C11_2 1_555 1_555
C12A C11A 1_555 1_555
C12B C11B 1_555 1_555
C12A_2 C11A_2 1_555 1_555
C12B_2 C11B_2 1_555 1_555
C12_2 C11_2 1_555 1_555
H9A C12A 1_555 1_555
H9B C12B 1_555 1_555
H9A_2 C12A_2 1_555 1_555
H9B_2 C12B_2 1_555 1_555
H9_2 C12_2 1_555 1_555
C13A C12A 1_555 1_555
C13B C12B 1_555 1_555
C13A_2 C12A_2 1_555 1_555
C13B_2 C12B_2 1_555 1_555
C13_2 C12_2 1_555 1_555
H10A C13A 1_555 1_555
H10B C13B 1_555 1_555
H10A_2 C13A_2 1_555 1_555
H10B_2 C13B_2 1_555 1_555
H10_2 C13_2 1_555 1_555
C14A N2A 1_555 1_555
C14B N2B 1_555 1_555
C14A_2 C9A_2 1_555 1_555
C14B_2 N2B_2 1_555 1_555
C14_2 N2_2 1_555 1_555
C15A N1A 1_555 1_555
C15B N1B 1_555 1_555
C15A_2 N1A_2 1_555 1_555
C15B_2 N1B_2 1_555 1_555
C15_2 N1_2 1_555 1_555
C16A N3 1_555 1_555
C16B N3 1_555 1_555
C16A_2 N3A 1_555 1_555
C16B_2 N3A 1_555 1_555
C16_2 N3A 1_555 1_555
H11A C16A 1_555 1_555
H11B C16B 1_555 1_555
H11A_2 C16A_2 1_555 1_555
H11B_2 C16B_2 1_555 1_555
H11_2 C16_2 1_555 1_555
H12A C16A 1_555 1_555
H12B C16B 1_555 1_555
H12A_2 C16A_2 1_555 1_555
H12B_2 C16B_2 1_555 1_555
H12_2 C16_2 1_555 1_555
N2 C15 1_555 1_555
N3 Eu1C_2 1_555 1_555
C6 C7 1_555 1_555
C13 C14 1_555 1_555
O2A_2 C1A_2 1_555 1_555
O2_3 C1_3 1_555 1_555
O2A_3 C1A_3 1_555 1_555
O2B_3 C1B_3 1_555 1_555
N2A C15A 1_555 1_555
N2B C15B 1_555 1_555
N2A_2 C15A_2 1_555 1_555
N2B_2 C15B_2 1_555 1_555
N2_2 C15_2 1_555 1_555
C6A C7A 1_555 1_555
C6B C7B 1_555 1_555
C6A_2 C7A_2 1_555 1_555
C6B_2 C7B_2 1_555 1_555
C6_2 C7_2 1_555 1_555
C9A C14A 1_555 1_555
C9B C14B 1_555 1_555
C9B_2 C14B_2 1_555 1_555
C9_2 C14_2 1_555 1_555
C13A C14A 1_555 1_555
C13B C14B 1_555 1_555
C13A_2 C14A_2 1_555 1_555
C13B_2 C14B_2 1_555 1_555
C13_2 C14_2 1_555 1_555
C15A C16A 1_555 1_555
C15B C16B 1_555 1_555
C15A_2 C16A_2 1_555 1_555
C15B_2 C16B_2 1_555 1_555
C15_2 C16_2 1_555 1_555

#END
