
#######################################################################
#
#                 Cambridge Crystallographic Data Centre
#                                CCDC 
#
#######################################################################
#
# If this CIF has been generated from an entry in the Cambridge 
# Structural Database, then it will include bibliographic, chemical, 
# crystal, experimental, refinement or atomic coordinate data resulting 
# from the CCDC's data processing and validation procedures.
#
#######################################################################

data_CAPSAP
_chemical_formula_moiety         
'(C48 H38 Cl2 Eu1 N7 O7 Zn1)n,2n(C4 H9 N1 O1),n(H2 O1)'
_chemical_name_systematic        
"catena-(bis(\m~4~-4,4',4''-(2,2',2''-nitrilotris(methylene)-tris(1H-benzo(d)imidazole-2,1-diyl)-tris(methylene)tribenzoato))-aqua-dichloro-europium-zinc N,N-dimethylacetamide solvate monohydrate)"
_symmetry_cell_setting           triclinic
_symmetry_space_group_name_H-M   'P -1'
_symmetry_Int_Tables_number      2
_space_group_name_Hall           '-P 1'
loop_
_symmetry_equiv_pos_site_id
_symmetry_equiv_pos_as_xyz
1 x,y,z
2 -x,-y,-z
_cell_length_a                   13.0720(10)
_cell_length_b                   14.3250(10)
_cell_length_c                   16.928(2)
_cell_angle_alpha                96.764(2)
_cell_angle_beta                 112.235(12)
_cell_angle_gamma                93.165(5)
_cell_volume                     2896.52
_exptl_crystal_colour            colorless
_exptl_crystal_description       prism
_cell_formula_units_Z            2
loop_
_atom_site_label
_atom_site_type_symbol
_atom_site_fract_x
_atom_site_fract_y
_atom_site_fract_z
Eu1 Eu 0.35827(5) -0.40667(4) -0.09680(4)
Zn1 Zn 0.37768(9) 0.22269(8) 0.36722(7)
Cl1 Cl 0.24922(18) 0.23343(17) 0.42789(14)
Cl2 Cl 0.53892(18) -0.40822(15) -0.14280(13)
N1 N 0.4130(6) 0.0849(5) 0.3696(4)
N2 N 0.5332(6) -0.0223(5) 0.3858(4)
N3 N 0.3017(6) 0.2364(5) 0.2405(4)
N4 N 0.2811(6) 0.2104(5) 0.1037(4)
N5 N 0.5111(6) 0.3190(5) 0.4435(4)
N6 N 0.6580(6) 0.4181(5) 0.4686(5)
N7 N 0.5199(5) 0.2074(4) 0.3076(4)
C1 C 0.5661(7) -0.3691(7) 0.1129(5)
C2 C 0.5823(7) -0.2888(6) 0.1848(5)
C3 C 0.6574(7) -0.2931(6) 0.2669(5)
H1 H 0.6991 -0.3458 0.2770
C4 C 0.6736(8) -0.2229(7) 0.3346(6)
H2 H 0.7259 -0.2274 0.3908
C5 C 0.6118(7) -0.1438(6) 0.3201(5)
C6 C 0.5395(8) -0.1399(6) 0.2356(5)
H3 H 0.5006 -0.0858 0.2236
C7 C 0.5229(7) -0.2109(7) 0.1700(5)
H4 H 0.4704 -0.2072 0.1137
C8 C 0.6332(8) -0.0679(7) 0.3936(5)
H5 H 0.6599 -0.0950 0.4481
H6 H 0.6923 -0.0199 0.3962
C9 C 0.4404(7) -0.0645(6) 0.3968(5)
C10 C 0.4170(9) -0.1539(7) 0.4118(6)
H7 H 0.4685 -0.1995 0.4181
C11 C 0.3165(9) -0.1749(7) 0.4173(6)
H8 H 0.2985 -0.2356 0.4288
C12 C 0.2387(8) -0.1066(7) 0.4060(6)
H9 H 0.1693 -0.1228 0.4096
C13 C 0.2622(8) -0.0180(7) 0.3901(6)
H10 H 0.2097 0.0270 0.3819
C14 C 0.3676(8) 0.0047(6) 0.3863(5)
C15 C 0.5091(8) 0.0662(6) 0.3698(5)
C16 C 0.5878(7) 0.1345(6) 0.3498(5)
H11 H 0.6502 0.1637 0.4036
H12 H 0.6185 0.1005 0.3108
C17 C 0.4611(7) 0.1772(7) 0.2129(5)
H13 H 0.4547 0.1074 0.1990
H14 H 0.5028 0.2052 0.1818
C18 C 0.3481(7) 0.2102(6) 0.1862(5)
C19 C 0.1938(7) 0.2607(6) 0.1899(5)
C20 C 0.1103(7) 0.2933(6) 0.2122(6)
H15 H 0.1191 0.3052 0.2710
C21 C 0.0124(8) 0.3086(7) 0.1464(6)
H16 H -0.0462 0.3329 0.1599
C22 C 0.0007(8) 0.2879(8) 0.0603(7)
H17 H -0.0675 0.2974 0.0163
C23 C 0.0833(8) 0.2545(7) 0.0361(6)
H18 H 0.0739 0.2408 -0.0227
C24 C 0.1803(8) 0.2424(6) 0.1028(6)
C25 C 0.3077(8) 0.1872(6) 0.0279(5)
H19 H 0.3824 0.2188 0.0399
H20 H 0.2537 0.2133 -0.0209
C26 C 0.3060(7) 0.0801(6) 0.0001(5)
C27 C 0.2542(9) 0.0108(7) 0.0248(7)
H21 H 0.2149 0.0291 0.0601
C28 C 0.2557(9) -0.0839(8) 0.0015(6)
H22 H 0.2172 -0.1299 0.0193
C29 C 0.3129(7) -0.1099(6) -0.0472(5)
C30 C 0.3651(11) -0.0439(7) -0.0744(7)
H23 H 0.4033 -0.0631 -0.1103
C31 C 0.3626(9) 0.0522(7) -0.0496(7)
H24 H 0.4008 0.0982 -0.0677
C32 C 0.3244(8) -0.2153(6) -0.0687(6)
C33 C 0.5852(7) 0.2997(6) 0.3303(5)
H25 H 0.5519 0.3396 0.2851
H26 H 0.6622 0.2922 0.3355
C34 C 0.5854(7) 0.3439(6) 0.4130(5)
C35 C 0.5349(7) 0.3811(6) 0.5221(5)
C36 C 0.4845(8) 0.3808(6) 0.5797(5)
H27 H 0.4234 0.3357 0.5703
C37 C 0.5274(8) 0.4504(6) 0.6536(6)
H28 H 0.4925 0.4553 0.6938
C38 C 0.6214(8) 0.5125(6) 0.6677(6)
H29 H 0.6504 0.5578 0.7187
C39 C 0.6731(8) 0.5100(6) 0.6104(5)
H30 H 0.7356 0.5535 0.6199
C40 C 0.6293(8) 0.4404(6) 0.5373(5)
C41 C 0.7476(7) 0.4705(7) 0.4508(6)
H31 H 0.7239 0.5321 0.4339
H32 H 0.7585 0.4338 0.4018
C42 C 0.8573(7) 0.4872(6) 0.5289(6)
C43 C 0.8941(8) 0.4204(7) 0.5815(7)
H33 H 0.8539 0.3595 0.5681
C44 C 0.9927(8) 0.4437(7) 0.6558(7)
H34 H 1.0147 0.4005 0.6961
C45 C 1.0578(7) 0.5282(7) 0.6712(6)
C46 C 1.0233(7) 0.5921(7) 0.6131(6)
H35 H 1.0696 0.6489 0.6212
C47 C 0.9216(7) 0.5737(6) 0.5431(6)
H36 H 0.8962 0.6191 0.5055
C48 C 1.1655(7) 0.5542(7) 0.7491(6)
O1 O 0.4910(6) -0.3691(5) 0.0413(4)
O2 O 0.6276(5) -0.4338(4) 0.1319(4)
O3 O 0.3944(5) -0.2374(4) -0.1033(4)
O4 O 0.2668(5) -0.2790(4) -0.0532(4)
O5 O 1.2426(5) 0.6072(5) 0.7511(4)
O6 O 1.1678(5) 0.5166(5) 0.8145(4)
O7 O 0.2908(5) -0.4909(5) -0.0047(4)
Eu1A Eu 0.64173(5) -0.59333(4) 0.09680(4)
Eu1_2 Eu 1.35827(5) 0.59333(4) 0.90320(4)
O2A O 0.3724(5) -0.5662(4) -0.1319(4)
O5_2 O 0.2426(5) -0.3928(5) -0.2489(4)
O6_2 O 0.1678(5) -0.4834(5) -0.1855(4)
O8 O 0.1813(6) 0.3360(5) 0.8857(5)
O9 O 0.1627(13) 0.7832(11) 0.5654(10)
N8 N 0.0868(5) 1.0104(4) 0.7509(5)
O10 O 0.1895(10) 0.9682(12) 0.6727(9)
C49 C 0.1037(17) 0.8391(5) 0.7242(13)
H37 H 0.0820 0.8336 0.7730
H38 H 0.1706 0.8072 0.7320
H39 H 0.0432 0.8095 0.6705
C50 C 0.1262(8) 0.9365(4) 0.7200(8)
C51 C 0.0144(7) 0.9885(13) 0.7953(7)
H40 H -0.0028 0.9198 0.7880
H41 H -0.0546 1.0177 0.7709
H42 H 0.0520 1.0134 0.8569
C52 C 0.1201(12) 1.1054(5) 0.7396(10)
H43 H 0.1924 1.1295 0.7855
H44 H 0.0645 1.1474 0.7425
H45 H 0.1258 1.1030 0.6833
N9 N 0.1999(7) 0.7090(6) 0.1748(8)
O11 O 0.0372(7) 0.7195(7) 0.1884(6)
C53 C 0.0959(13) 0.5576(7) 0.1589(11)
H46 H 0.1093 0.5340 0.1073
H47 H 0.0191 0.5371 0.1500
H48 H 0.1471 0.5326 0.2088
C54 C 0.1136(9) 0.6592(7) 0.1743(10)
C55 C 0.2847(8) 0.6549(9) 0.1624(8)
H49 H 0.2632 0.5874 0.1584
H50 H 0.3557 0.6740 0.2114
H51 H 0.2926 0.6669 0.1091
C56 C 0.2031(12) 0.8131(7) 0.1853(9)
H52 H 0.1419 0.8314 0.1367
H53 H 0.2741 0.8408 0.1868
H54 H 0.1952 0.8361 0.2394
loop_
_geom_bond_atom_site_label_1
_geom_bond_atom_site_label_2
_geom_bond_site_symmetry_1
_geom_bond_site_symmetry_2
Eu1 Cl2 1_555 1_555
Zn1 Cl1 1_555 1_555
N1 Zn1 1_555 1_555
N2 C8 1_555 1_555
N3 Zn1 1_555 1_555
N4 C18 1_555 1_555
N5 Zn1 1_555 1_555
N6 C34 1_555 1_555
N7 Zn1 1_555 1_555
C1 C2 1_555 1_555
C2 C3 1_555 1_555
C3 H1 1_555 1_555
C4 C3 1_555 1_555
H2 C4 1_555 1_555
C5 C4 1_555 1_555
C6 C5 1_555 1_555
H3 C6 1_555 1_555
C7 C2 1_555 1_555
H4 C7 1_555 1_555
C8 C5 1_555 1_555
H5 C8 1_555 1_555
H6 C8 1_555 1_555
C9 N2 1_555 1_555
C10 C9 1_555 1_555
H7 C10 1_555 1_555
C11 C10 1_555 1_555
H8 C11 1_555 1_555
C12 C11 1_555 1_555
H9 C12 1_555 1_555
C13 C12 1_555 1_555
H10 C13 1_555 1_555
C14 N1 1_555 1_555
C15 N1 1_555 1_555
C16 N7 1_555 1_555
H11 C16 1_555 1_555
H12 C16 1_555 1_555
C17 N7 1_555 1_555
H13 C17 1_555 1_555
H14 C17 1_555 1_555
C18 N3 1_555 1_555
C19 N3 1_555 1_555
C20 C19 1_555 1_555
H15 C20 1_555 1_555
C21 C20 1_555 1_555
H16 C21 1_555 1_555
C22 C21 1_555 1_555
H17 C22 1_555 1_555
C23 C22 1_555 1_555
H18 C23 1_555 1_555
C24 N4 1_555 1_555
C25 N4 1_555 1_555
H19 C25 1_555 1_555
H20 C25 1_555 1_555
C26 C25 1_555 1_555
C27 C26 1_555 1_555
H21 C27 1_555 1_555
C28 C27 1_555 1_555
H22 C28 1_555 1_555
C29 C28 1_555 1_555
C30 C29 1_555 1_555
H23 C30 1_555 1_555
C31 C26 1_555 1_555
H24 C31 1_555 1_555
C32 C29 1_555 1_555
C33 N7 1_555 1_555
H25 C33 1_555 1_555
H26 C33 1_555 1_555
C34 N5 1_555 1_555
C35 N5 1_555 1_555
C36 C35 1_555 1_555
H27 C36 1_555 1_555
C37 C36 1_555 1_555
H28 C37 1_555 1_555
C38 C37 1_555 1_555
H29 C38 1_555 1_555
C39 C38 1_555 1_555
H30 C39 1_555 1_555
C40 N6 1_555 1_555
C41 N6 1_555 1_555
H31 C41 1_555 1_555
H32 C41 1_555 1_555
C42 C41 1_555 1_555
C43 C42 1_555 1_555
H33 C43 1_555 1_555
C44 C43 1_555 1_555
H34 C44 1_555 1_555
C45 C44 1_555 1_555
C46 C45 1_555 1_555
H35 C46 1_555 1_555
C47 C42 1_555 1_555
H36 C47 1_555 1_555
C48 C45 1_555 1_555
O1 Eu1 1_555 1_555
O2 C1 1_555 1_555
O3 Eu1 1_555 1_555
O4 Eu1 1_555 1_555
O5 C48 1_555 1_555
O6 C48 1_555 1_555
O7 Eu1 1_555 1_555
N8 C50 1_555 1_555
O10 C50 1_555 1_555
C49 H37 1_555 1_555
H38 C49 1_555 1_555
H39 C49 1_555 1_555
C50 C49 1_555 1_555
C51 N8 1_555 1_555
H40 C51 1_555 1_555
H41 C51 1_555 1_555
H42 C51 1_555 1_555
C52 N8 1_555 1_555
H43 C52 1_555 1_555
H44 C52 1_555 1_555
H45 C52 1_555 1_555
N9 C54 1_555 1_555
O11 C54 1_555 1_555
C53 H46 1_555 1_555
H47 C53 1_555 1_555
H48 C53 1_555 1_555
C54 C53 1_555 1_555
C55 N9 1_555 1_555
H49 C55 1_555 1_555
H50 C55 1_555 1_555
H51 C55 1_555 1_555
C56 N9 1_555 1_555
H52 C56 1_555 1_555
H53 C56 1_555 1_555
H54 C56 1_555 1_555
Eu1A O2 1_555 1_555
Eu1_2 O5 1_555 1_555
O2A Eu1 1_555 1_555
O5_2 Eu1 1_555 1_555
O6_2 Eu1 1_555 1_555
N2 C15 1_555 1_555
C1 O1 1_555 1_555
C6 C7 1_555 1_555
C9 C14 1_555 1_555
C13 C14 1_555 1_555
C15 C16 1_555 1_555
C17 C18 1_555 1_555
C19 C24 1_555 1_555
C23 C24 1_555 1_555
C30 C31 1_555 1_555
C32 O3 1_555 1_555
C32 O4 1_555 1_555
C33 C34 1_555 1_555
C35 C40 1_555 1_555
C39 C40 1_555 1_555
C46 C47 1_555 1_555
O6 Eu1_2 1_555 1_555

#END
