
#######################################################################
#
#                 Cambridge Crystallographic Data Centre
#                                CCDC 
#
#######################################################################
#
# If this CIF has been generated from an entry in the Cambridge 
# Structural Database, then it will include bibliographic, chemical, 
# crystal, experimental, refinement or atomic coordinate data resulting 
# from the CCDC's data processing and validation procedures.
#
#######################################################################

data_GOBLOA
_chemical_formula_moiety         '(C126 H78 Co3 N18)n,2n(C3 H7 N1 O1)'
_chemical_name_systematic        
'catena-((\m~3~-5,15-bis(4-Pyridyl)-10,20-diphenylporphyrinato)-bis(\m~2~-5,15-bis(4-pyridyl)-10,20-diphenylporphyrinato)-tri-cobalt(ii) dimethylformamide solvate)'
_symmetry_cell_setting           triclinic
_symmetry_space_group_name_H-M   'P -1'
_symmetry_Int_Tables_number      2
_space_group_name_Hall           '-P 1'
loop_
_symmetry_equiv_pos_site_id
_symmetry_equiv_pos_as_xyz
1 x,y,z
2 -x,-y,-z
_cell_length_a                   11.898(2)
_cell_length_b                   14.656(3)
_cell_length_c                   16.595(3)
_cell_angle_alpha                90.03(3)
_cell_angle_beta                 104.37(3)
_cell_angle_gamma                98.74(3)
_cell_volume                     2768.49
_exptl_crystal_colour            'dark blue'
_exptl_crystal_description       block
_cell_formula_units_Z            1
loop_
_atom_site_label
_atom_site_type_symbol
_atom_site_fract_x
_atom_site_fract_y
_atom_site_fract_z
Co1 Co 0.89262(5) 0.56473(4) 0.85642(4)
Co2 Co 0.5000 1.0000 0.5000
N1 N 0.9075(3) 0.6022(2) 0.9733(2)
N2 N 1.0019(3) 0.6764(3) 0.8449(2)
N3 N 0.9010(3) 0.5176(2) 0.7472(2)
N4 N 0.7874(3) 0.4512(3) 0.8682(2)
N5 N 1.2288(6) 0.9910(3) 1.1354(3)
N6 N 0.6112(4) 0.1253(3) 0.5789(2)
N7 N 0.4607(3) 0.9542(2) 0.6052(2)
N8 N 0.3683(3) 1.0700(2) 0.4786(2)
N9 N 0.7498(3) 0.6405(3) 0.8024(2)
C1 C 0.8508(4) 0.5575(3) 1.0283(3)
C2 C 0.8945(4) 0.6024(3) 1.1101(3)
H1 H 0.8713 0.5840 1.1579
C3 C 0.9741(4) 0.6749(3) 1.1043(3)
H2 H 1.0173 0.7165 1.1472
C4 C 0.9802(4) 0.6765(3) 1.0190(3)
C5 C 1.0440(4) 0.7490(3) 0.9857(3)
C6 C 1.0460(4) 0.7496(3) 0.9018(3)
C7 C 1.0941(5) 0.8279(3) 0.8626(3)
H3 H 1.1278 0.8856 0.8879
C8 C 1.0818(5) 0.8029(4) 0.7830(3)
H4 H 1.1048 0.8401 0.7427
C9 C 1.0269(4) 0.7090(3) 0.7713(3)
C10 C 1.0104(4) 0.6534(3) 0.6985(3)
C11 C 0.9595(4) 0.5620(3) 0.6921(3)
C12 C 0.9556(5) 0.4995(4) 0.6242(3)
H5 H 0.9908 0.5123 0.5805
C13 C 0.8914(5) 0.4193(4) 0.6358(3)
H6 H 0.8742 0.3660 0.6016
C14 C 0.8545(4) 0.4309(3) 0.7104(3)
C15 C 0.7729(4) 0.3675(3) 0.7374(3)
C16 C 0.7387(4) 0.3812(3) 0.8105(3)
C17 C 0.6442(5) 0.3220(3) 0.8345(3)
H7 H 0.5961 0.2708 0.8044
C18 C 0.6401(5) 0.3555(3) 0.9084(3)
H8 H 0.5878 0.3322 0.9395
C19 C 0.7304(4) 0.4336(3) 0.9308(3)
C20 C 0.7602(4) 0.4819(3) 1.0072(3)
C21 C 1.1069(5) 0.8318(3) 1.0389(3)
C22 C 1.0501(6) 0.8906(4) 1.0732(4)
H9 H 0.9690 0.8778 1.0650
C23 C 1.1119(7) 0.9673(4) 1.1190(4)
H10 H 1.0702 1.0058 1.1404
C24 C 1.2841(6) 0.9341(4) 1.1037(4)
H11 H 1.3656 0.9478 1.1147
C25 C 1.2291(5) 0.8557(4) 1.0553(3)
H12 H 1.2728 0.8189 1.0338
C26 C 1.0495(3) 0.6958(2) 0.62534(17)
C27 C 1.1653(3) 0.7371(3) 0.63408(19)
H13 H 1.2200 0.7367 0.6849
C28 C 1.1992(3) 0.7787(3) 0.5668(3)
H14 H 1.2767 0.8063 0.5727
C29 C 1.1173(4) 0.7792(3) 0.4908(2)
H15 H 1.1401 0.8071 0.4458
C30 C 1.0015(3) 0.7380(3) 0.48205(17)
H16 H 0.9468 0.7383 0.4312
C31 C 0.9676(2) 0.6963(2) 0.5493(2)
H17 H 0.8901 0.6687 0.5435
C32 C 0.7179(4) 0.2825(3) 0.6824(3)
C33 C 0.7303(4) 0.1942(3) 0.7086(3)
H18 H 0.7744 0.1858 0.7620
C34 C 0.6778(4) 0.1189(3) 0.6561(3)
H19 H 0.6891 0.0605 0.6751
C35 C 0.5977(5) 0.2103(3) 0.5543(3)
H20 H 0.5516 0.2168 0.5011
C36 C 0.6484(5) 0.2893(3) 0.6032(3)
H21 H 0.6357 0.3470 0.5828
C37 C 0.6956(4) 0.4479(3) 1.0710(3)
C38 C 0.7104(5) 0.3642(4) 1.1067(4)
H22 H 0.7659 0.3316 1.0946
C39 C 0.6436(5) 0.3278(4) 1.1603(4)
H23 H 0.6526 0.2703 1.1825
C40 C 0.5634(5) 0.3775(4) 1.1807(4)
H24 H 0.5204 0.3547 1.2182
C41 C 0.5483(6) 0.4598(4) 1.1453(4)
H25 H 0.4923 0.4919 1.1572
C42 C 0.6147(5) 0.4971(4) 1.0919(4)
H26 H 0.6052 0.5547 1.0700
C43 C 0.3751(4) 0.9790(3) 0.6401(3)
C44 C 0.3799(4) 0.9365(3) 0.7185(3)
H27 H 0.3335 0.9446 0.7547
C45 C 0.4645(4) 0.8824(3) 0.7297(3)
H28 H 0.4858 0.8448 0.7743
C46 C 0.5153(4) 0.8941(3) 0.6597(3)
C47 C 0.6080(4) 0.8518(3) 0.6490(3)
C48 C 0.6643(4) 0.8717(3) 0.5852(3)
C49 C 0.2331(5) 1.1653(4) 0.4206(3)
H29 H 0.1942 1.2050 0.3841
C50 C 0.2041(5) 1.1314(4) 0.4892(4)
H30 H 0.1406 1.1429 0.5089
C51 C 0.2885(4) 1.0746(4) 0.5263(3)
C52 C 0.2935(4) 1.0345(3) 0.6029(3)
C53 C 0.6493(4) 0.7774(3) 0.7053(3)
C54 C 0.7051(4) 0.7956(3) 0.7889(3)
H31 H 0.7100 0.8534 0.8139
C55 C 0.7539(4) 0.7247(3) 0.8346(3)
H32 H 0.7913 0.7370 0.8906
C56 C 0.6885(4) 0.6221(3) 0.7232(3)
H33 H 0.6809 0.5627 0.7007
C57 C 0.6356(4) 0.6876(3) 0.6732(3)
H34 H 0.5918 0.6716 0.6191
C58 C 0.2053(3) 1.0570(3) 0.6482(2)
C59 C 0.0954(4) 1.0024(3) 0.6331(3)
H35 H 0.0789 0.9494 0.5987
C60 C 0.0103(3) 1.0269(4) 0.6694(3)
H36 H -0.0632 0.9903 0.6593
C61 C 0.0350(4) 1.1061(4) 0.7209(3)
H37 H -0.0219 1.1225 0.7452
C62 C 0.1449(5) 1.1607(3) 0.7360(3)
H38 H 0.1614 1.2137 0.7704
C63 C 0.2300(4) 1.1362(3) 0.6997(3)
H39 H 0.3036 1.1727 0.7098
N7A N 0.5393(3) 1.0458(2) 0.3948(2)
N8A N 0.6317(3) 0.9300(2) 0.5214(2)
N9A N 0.2502(3) 1.3595(3) 0.1976(2)
C43A C 0.6249(4) 1.0210(3) 0.3599(3)
C44A C 0.6201(4) 1.0635(3) 0.2815(3)
H27A H 0.6665 1.0554 0.2453
C45A C 0.5355(4) 1.1176(3) 0.2703(3)
H28A H 0.5142 1.1552 0.2257
C46A C 0.4847(4) 1.1059(3) 0.3403(3)
C47A C 0.3920(4) 1.1482(3) 0.3510(3)
C48A C 0.3357(4) 1.1283(3) 0.4148(3)
C49A C 0.7669(5) 0.8347(4) 0.5794(3)
H29A H 0.8058 0.7950 0.6159
C50A C 0.7959(5) 0.8686(4) 0.5108(4)
H30A H 0.8594 0.8571 0.4911
C51A C 0.7115(4) 0.9254(4) 0.4737(3)
C52A C 0.7065(4) 0.9655(3) 0.3971(3)
C53A C 0.3507(4) 1.2226(3) 0.2947(3)
C54A C 0.2949(4) 1.2044(3) 0.2111(3)
H31A H 0.2900 1.1466 0.1861
C55A C 0.2461(4) 1.2753(3) 0.1654(3)
H32A H 0.2087 1.2630 0.1094
C56A C 0.3115(4) 1.3779(3) 0.2768(3)
H33A H 0.3191 1.4373 0.2993
C57A C 0.3644(4) 1.3124(3) 0.3268(3)
H34A H 0.4082 1.3284 0.3809
C58A C 0.7947(3) 0.9430(3) 0.3518(2)
C59A C 0.9046(4) 0.9976(3) 0.3669(3)
H35A H 0.9211 1.0506 0.4013
C60A C 0.9897(3) 0.9731(4) 0.3306(3)
H36A H 1.0632 1.0097 0.3407
C61A C 0.9650(4) 0.8939(4) 0.2791(3)
H37A H 1.0219 0.8775 0.2548
C62A C 0.8551(5) 0.8393(3) 0.2640(3)
H38A H 0.8386 0.7863 0.2296
C63A C 0.7700(4) 0.8638(3) 0.3003(3)
H39A H 0.6964 0.8273 0.2902
Co1A Co 0.10738(5) 0.43527(4) 0.14358(4)
N1A N 0.0925(3) 0.3978(2) 0.0267(2)
N2A N -0.0019(3) 0.3236(3) 0.1551(2)
N3A N 0.0990(3) 0.4824(2) 0.2528(2)
N4A N 0.2126(3) 0.5488(3) 0.1318(2)
N5A N -0.2288(6) 0.0090(3) -0.1354(3)
N6A N 0.3888(4) 0.8747(3) 0.4211(2)
C1A C 0.1492(4) 0.4425(3) -0.0283(3)
C2A C 0.1055(4) 0.3976(3) -0.1101(3)
H1A H 0.1287 0.4160 -0.1579
C3A C 0.0259(4) 0.3251(3) -0.1043(3)
H2A H -0.0173 0.2835 -0.1472
C4A C 0.0198(4) 0.3235(3) -0.0190(3)
C5A C -0.0440(4) 0.2510(3) 0.0143(3)
C6A C -0.0460(4) 0.2504(3) 0.0982(3)
C7A C -0.0941(5) 0.1721(3) 0.1374(3)
H3A H -0.1278 0.1144 0.1121
C8A C -0.0818(5) 0.1971(4) 0.2170(3)
H4A H -0.1048 0.1599 0.2573
C9A C -0.0269(4) 0.2910(3) 0.2287(3)
C10A C -0.0104(4) 0.3466(3) 0.3015(3)
C11A C 0.0405(4) 0.4380(3) 0.3079(3)
C12A C 0.0444(5) 0.5005(4) 0.3758(3)
H5A H 0.0092 0.4877 0.4195
C13A C 0.1086(5) 0.5807(4) 0.3642(3)
H6A H 0.1258 0.6340 0.3984
C14A C 0.1455(4) 0.5691(3) 0.2896(3)
C15A C 0.2271(4) 0.6325(3) 0.2626(3)
C16A C 0.2613(4) 0.6188(3) 0.1895(3)
C17A C 0.3558(5) 0.6780(3) 0.1655(3)
H7A H 0.4039 0.7292 0.1956
C18A C 0.3599(5) 0.6445(3) 0.0916(3)
H8A H 0.4122 0.6678 0.0605
C19A C 0.2696(4) 0.5664(3) 0.0692(3)
C20A C 0.2398(4) 0.5181(3) -0.0072(3)
C21A C -0.1069(5) 0.1682(3) -0.0389(3)
C22A C -0.0501(6) 0.1094(4) -0.0732(4)
H9A H 0.0310 0.1222 -0.0650
C23A C -0.1119(7) 0.0327(4) -0.1190(4)
H10A H -0.0702 -0.0058 -0.1404
C24A C -0.2841(6) 0.0659(4) -0.1037(4)
H11A H -0.3656 0.0522 -0.1147
C25A C -0.2291(5) 0.1443(4) -0.0553(3)
H12A H -0.2728 0.1811 -0.0338
C26A C -0.0495(3) 0.3042(2) 0.37466(17)
C27A C -0.1653(3) 0.2629(3) 0.36592(19)
H13A H -0.2200 0.2633 0.3151
C28A C -0.1992(3) 0.2213(3) 0.4332(3)
H14A H -0.2767 0.1937 0.4273
C29A C -0.1173(4) 0.2208(3) 0.5092(2)
H15A H -0.1401 0.1929 0.5542
C30A C -0.0015(3) 0.2620(3) 0.51795(17)
H16A H 0.0532 0.2617 0.5688
C31A C 0.0324(2) 0.3037(2) 0.4507(2)
H17A H 0.1099 0.3313 0.4565
C32A C 0.2821(4) 0.7175(3) 0.3176(3)
C33A C 0.2697(4) 0.8058(3) 0.2914(3)
H18A H 0.2256 0.8142 0.2380
C34A C 0.3222(4) 0.8811(3) 0.3439(3)
H19A H 0.3109 0.9395 0.3249
C35A C 0.4023(5) 0.7897(3) 0.4457(3)
H20A H 0.4484 0.7832 0.4989
C36A C 0.3516(5) 0.7107(3) 0.3968(3)
H21A H 0.3643 0.6530 0.4172
C37A C 0.3044(4) 0.5521(3) -0.0710(3)
C38A C 0.2896(5) 0.6358(4) -0.1067(4)
H22A H 0.2341 0.6684 -0.0946
C39A C 0.3564(5) 0.6722(4) -0.1603(4)
H23A H 0.3474 0.7297 -0.1825
C40A C 0.4366(5) 0.6225(4) -0.1807(4)
H24A H 0.4796 0.6453 -0.2182
C41A C 0.4517(6) 0.5402(4) -0.1453(4)
H25A H 0.5077 0.5081 -0.1572
C42A C 0.3853(5) 0.5029(4) -0.0919(4)
H26A H 0.3948 0.4453 -0.0700
Co1A_2 Co 0.10738(5) 1.43527(4) 0.14358(4)
Co2_2 Co 0.5000 0.0000 0.5000
N6_2 N 0.6112(4) 1.1253(3) 0.5789(2)
N9A_2 N 0.2502(3) 0.3595(3) 0.1976(2)
O1 O 0.7354(12) 0.6412(9) 0.2683(8)
C64 C 0.7452(12) 0.5740(10) 0.3145(8)
H40 H 0.7978 0.5355 0.3076
N10 N 0.6781(8) 0.5490(5) 0.3817(6)
C65 C 0.6970(14) 0.4508(7) 0.4083(10)
H41 H 0.6434 0.4279 0.4410
H42 H 0.7763 0.4523 0.4408
H43 H 0.6832 0.4111 0.3597
C66 C 0.6031(14) 0.6264(10) 0.3768(12)
H44 H 0.5936 0.6397 0.4312
H45 H 0.5274 0.6070 0.3394
H46 H 0.6415 0.6809 0.3568
O2 O 0.5226(13) 0.1057(10) 1.0507(9)
C67 C 0.4681(15) 0.1730(13) 1.0399(9)
H47 H 0.4814 0.2258 1.0742
N11 N 0.3740(8) 0.1492(6) 0.9575(6)
C68 C 0.3204(12) 0.2389(7) 0.9479(9)
H48 H 0.3643 0.2829 0.9915
H49 H 0.2402 0.2259 0.9514
H50 H 0.3232 0.2639 0.8949
C69 C 0.2977(17) 0.0593(10) 0.9155(12)
H51 H 0.2240 0.0511 0.9305
H52 H 0.3376 0.0079 0.9336
H53 H 0.2838 0.0627 0.8561
loop_
_geom_bond_atom_site_label_1
_geom_bond_atom_site_label_2
_geom_bond_site_symmetry_1
_geom_bond_site_symmetry_2
Co1 N1 1_555 1_555
Co2 N7 1_555 1_555
N1 C1 1_555 1_555
N2 Co1 1_555 1_555
N3 Co1 1_555 1_555
N4 Co1 1_555 1_555
N5 C23 1_555 1_555
N6 C34 1_555 1_555
N7 C43 1_555 1_555
N8 Co2 1_555 1_555
N9 Co1 1_555 1_555
C1 C2 1_555 1_555
C2 H1 1_555 1_555
C3 C2 1_555 1_555
H2 C3 1_555 1_555
C4 N1 1_555 1_555
C5 C4 1_555 1_555
C6 N2 1_555 1_555
C7 C6 1_555 1_555
H3 C7 1_555 1_555
C8 C7 1_555 1_555
H4 C8 1_555 1_555
C9 N2 1_555 1_555
C10 C9 1_555 1_555
C11 N3 1_555 1_555
C12 C11 1_555 1_555
H5 C12 1_555 1_555
C13 C12 1_555 1_555
H6 C13 1_555 1_555
C14 N3 1_555 1_555
C15 C14 1_555 1_555
C16 N4 1_555 1_555
C17 C16 1_555 1_555
H7 C17 1_555 1_555
C18 C17 1_555 1_555
H8 C18 1_555 1_555
C19 N4 1_555 1_555
C20 C1 1_555 1_555
C21 C5 1_555 1_555
C22 C21 1_555 1_555
H9 C22 1_555 1_555
C23 C22 1_555 1_555
H10 C23 1_555 1_555
C24 N5 1_555 1_555
H11 C24 1_555 1_555
C25 C21 1_555 1_555
H12 C25 1_555 1_555
C26 C10 1_555 1_555
C27 C26 1_555 1_555
H13 C27 1_555 1_555
C28 C27 1_555 1_555
H14 C28 1_555 1_555
C29 C28 1_555 1_555
H15 C29 1_555 1_555
C30 C29 1_555 1_555
H16 C30 1_555 1_555
C31 C26 1_555 1_555
H17 C31 1_555 1_555
C32 C15 1_555 1_555
C33 C32 1_555 1_555
H18 C33 1_555 1_555
C34 C33 1_555 1_555
H19 C34 1_555 1_555
C35 N6 1_555 1_555
H20 C35 1_555 1_555
C36 C32 1_555 1_555
H21 C36 1_555 1_555
C37 C20 1_555 1_555
C38 C37 1_555 1_555
H22 C38 1_555 1_555
C39 C38 1_555 1_555
H23 C39 1_555 1_555
C40 C39 1_555 1_555
H24 C40 1_555 1_555
C41 C40 1_555 1_555
H25 C41 1_555 1_555
C42 C37 1_555 1_555
H26 C42 1_555 1_555
C43 C44 1_555 1_555
C44 H27 1_555 1_555
C45 C44 1_555 1_555
H28 C45 1_555 1_555
C46 N7 1_555 1_555
C47 C46 1_555 1_555
C48 C47 1_555 1_555
C49 H29 1_555 1_555
C50 C49 1_555 1_555
H30 C50 1_555 1_555
C51 N8 1_555 1_555
C52 C43 1_555 1_555
C53 C47 1_555 1_555
C54 C53 1_555 1_555
H31 C54 1_555 1_555
C55 N9 1_555 1_555
H32 C55 1_555 1_555
C56 N9 1_555 1_555
H33 C56 1_555 1_555
C57 C53 1_555 1_555
H34 C57 1_555 1_555
C58 C52 1_555 1_555
C59 C58 1_555 1_555
H35 C59 1_555 1_555
C60 C59 1_555 1_555
H36 C60 1_555 1_555
C61 C60 1_555 1_555
H37 C61 1_555 1_555
C62 C61 1_555 1_555
H38 C62 1_555 1_555
C63 C58 1_555 1_555
H39 C63 1_555 1_555
O1 C64 1_555 1_555
C64 H40 1_555 1_555
N10 C64 1_555 1_555
C65 N10 1_555 1_555
H41 C65 1_555 1_555
H42 C65 1_555 1_555
H43 C65 1_555 1_555
C66 N10 1_555 1_555
H44 C66 1_555 1_555
H45 C66 1_555 1_555
H46 C66 1_555 1_555
O2 C67 1_555 1_555
C67 H47 1_555 1_555
N11 C67 1_555 1_555
C68 N11 1_555 1_555
H48 C68 1_555 1_555
H49 C68 1_555 1_555
H50 C68 1_555 1_555
C69 N11 1_555 1_555
H51 C69 1_555 1_555
H52 C69 1_555 1_555
H53 C69 1_555 1_555
N7A Co2 1_555 1_555
N8A Co2 1_555 1_555
N9A C55A 1_555 1_555
C43A N7A 1_555 1_555
C44A C43A 1_555 1_555
H27A C44A 1_555 1_555
C45A C44A 1_555 1_555
H28A C45A 1_555 1_555
C46A N7A 1_555 1_555
C47A C46A 1_555 1_555
C48A N8 1_555 1_555
C49A C48 1_555 1_555
H29A C49A 1_555 1_555
C50A C49A 1_555 1_555
H30A C50A 1_555 1_555
C51A N8A 1_555 1_555
C52A C43A 1_555 1_555
C53A C47A 1_555 1_555
C54A C53A 1_555 1_555
H31A C54A 1_555 1_555
C55A C54A 1_555 1_555
H32A C55A 1_555 1_555
C56A N9A 1_555 1_555
H33A C56A 1_555 1_555
C57A C53A 1_555 1_555
H34A C57A 1_555 1_555
C58A C52A 1_555 1_555
C59A C58A 1_555 1_555
H35A C59A 1_555 1_555
C60A C59A 1_555 1_555
H36A C60A 1_555 1_555
C61A C60A 1_555 1_555
H37A C61A 1_555 1_555
C62A C61A 1_555 1_555
H38A C62A 1_555 1_555
C63A C58A 1_555 1_555
H39A C63A 1_555 1_555
Co1A N1A 1_555 1_555
N1A C1A 1_555 1_555
N2A Co1A 1_555 1_555
N3A Co1A 1_555 1_555
N4A Co1A 1_555 1_555
N5A C23A 1_555 1_555
N6A Co2 1_555 1_555
C1A C2A 1_555 1_555
C2A H1A 1_555 1_555
C3A C2A 1_555 1_555
H2A C3A 1_555 1_555
C4A N1A 1_555 1_555
C5A C4A 1_555 1_555
C6A N2A 1_555 1_555
C7A C6A 1_555 1_555
H3A C7A 1_555 1_555
C8A C7A 1_555 1_555
H4A C8A 1_555 1_555
C9A N2A 1_555 1_555
C10A C9A 1_555 1_555
C11A N3A 1_555 1_555
C12A C11A 1_555 1_555
H5A C12A 1_555 1_555
C13A C12A 1_555 1_555
H6A C13A 1_555 1_555
C14A N3A 1_555 1_555
C15A C14A 1_555 1_555
C16A N4A 1_555 1_555
C17A C16A 1_555 1_555
H7A C17A 1_555 1_555
C18A C17A 1_555 1_555
H8A C18A 1_555 1_555
C19A N4A 1_555 1_555
C20A C1A 1_555 1_555
C21A C5A 1_555 1_555
C22A C21A 1_555 1_555
H9A C22A 1_555 1_555
C23A C22A 1_555 1_555
H10A C23A 1_555 1_555
C24A N5A 1_555 1_555
H11A C24A 1_555 1_555
C25A C21A 1_555 1_555
H12A C25A 1_555 1_555
C26A C10A 1_555 1_555
C27A C26A 1_555 1_555
H13A C27A 1_555 1_555
C28A C27A 1_555 1_555
H14A C28A 1_555 1_555
C29A C28A 1_555 1_555
H15A C29A 1_555 1_555
C30A C29A 1_555 1_555
H16A C30A 1_555 1_555
C31A C26A 1_555 1_555
H17A C31A 1_555 1_555
C32A C15A 1_555 1_555
C33A C32A 1_555 1_555
H18A C33A 1_555 1_555
C34A N6A 1_555 1_555
H19A C34A 1_555 1_555
C35A N6A 1_555 1_555
H20A C35A 1_555 1_555
C36A C32A 1_555 1_555
H21A C36A 1_555 1_555
C37A C20A 1_555 1_555
C38A C37A 1_555 1_555
H22A C38A 1_555 1_555
C39A C38A 1_555 1_555
H23A C39A 1_555 1_555
C40A C39A 1_555 1_555
H24A C40A 1_555 1_555
C41A C40A 1_555 1_555
H25A C41A 1_555 1_555
C42A C37A 1_555 1_555
H26A C42A 1_555 1_555
Co1A_2 N9A 1_555 1_555
Co2_2 N6 1_555 1_555
N6_2 Co2 1_555 1_555
N9A_2 Co1A 1_555 1_555
C3 C4 1_555 1_555
C5 C6 1_555 1_555
C8 C9 1_555 1_555
C10 C11 1_555 1_555
C13 C14 1_555 1_555
C15 C16 1_555 1_555
C18 C19 1_555 1_555
C19 C20 1_555 1_555
C24 C25 1_555 1_555
C30 C31 1_555 1_555
C35 C36 1_555 1_555
C41 C42 1_555 1_555
C45 C46 1_555 1_555
C48 N8A 1_555 1_555
C49 C48A 1_555 1_555
C50 C51 1_555 1_555
C51 C52 1_555 1_555
C54 C55 1_555 1_555
C56 C57 1_555 1_555
C62 C63 1_555 1_555
C45A C46A 1_555 1_555
C47A C48A 1_555 1_555
C50A C51A 1_555 1_555
C51A C52A 1_555 1_555
C56A C57A 1_555 1_555
C62A C63A 1_555 1_555
C3A C4A 1_555 1_555
C5A C6A 1_555 1_555
C8A C9A 1_555 1_555
C10A C11A 1_555 1_555
C13A C14A 1_555 1_555
C15A C16A 1_555 1_555
C18A C19A 1_555 1_555
C19A C20A 1_555 1_555
C24A C25A 1_555 1_555
C30A C31A 1_555 1_555
C33A C34A 1_555 1_555
C35A C36A 1_555 1_555
C41A C42A 1_555 1_555

#END
