
#######################################################################
#
#                 Cambridge Crystallographic Data Centre
#                                CCDC 
#
#######################################################################
#
# If this CIF has been generated from an entry in the Cambridge 
# Structural Database, then it will include bibliographic, chemical, 
# crystal, experimental, refinement or atomic coordinate data resulting 
# from the CCDC's data processing and validation procedures.
#
#######################################################################

data_UWAGAB05
_chemical_formula_moiety         '(C78 H48 N2 O13 Zn4)n'
_chemical_name_systematic        
catena-(bis(\m~6~-4',4'',4'''-Nitrilotribiphenyl-4-carboxylato)-(\m~4~-oxo)-tetra-zinc)
_symmetry_cell_setting           cubic
_symmetry_space_group_name_H-M   'I a -3'
_symmetry_Int_Tables_number      206
_space_group_name_Hall           '-I 2b 2c 3'
loop_
_symmetry_equiv_pos_site_id
_symmetry_equiv_pos_as_xyz
1 x,y,z
2 -x,1/2-y,z
3 x,-y,1/2-z
4 -x,1/2+y,1/2-z
5 y,z,x
6 -y,1/2-z,x
7 y,-z,1/2-x
8 -y,1/2+z,1/2-x
9 z,x,y
10 1/2-z,x,-y
11 -z,1/2-x,y
12 1/2+z,1/2-x,-y
13 1/2+x,1/2+y,1/2+z
14 1/2-x,-y,1/2+z
15 1/2+x,1/2-y,-z
16 1/2-x,y,-z
17 1/2+y,1/2+z,1/2+x
18 1/2-y,-z,1/2+x
19 1/2+y,1/2-z,-x
20 1/2-y,z,-x
21 1/2+z,1/2+x,1/2+y
22 -z,1/2+x,1/2-y
23 1/2-z,-x,1/2+y
24 z,-x,1/2-y
25 -x,-y,-z
26 x,1/2+y,-z
27 -x,y,1/2+z
28 x,1/2-y,1/2+z
29 -y,-z,-x
30 y,1/2+z,-x
31 -y,z,1/2+x
32 y,1/2-z,1/2+x
33 -z,-x,-y
34 1/2+z,-x,y
35 z,1/2+x,-y
36 1/2-z,1/2+x,y
37 1/2-x,1/2-y,1/2-z
38 1/2+x,y,1/2-z
39 1/2-x,1/2+y,z
40 1/2+x,-y,z
41 1/2-y,1/2-z,1/2-x
42 1/2+y,z,1/2-x
43 1/2-y,1/2+z,x
44 1/2+y,-z,x
45 1/2-z,1/2-x,1/2-y
46 z,1/2-x,1/2+y
47 1/2+z,x,1/2-y
48 -z,x,1/2+y
_cell_length_a                   32.359(5)
_cell_length_b                   32.359(5)
_cell_length_c                   32.359(5)
_cell_angle_alpha                90
_cell_angle_beta                 90
_cell_angle_gamma                90
_cell_volume                     33883.3
_exptl_crystal_colour            brown
_exptl_crystal_description       prism
_cell_formula_units_Z            8
loop_
_atom_site_label
_atom_site_type_symbol
_atom_site_fract_x
_atom_site_fract_y
_atom_site_fract_z
C1 C 0.17397(19) 0.08902(18) 0.2826(3)
H1 H 0.1536 0.1054 0.2706
C2 C 0.1630(2) 0.0502(2) 0.2969(4)
H2 H 0.135 0.044 0.2977
C3 C 0.2240(2) 0.0342(3) 0.3050(5)
H3 H 0.245 0.0152 0.31
C4 C 0.2349(2) 0.0752(3) 0.2930(5)
H4 H 0.2629 0.0815 0.2912
C5 C 0.19354(14) -0.09091(14) 0.34020(15)
H5 H 0.2132 -0.1115 0.3441
O1 O 0.20312(16) 0.16538(15) 0.24552(17)
O2 O 0.25055(18) 0.16477(16) 0.29617(18)
C6 C 0.22172(12) 0.14583(12) 0.27345(12)
C7 C 0.20997(14) 0.10308(13) 0.28491(12)
C8 C 0.18752(14) 0.02296(14) 0.30893(13)
C9 C 0.17542(13) -0.01997(14) 0.32153(14)
C10 C 0.13624(15) -0.03194(14) 0.32315(16)
H6 H 0.1157 -0.0132 0.3159
C11 C 0.12498(16) -0.07086(15) 0.33507(17)
H7 H 0.097 -0.0774 0.3352
C12 C 0.15110(13) -0.09947(14) 0.34624(14)
C13 C 0.20559(15) -0.05141(15) 0.32833(16)
H8 H 0.2335 -0.0454 0.3248
N1 N 0.13908(16) -0.13908(16) 0.36092(16)
O5 O 0.25000 0.25000 0.25000
Zn1 Zn 0.21664(2) 0.21664(2) 0.21664(2)
Zn2 Zn 0.26894(2) 0.22145(2) 0.30024(2)
C1V C 0.2174(3) -0.17397(19) 0.58902(18)
C1G C -0.08902(18) -0.2174(3) 0.32603(19)
C1H C 0.2826(3) 0.17397(19) 0.08902(18)
C1R C 0.58902(18) 0.2174(3) -0.17397(19)
C1M C 0.32603(19) -0.08902(18) -0.2174(3)
H1V H 0.2294 -0.1536 0.6054
H1G H -0.1054 -0.2294 0.3464
H1H H 0.2706 0.1536 0.1054
H1R H 0.6054 0.2294 -0.1536
H1M H 0.3464 -0.1054 -0.2294
C2V C 0.2031(4) -0.1630(2) 0.5502(2)
C2G C -0.0502(2) -0.2031(4) 0.3370(2)
C2H C 0.2969(4) 0.1630(2) 0.0502(2)
C2R C 0.5502(2) 0.2031(4) -0.1630(2)
C2M C 0.3370(2) -0.0502(2) -0.2031(4)
H2V H 0.2023 -0.135 0.544
H2G H -0.044 -0.2023 0.365
H2H H 0.2977 0.135 0.044
H2R H 0.544 0.2023 -0.135
H2M H 0.365 -0.044 -0.2023
C3V C 0.1950(5) -0.2240(2) 0.5342(3)
C3G C -0.0342(3) -0.1950(5) 0.2760(2)
C3H C 0.3050(5) 0.2240(2) 0.0342(3)
C3R C 0.5342(3) 0.1950(5) -0.2240(2)
C3M C 0.2760(2) -0.0342(3) -0.1950(5)
H3V H 0.19 -0.245 0.5152
H3G H -0.0152 -0.19 0.255
H3H H 0.31 0.245 0.0152
H3R H 0.5152 0.19 -0.245
H3M H 0.255 -0.0152 -0.19
C4V C 0.2070(5) -0.2349(2) 0.5752(3)
C4G C -0.0752(3) -0.2070(5) 0.2651(2)
C4H C 0.2930(5) 0.2349(2) 0.0752(3)
C4R C 0.5752(3) 0.2070(5) -0.2349(2)
C4M C 0.2651(2) -0.0752(3) -0.2070(5)
H4V H 0.2088 -0.2629 0.5815
H4G H -0.0815 -0.2088 0.2371
H4H H 0.2912 0.2629 0.0815
H4R H 0.5815 0.2088 -0.2629
H4M H 0.2371 -0.0815 -0.2088
C5V C 0.15980(15) -0.19354(14) 0.40909(14)
C5G C 0.09091(14) -0.15980(15) 0.30646(14)
C5H C 0.34020(15) 0.19354(14) -0.09091(14)
C5R C 0.40909(14) 0.15980(15) -0.19354(14)
C5M C 0.30646(14) 0.09091(14) -0.15980(15)
H5V H 0.1559 -0.2132 0.3885
H5G H 0.1115 -0.1559 0.2868
H5H H 0.3441 0.2132 -0.1115
H5R H 0.3885 0.1559 -0.2132
H5M H 0.2868 0.1115 -0.1559
O1V O 0.25448(17) -0.20312(16) 0.66538(15)
O1G O -0.16538(15) -0.25448(17) 0.29688(16)
O1H O 0.24552(17) 0.20312(16) 0.16538(15)
O1R O 0.66538(15) 0.25448(17) -0.20312(16)
O1M O 0.29688(16) -0.16538(15) -0.25448(17)
O1D O 0.16538(15) 0.24552(17) 0.20312(16)
O1Q O 0.33462(15) -0.24552(17) 0.70312(16)
O1M_2 O 0.29688(16) -0.16538(15) 0.74552(17)
O2V O 0.20383(18) -0.25055(18) 0.66477(16)
O2G O -0.16477(16) -0.20383(18) 0.24945(18)
O2H O 0.29617(18) 0.25055(18) 0.16477(16)
O2R O 0.66477(16) 0.20383(18) -0.25055(18)
O2M O 0.24945(18) -0.16477(16) -0.20383(18)
C6V C 0.22655(12) -0.22172(12) 0.64583(12)
C6G C -0.14583(12) -0.22655(12) 0.27828(12)
C6H C 0.27345(12) 0.22172(12) 0.14583(12)
C6R C 0.64583(12) 0.22655(12) -0.22172(12)
C6M C 0.27828(12) -0.14583(12) -0.22655(12)
C7V C 0.21509(12) -0.20997(14) 0.60308(13)
C7G C -0.10308(13) -0.21509(12) 0.29003(14)
C7H C 0.28491(12) 0.20997(14) 0.10308(13)
C7R C 0.60308(13) 0.21509(12) -0.20997(14)
C7M C 0.29003(14) -0.10308(13) -0.21509(12)
C8V C 0.19107(13) -0.18752(14) 0.52296(14)
C8G C -0.02296(14) -0.19107(13) 0.31248(14)
C8H C 0.30893(13) 0.18752(14) 0.02296(14)
C8R C 0.52296(14) 0.19107(13) -0.18752(14)
C8M C 0.31248(14) -0.02296(14) -0.19107(13)
C9V C 0.17847(14) -0.17542(13) 0.48003(14)
C9G C 0.01997(14) -0.17847(14) 0.32458(13)
C9H C 0.32153(14) 0.17542(13) -0.01997(14)
C9R C 0.48003(14) 0.17847(14) -0.17542(13)
C9M C 0.32458(13) 0.01997(14) -0.17847(14)
C10V C 0.17685(16) -0.13624(15) 0.46806(14)
C10G C 0.03194(14) -0.17685(16) 0.36376(15)
C10H C 0.32315(16) 0.13624(15) -0.03194(14)
C10R C 0.46806(14) 0.17685(16) -0.13624(15)
C10M C 0.36376(15) 0.03194(14) -0.17685(16)
H6V H 0.1841 -0.1157 0.4868
H6G H 0.0132 -0.1841 0.3843
H6H H 0.3159 0.1157 -0.0132
H6R H 0.4868 0.1841 -0.1157
H6M H 0.3843 0.0132 -0.1841
C11V C 0.16493(17) -0.12498(16) 0.42914(15)
C11G C 0.07086(15) -0.16493(17) 0.37502(16)
C11H C 0.33507(17) 0.12498(16) -0.07086(15)
C11R C 0.42914(15) 0.16493(17) -0.12498(16)
C11M C 0.37502(16) 0.07086(15) -0.16493(17)
H7V H 0.1648 -0.097 0.4226
H7G H 0.0774 -0.1648 0.403
H7H H 0.3352 0.097 -0.0774
H7R H 0.4226 0.1648 -0.097
H7M H 0.403 0.0774 -0.1648
C12V C 0.15376(14) -0.15110(13) 0.40053(14)
C12G C 0.09947(14) -0.15376(14) 0.34890(13)
C12H C 0.34624(14) 0.15110(13) -0.09947(14)
C12R C 0.40053(14) 0.15376(14) -0.15110(13)
C12M C 0.34890(13) 0.09947(14) -0.15376(14)
C13V C 0.17167(16) -0.20559(15) 0.44859(15)
C13G C 0.05141(15) -0.17167(16) 0.29441(15)
C13H C 0.32833(16) 0.20559(15) -0.05141(15)
C13R C 0.44859(15) 0.17167(16) -0.20559(15)
C13M C 0.29441(15) 0.05141(15) -0.17167(16)
H8V H 0.1752 -0.2335 0.4546
H8G H 0.0454 -0.1752 0.2665
H8H H 0.3248 0.2335 -0.0454
H8R H 0.4546 0.1752 -0.2335
H8M H 0.2665 0.0454 -0.1752
N1H N 0.36092(16) 0.13908(16) -0.13908(16)
O5M O 0.25000 -0.25000 0.75000
O5C O -0.25000 -0.25000 0.25000
O5K O 0.75000 0.25000 -0.25000
O5M_2 O 0.25000 -0.25000 -0.25000
Zn1M Zn 0.28336(2) -0.21664(2) 0.71664(2)
Zn1JA Zn 0.28336(2) 0.28336(2) 0.28336(2)
Zn1C Zn -0.21664(2) -0.28336(2) 0.28336(2)
Zn1K Zn 0.71664(2) 0.28336(2) -0.21664(2)
Zn1M_2 Zn 0.28336(2) -0.21664(2) -0.28336(2)
Zn2V Zn 0.19976(2) -0.26894(2) 0.72145(2)
Zn2G Zn -0.22145(2) -0.19976(2) 0.23106(2)
Zn2H Zn 0.30024(2) 0.26894(2) 0.22145(2)
Zn2R Zn 0.72145(2) 0.19976(2) -0.26894(2)
Zn2M Zn 0.23106(2) -0.22145(2) -0.19976(2)
Zn2D Zn 0.22145(2) 0.30024(2) 0.26894(2)
Zn2JA Zn 0.23106(2) 0.27855(2) 0.19976(2)
Zn2NA Zn 0.27855(2) 0.19976(2) 0.23106(2)
Zn2RA Zn 0.19976(2) 0.23106(2) 0.27855(2)
O3? O 0.1952(2) 0.17197(18) 0.2793(2)
O4? O 0.25554(18) 0.14913(16) 0.2532(2)
loop_
_geom_bond_atom_site_label_1
_geom_bond_atom_site_label_2
_geom_bond_site_symmetry_1
_geom_bond_site_symmetry_2
C1 H1 1_555 1_555
C2 C1 1_555 1_555
H2 C2 1_555 1_555
C3 H3 1_555 1_555
C4 C3 1_555 1_555
H4 C4 1_555 1_555
C5 H5 1_555 1_555
O1 C6 1_555 1_555
O2 C6 1_555 1_555
C6 C7 1_555 1_555
C7 C1 1_555 1_555
C8 C2 1_555 1_555
C9 C8 1_555 1_555
C10 C9 1_555 1_555
H6 C10 1_555 1_555
C11 C10 1_555 1_555
H7 C11 1_555 1_555
C12 C5 1_555 1_555
C13 C5 1_555 1_555
H8 C13 1_555 1_555
N1 C12 1_555 1_555
O5 Zn1 1_555 1_555
Zn1 O1 1_555 1_555
Zn2 O2 1_555 1_555
C1V H1V 1_555 1_555
C1G H1G 1_555 1_555
C1H H1H 1_555 1_555
C1R H1R 1_555 1_555
C1M H1M 1_555 1_555
C2V C1V 1_555 1_555
C2G C1G 1_555 1_555
C2H C1H 1_555 1_555
C2R C1R 1_555 1_555
C2M C1M 1_555 1_555
H2V C2V 1_555 1_555
H2G C2G 1_555 1_555
H2H C2H 1_555 1_555
H2R C2R 1_555 1_555
H2M C2M 1_555 1_555
C3V H3V 1_555 1_555
C3G H3G 1_555 1_555
C3H H3H 1_555 1_555
C3R H3R 1_555 1_555
C3M H3M 1_555 1_555
C4V C3V 1_555 1_555
C4G C3G 1_555 1_555
C4H C3H 1_555 1_555
C4R C3R 1_555 1_555
C4M C3M 1_555 1_555
H4V C4V 1_555 1_555
H4G C4G 1_555 1_555
H4H C4H 1_555 1_555
H4R C4R 1_555 1_555
H4M C4M 1_555 1_555
C5V H5V 1_555 1_555
C5G H5G 1_555 1_555
C5H H5H 1_555 1_555
C5R H5R 1_555 1_555
C5M H5M 1_555 1_555
O1V C6V 1_555 1_555
O1G C6G 1_555 1_555
O1H Zn1 1_555 1_555
O1R C6R 1_555 1_555
O1M C6M 1_555 1_555
O1D Zn1 1_555 1_555
O1Q Zn1M 1_555 1_555
O1M_2 Zn1M 1_555 1_555
O2V C6V 1_555 1_555
O2G C6G 1_555 1_555
O2H C6H 1_555 1_555
O2R C6R 1_555 1_555
O2M C6M 1_555 1_555
C6V C7V 1_555 1_555
C6G C7G 1_555 1_555
C6H O1H 1_555 1_555
C6R C7R 1_555 1_555
C6M C7M 1_555 1_555
C7V C1V 1_555 1_555
C7G C1G 1_555 1_555
C7H C1H 1_555 1_555
C7R C1R 1_555 1_555
C7M C1M 1_555 1_555
C8V C2V 1_555 1_555
C8G C2G 1_555 1_555
C8H C2H 1_555 1_555
C8R C2R 1_555 1_555
C8M C2M 1_555 1_555
C9V C8V 1_555 1_555
C9G C8G 1_555 1_555
C9H C8H 1_555 1_555
C9R C8R 1_555 1_555
C9M C8M 1_555 1_555
C10V C9V 1_555 1_555
C10G C9G 1_555 1_555
C10H C9H 1_555 1_555
C10R C9R 1_555 1_555
C10M C9M 1_555 1_555
H6V C10V 1_555 1_555
H6G C10G 1_555 1_555
H6H C10H 1_555 1_555
H6R C10R 1_555 1_555
H6M C10M 1_555 1_555
C11V C10V 1_555 1_555
C11G C10G 1_555 1_555
C11H C10H 1_555 1_555
C11R C10R 1_555 1_555
C11M C10M 1_555 1_555
H7V C11V 1_555 1_555
H7G C11G 1_555 1_555
H7H C11H 1_555 1_555
H7R C11R 1_555 1_555
H7M C11M 1_555 1_555
C12V N1 1_555 1_555
C12G N1 1_555 1_555
C12H C5H 1_555 1_555
C12R C5R 1_555 1_555
C12M C5M 1_555 1_555
C13V C5V 1_555 1_555
C13G C5G 1_555 1_555
C13H C5H 1_555 1_555
C13R C5R 1_555 1_555
C13M C5M 1_555 1_555
H8V C13V 1_555 1_555
H8G C13G 1_555 1_555
H8H C13H 1_555 1_555
H8R C13R 1_555 1_555
H8M C13M 1_555 1_555
N1H C12H 1_555 1_555
O5M Zn1M 1_555 1_555
O5C Zn1C 1_555 1_555
O5K Zn1K 1_555 1_555
O5M_2 Zn1M_2 1_555 1_555
Zn1M O1V 1_555 1_555
Zn1JA O5 1_555 1_555
Zn1C O1G 1_555 1_555
Zn1K O1R 1_555 1_555
Zn1M_2 O1M 1_555 1_555
Zn2V O2V 1_555 1_555
Zn2G O2G 1_555 1_555
Zn2H O5 1_555 1_555
Zn2R O2R 1_555 1_555
Zn2M O2M 1_555 1_555
Zn2D O5 1_555 1_555
Zn2JA O5 1_555 1_555
Zn2NA O5 1_555 1_555
Zn2RA O5 1_555 1_555
C3 C8 1_555 1_555
C4 C7 1_555 1_555
C9 C13 1_555 1_555
C11 C12 1_555 1_555
O5 Zn2 1_555 1_555
C3V C8V 1_555 1_555
C3G C8G 1_555 1_555
C3H C8H 1_555 1_555
C3R C8R 1_555 1_555
C3M C8M 1_555 1_555
C4V C7V 1_555 1_555
C4G C7G 1_555 1_555
C4H C7H 1_555 1_555
C4R C7R 1_555 1_555
C4M C7M 1_555 1_555
C5V C12V 1_555 1_555
C5G C12G 1_555 1_555
O2H Zn2H 1_555 1_555
C6H C7H 1_555 1_555
C9V C13V 1_555 1_555
C9G C13G 1_555 1_555
C9H C13H 1_555 1_555
C9R C13R 1_555 1_555
C9M C13M 1_555 1_555
C11V C12V 1_555 1_555
C11G C12G 1_555 1_555
C11H C12H 1_555 1_555
C11R C12R 1_555 1_555
C11M C12M 1_555 1_555
C12R N1H 1_555 1_555
C12M N1H 1_555 1_555
O5M Zn2V 1_555 1_555
O5C Zn2G 1_555 1_555
O5K Zn2R 1_555 1_555
O5M_2 Zn2M 1_555 1_555

#END
