
#######################################################################
#
#                 Cambridge Crystallographic Data Centre
#                                CCDC 
#
#######################################################################
#
# If this CIF has been generated from an entry in the Cambridge 
# Structural Database, then it will include bibliographic, chemical, 
# crystal, experimental, refinement or atomic coordinate data resulting 
# from the CCDC's data processing and validation procedures.
#
#######################################################################

data_UWAGAB
_chemical_formula_moiety         '(C78 H48 N2 O13 Zn4)n'
_chemical_name_systematic        
catena-(bis(\m~6~-4',4'',4'''-Nitrilotribiphenyl-4-carboxylato)-(\m~4~-oxo)-tetra-zinc)
_symmetry_cell_setting           cubic
_symmetry_space_group_name_H-M   'I a -3'
_symmetry_Int_Tables_number      206
_space_group_name_Hall           '-I 2b 2c 3'
loop_
_symmetry_equiv_pos_site_id
_symmetry_equiv_pos_as_xyz
1 x,y,z
2 -x,1/2-y,z
3 x,-y,1/2-z
4 -x,1/2+y,1/2-z
5 y,z,x
6 -y,1/2-z,x
7 y,-z,1/2-x
8 -y,1/2+z,1/2-x
9 z,x,y
10 1/2-z,x,-y
11 -z,1/2-x,y
12 1/2+z,1/2-x,-y
13 1/2+x,1/2+y,1/2+z
14 1/2-x,-y,1/2+z
15 1/2+x,1/2-y,-z
16 1/2-x,y,-z
17 1/2+y,1/2+z,1/2+x
18 1/2-y,-z,1/2+x
19 1/2+y,1/2-z,-x
20 1/2-y,z,-x
21 1/2+z,1/2+x,1/2+y
22 -z,1/2+x,1/2-y
23 1/2-z,-x,1/2+y
24 z,-x,1/2-y
25 -x,-y,-z
26 x,1/2+y,-z
27 -x,y,1/2+z
28 x,1/2-y,1/2+z
29 -y,-z,-x
30 y,1/2+z,-x
31 -y,z,1/2+x
32 y,1/2-z,1/2+x
33 -z,-x,-y
34 1/2+z,-x,y
35 z,1/2+x,-y
36 1/2-z,1/2+x,y
37 1/2-x,1/2-y,1/2-z
38 1/2+x,y,1/2-z
39 1/2-x,1/2+y,z
40 1/2+x,-y,z
41 1/2-y,1/2-z,1/2-x
42 1/2+y,z,1/2-x
43 1/2-y,1/2+z,x
44 1/2+y,-z,x
45 1/2-z,1/2-x,1/2-y
46 z,1/2-x,1/2+y
47 1/2+z,x,1/2-y
48 -z,x,1/2+y
_cell_length_a                   32.2713(18)
_cell_length_b                   32.2713(18)
_cell_length_c                   32.2713(18)
_cell_angle_alpha                90
_cell_angle_beta                 90
_cell_angle_gamma                90
_cell_volume                     33608.5
_exptl_crystal_colour            orange
_exptl_crystal_description       prism
_cell_formula_units_Z            8
loop_
_atom_site_label
_atom_site_type_symbol
_atom_site_fract_x
_atom_site_fract_y
_atom_site_fract_z
O1 O 0.5055 0.4964 0.1007
O2 O 0.4452 0.4769 0.0774
Zn1 Zn 0.46745(4) 0.53255(4) 0.03255(4)
Zn2 Zn 0.5278 0.5201 0.0511
C1 C 0.4753(3) 0.4757(3) 0.1045(3)
C2 C 0.4611(3) 0.4658(2) 0.1470(2)
O4 O 0.50000 0.50000 0.00000
N1 N 0.3902(3) 0.3902(3) 0.3902(3)
C3 C 0.4270(3) 0.4298(2) 0.2712(3)
C4 C 0.4401(3) 0.4421(3) 0.2284(3)
C5 C 0.4443(3) 0.4106(3) 0.3418(3)
H1 H 0.4644 0.407 0.3621
C6 C 0.4023(3) 0.4049(2) 0.3519(3)
C7 C 0.4563(3) 0.4219(3) 0.3010(3)
H2 H 0.4843 0.4239 0.2944
C8 C 0.3875(3) 0.4283(3) 0.2816(3)
H3 H 0.3676 0.4352 0.262
C9 C 0.3750(3) 0.4167(3) 0.3206(3)
H4 H 0.3468 0.4168 0.3264
C10 C 0.4265(4) 0.4704(3) 0.1607(3)
H5 H 0.4066 0.4817 0.1432
C11 C 0.4876(4) 0.4556(5) 0.1749(4)
H6 H 0.5153 0.4551 0.1669
C12 C 0.4142(3) 0.4597(4) 0.2017(4)
H7 H 0.3871 0.4652 0.21
C13 C 0.4786(4) 0.4446(5) 0.2173(4)
H8 H 0.4999 0.4395 0.2361
O1D O 0.4964 0.1007 0.5055
O1H O 0.1007 0.5055 0.4964
O1G O 0.5036 0.6007 -0.0055
O1U O 0.8993 1.0055 0.0036
O1C O 0.4945 0.9964 0.3993
O1EA O 0.4964 0.3993 0.0055
O1X O 0.4945 0.5036 -0.1007
O1TA O 0.6007 0.5055 0.0036
O1V O 0.3993 0.4945 -0.0036
O2D O 0.4769 0.0774 0.4452
O2H O 0.0774 0.4452 0.4769
O2G O 0.5231 0.5774 0.0548
O2U O 0.9226 0.9452 0.0231
O2C O 0.5548 0.9769 0.4226
O2TA O 0.5774 0.4452 0.0231
O2EA O 0.4769 0.4226 -0.0548
O2X O 0.5548 0.5231 -0.0774
O2V O 0.4226 0.5548 -0.0231
Zn1X Zn 0.53255(4) 0.46745(4) -0.03255(4)
Zn2EA Zn 0.5201 0.4489 0.0278
Zn2X Zn 0.4722 0.4799 -0.0511
Zn2TA Zn 0.5511 0.5278 -0.0201
Zn2G Zn 0.4799 0.5511 -0.0278
Zn2V Zn 0.4489 0.4722 0.0201
Zn2D Zn 0.5201 0.0511 0.5278
Zn2C Zn 0.4722 0.0201 0.4489
Zn2H Zn 0.0511 0.5278 0.5201
Zn2R Zn 0.0201 0.4489 0.4722
Zn2U Zn 0.9489 1.0278 -0.0201
Zn2Q Zn 0.9799 0.9489 0.0278
Zn2C_2 Zn 0.4722 1.0201 0.4489
Zn2K Zn 0.5511 0.9722 0.4799
C1D C 0.4757(3) 0.1045(3) 0.4753(3)
C1H C 0.1045(3) 0.4753(3) 0.4757(3)
C1G C 0.5243(3) 0.6045(3) 0.0247(3)
C1U C 0.8955(3) 0.9753(3) 0.0243(3)
C1C C 0.5247(3) 0.9757(3) 0.3955(3)
C2D C 0.4658(2) 0.1470(2) 0.4611(3)
C2H C 0.1470(2) 0.4611(3) 0.4658(2)
C2G C 0.5342(2) 0.6470(2) 0.0389(3)
C2U C 0.8530(2) 0.9611(3) 0.0342(2)
C2C C 0.5389(3) 0.9658(2) 0.3530(2)
N1C N 0.6098(3) 0.8902(3) 0.1098(3)
C3D C 0.4298(2) 0.2712(3) 0.4270(3)
C3H C 0.2712(3) 0.4270(3) 0.4298(2)
C3G C 0.5702(2) 0.7712(3) 0.0730(3)
C3U C 0.7288(3) 0.9270(3) 0.0702(2)
C3C C 0.5730(3) 0.9298(2) 0.2288(3)
C4D C 0.4421(3) 0.2284(3) 0.4401(3)
C4H C 0.2284(3) 0.4401(3) 0.4421(3)
C4G C 0.5579(3) 0.7284(3) 0.0599(3)
C4U C 0.7716(3) 0.9401(3) 0.0579(3)
C4C C 0.5599(3) 0.9421(3) 0.2716(3)
C5D C 0.4106(3) 0.3418(3) 0.4443(3)
C5H C 0.3418(3) 0.4443(3) 0.4106(3)
C5G C 0.5894(3) 0.8418(3) 0.0557(3)
C5U C 0.6582(3) 0.9443(3) 0.0894(3)
C5C C 0.5557(3) 0.9106(3) 0.1582(3)
H1D H 0.407 0.3621 0.4644
H1H H 0.3621 0.4644 0.407
H1G H 0.593 0.8621 0.0356
H1U H 0.6379 0.9644 0.093
H1C H 0.5356 0.907 0.1379
C6D C 0.4049(2) 0.3519(3) 0.4023(3)
C6H C 0.3519(3) 0.4023(3) 0.4049(2)
C6G C 0.5951(2) 0.8519(3) 0.0977(3)
C6U C 0.6481(3) 0.9023(3) 0.0951(2)
C6C C 0.5977(3) 0.9049(2) 0.1481(3)
C7D C 0.4219(3) 0.3010(3) 0.4563(3)
C7H C 0.3010(3) 0.4563(3) 0.4219(3)
C7G C 0.5781(3) 0.8010(3) 0.0437(3)
C7U C 0.6990(3) 0.9563(3) 0.0781(3)
C7C C 0.5437(3) 0.9219(3) 0.1990(3)
H2D H 0.4239 0.2944 0.4843
H2H H 0.2944 0.4843 0.4239
H2G H 0.5761 0.7944 0.0157
H2U H 0.7056 0.9843 0.0761
H2C H 0.5157 0.9239 0.2056
C8D C 0.4283(3) 0.2816(3) 0.3875(3)
C8H C 0.2816(3) 0.3875(3) 0.4283(3)
C8G C 0.5717(3) 0.7816(3) 0.1125(3)
C8U C 0.7184(3) 0.8875(3) 0.0717(3)
C8C C 0.6125(3) 0.9283(3) 0.2184(3)
H3D H 0.4352 0.262 0.3676
H3H H 0.262 0.3676 0.4352
H3G H 0.5648 0.762 0.1324
H3U H 0.738 0.8676 0.0648
H3C H 0.6324 0.9352 0.238
C9D C 0.4167(3) 0.3206(3) 0.3750(3)
C9H C 0.3206(3) 0.3750(3) 0.4167(3)
C9G C 0.5833(3) 0.8206(3) 0.1250(3)
C9U C 0.6794(3) 0.8750(3) 0.0833(3)
C9C C 0.6250(3) 0.9167(3) 0.1794(3)
H4D H 0.4168 0.3264 0.3468
H4H H 0.3264 0.3468 0.4168
H4G H 0.5832 0.8264 0.1532
H4U H 0.6736 0.8468 0.0832
H4C H 0.6532 0.9168 0.1736
C10D C 0.4704(3) 0.1607(3) 0.4265(4)
C10H C 0.1607(3) 0.4265(4) 0.4704(3)
C10G C 0.5296(3) 0.6607(3) 0.0735(4)
C10U C 0.8393(3) 0.9265(4) 0.0296(3)
C10C C 0.5735(4) 0.9704(3) 0.3393(3)
H5D H 0.4817 0.1432 0.4066
H5H H 0.1432 0.4066 0.4817
H5G H 0.5183 0.6432 0.0934
H5U H 0.8568 0.9066 0.0183
H5C H 0.5934 0.9817 0.3568
C11D C 0.4556(5) 0.1749(4) 0.4876(4)
C11H C 0.1749(4) 0.4876(4) 0.4556(5)
C11G C 0.5444(5) 0.6749(4) 0.0124(4)
C11U C 0.8251(4) 0.9876(4) 0.0444(5)
C11C C 0.5124(4) 0.9556(5) 0.3251(4)
H6D H 0.4551 0.1669 0.5153
H6H H 0.1669 0.5153 0.4551
H6G H 0.5449 0.6669 -0.0153
H6U H 0.8331 1.0153 0.0449
H6C H 0.4847 0.9551 0.3331
C12D C 0.4597(4) 0.2017(4) 0.4142(3)
C12H C 0.2017(4) 0.4142(3) 0.4597(4)
C12G C 0.5403(4) 0.7017(4) 0.0858(3)
C12U C 0.7983(4) 0.9142(3) 0.0403(4)
C12C C 0.5858(3) 0.9597(4) 0.2983(4)
H7D H 0.4652 0.21 0.3871
H7H H 0.21 0.3871 0.4652
H7G H 0.5348 0.71 0.1129
H7U H 0.79 0.8871 0.0348
H7C H 0.6129 0.9652 0.29
C13D C 0.4446(5) 0.2173(4) 0.4786(4)
C13H C 0.2173(4) 0.4786(4) 0.4446(5)
C13G C 0.5554(5) 0.7173(4) 0.0214(4)
C13U C 0.7827(4) 0.9786(4) 0.0554(5)
C13C C 0.5214(4) 0.9446(5) 0.2827(4)
H8D H 0.4395 0.2361 0.4999
H8H H 0.2361 0.4999 0.4395
H8G H 0.5605 0.7361 0.0001
H8U H 0.7639 0.9999 0.0605
H8C H 0.5001 0.9395 0.2639
O3? O 0.4564(4) 0.5003(4) 0.0881(3)
O5? O 0.5029(3) 0.4523(3) 0.0847(3)
loop_
_geom_bond_atom_site_label_1
_geom_bond_atom_site_label_2
_geom_bond_site_symmetry_1
_geom_bond_site_symmetry_2
O1 Zn2 1_555 1_555
O2 C1 1_555 1_555
Zn1 O4 1_555 1_555
Zn2 O4 1_555 1_555
C1 O1 1_555 1_555
C2 C1 1_555 1_555
O4 Zn1X 1_555 1_555
N1 C6 1_555 1_555
C3 C4 1_555 1_555
C4 C12 1_555 1_555
C5 H1 1_555 1_555
C6 C5 1_555 1_555
C7 C3 1_555 1_555
H2 C7 1_555 1_555
C8 C3 1_555 1_555
H3 C8 1_555 1_555
C9 C6 1_555 1_555
H4 C9 1_555 1_555
C10 C2 1_555 1_555
H5 C10 1_555 1_555
C11 C2 1_555 1_555
H6 C11 1_555 1_555
C12 C10 1_555 1_555
H7 C12 1_555 1_555
C13 C4 1_555 1_555
H8 C13 1_555 1_555
O1D Zn2D 1_555 1_555
O1H Zn2H 1_555 1_555
O1G Zn2G 1_555 1_555
O1U Zn2U 1_555 1_555
O1C Zn2C_2 1_555 1_555
O1EA Zn2EA 1_555 1_555
O1X Zn2X 1_555 1_555
O1TA Zn2TA 1_555 1_555
O1V Zn2V 1_555 1_555
O2D Zn2C 1_555 1_555
O2H Zn2R 1_555 1_555
O2G Zn2 1_555 1_555
O2U Zn2Q 1_555 1_555
O2C Zn2K 1_555 1_555
O2TA Zn2EA 1_555 1_555
O2EA Zn2X 1_555 1_555
O2X Zn2TA 1_555 1_555
O2V Zn2G 1_555 1_555
Zn2EA O4 1_555 1_555
Zn2X O4 1_555 1_555
Zn2TA O4 1_555 1_555
Zn2G O4 1_555 1_555
Zn2V O2 1_555 1_555
C1D O1D 1_555 1_555
C1H O1H 1_555 1_555
C1G O1G 1_555 1_555
C1U O1U 1_555 1_555
C1C O1C 1_555 1_555
C2D C1D 1_555 1_555
C2H C1H 1_555 1_555
C2G C1G 1_555 1_555
C2U C1U 1_555 1_555
C2C C1C 1_555 1_555
N1C C6G 1_555 1_555
C3D C4D 1_555 1_555
C3H C4H 1_555 1_555
C3G C4G 1_555 1_555
C3U C4U 1_555 1_555
C3C C4C 1_555 1_555
C4D C12D 1_555 1_555
C4H C12H 1_555 1_555
C4G C12G 1_555 1_555
C4U C12U 1_555 1_555
C4C C12C 1_555 1_555
C5D H1D 1_555 1_555
C5H H1H 1_555 1_555
C5G H1G 1_555 1_555
C5U H1U 1_555 1_555
C5C H1C 1_555 1_555
C6D N1 1_555 1_555
C6H N1 1_555 1_555
C6G C5G 1_555 1_555
C6U N1C 1_555 1_555
C6C N1C 1_555 1_555
C7D C3D 1_555 1_555
C7H C3H 1_555 1_555
C7G C3G 1_555 1_555
C7U C3U 1_555 1_555
C7C C3C 1_555 1_555
H2D C7D 1_555 1_555
H2H C7H 1_555 1_555
H2G C7G 1_555 1_555
H2U C7U 1_555 1_555
H2C C7C 1_555 1_555
C8D C3D 1_555 1_555
C8H C3H 1_555 1_555
C8G C3G 1_555 1_555
C8U C3U 1_555 1_555
C8C C3C 1_555 1_555
H3D C8D 1_555 1_555
H3H C8H 1_555 1_555
H3G C8G 1_555 1_555
H3U C8U 1_555 1_555
H3C C8C 1_555 1_555
C9D C6D 1_555 1_555
C9H C6H 1_555 1_555
C9G C6G 1_555 1_555
C9U C6U 1_555 1_555
C9C C6C 1_555 1_555
H4D C9D 1_555 1_555
H4H C9H 1_555 1_555
H4G C9G 1_555 1_555
H4U C9U 1_555 1_555
H4C C9C 1_555 1_555
C10D C2D 1_555 1_555
C10H C2H 1_555 1_555
C10G C2G 1_555 1_555
C10U C2U 1_555 1_555
C10C C2C 1_555 1_555
H5D C10D 1_555 1_555
H5H C10H 1_555 1_555
H5G C10G 1_555 1_555
H5U C10U 1_555 1_555
H5C C10C 1_555 1_555
C11D C2D 1_555 1_555
C11H C2H 1_555 1_555
C11G C2G 1_555 1_555
C11U C2U 1_555 1_555
C11C C2C 1_555 1_555
H6D C11D 1_555 1_555
H6H C11H 1_555 1_555
H6G C11G 1_555 1_555
H6U C11U 1_555 1_555
H6C C11C 1_555 1_555
C12D C10D 1_555 1_555
C12H C10H 1_555 1_555
C12G C10G 1_555 1_555
C12U C10U 1_555 1_555
C12C C10C 1_555 1_555
H7D C12D 1_555 1_555
H7H C12H 1_555 1_555
H7G C12G 1_555 1_555
H7U C12U 1_555 1_555
H7C C12C 1_555 1_555
C13D C4D 1_555 1_555
C13H C4H 1_555 1_555
C13G C4G 1_555 1_555
C13U C4U 1_555 1_555
C13C C4C 1_555 1_555
H8D C13D 1_555 1_555
H8H C13H 1_555 1_555
H8G C13G 1_555 1_555
H8U C13U 1_555 1_555
H8C C13C 1_555 1_555
O4 Zn2V 1_555 1_555
C5 C7 1_555 1_555
C8 C9 1_555 1_555
C11 C13 1_555 1_555
O2D C1D 1_555 1_555
O2H C1H 1_555 1_555
O2G C1G 1_555 1_555
O2U C1U 1_555 1_555
O2C C1C 1_555 1_555
C5D C6D 1_555 1_555
C5D C7D 1_555 1_555
C5H C6H 1_555 1_555
C5H C7H 1_555 1_555
C5G C7G 1_555 1_555
C5U C6U 1_555 1_555
C5U C7U 1_555 1_555
C5C C6C 1_555 1_555
C5C C7C 1_555 1_555
C8D C9D 1_555 1_555
C8H C9H 1_555 1_555
C8G C9G 1_555 1_555
C8U C9U 1_555 1_555
C8C C9C 1_555 1_555
C11D C13D 1_555 1_555
C11H C13H 1_555 1_555
C11G C13G 1_555 1_555
C11U C13U 1_555 1_555
C11C C13C 1_555 1_555

#END
