
#######################################################################
#
#                 Cambridge Crystallographic Data Centre
#                                CCDC 
#
#######################################################################
#
# If this CIF has been generated from an entry in the Cambridge 
# Structural Database, then it will include bibliographic, chemical, 
# crystal, experimental, refinement or atomic coordinate data resulting 
# from the CCDC's data processing and validation procedures.
#
#######################################################################

data_LIFWEE
_chemical_formula_moiety         '(C12 H14 Cu3 N6 O9)n'
_chemical_name_systematic        
'catena-(bis(\m~3~-3,5-Dimethyl-1,2,4-triazolato)-(\m~2~-aqua)-bis(\m~2~-oxalato)-tri-copper unknown solvate)'
_symmetry_cell_setting           tetragonal
_symmetry_space_group_name_H-M   'P 42/n c m'
_symmetry_Int_Tables_number      138
_space_group_name_Hall           '-P 4ac 2ac'
loop_
_symmetry_equiv_pos_site_id
_symmetry_equiv_pos_as_xyz
1 x,y,z
2 1/2-x,1/2-y,z
3 1/2-y,x,1/2+z
4 y,1/2-x,1/2+z
5 -x,1/2+y,1/2-z
6 1/2+x,-y,1/2-z
7 1/2+y,1/2+x,-z
8 -y,-x,-z
9 -x,-y,-z
10 1/2+x,1/2+y,-z
11 1/2+y,-x,1/2-z
12 -y,1/2+x,1/2-z
13 x,1/2-y,1/2+z
14 1/2-x,y,1/2+z
15 1/2-y,1/2-x,z
16 y,x,z
_cell_length_a                   14.04550(10)
_cell_length_b                   14.04550(10)
_cell_length_c                   14.6075(2)
_cell_angle_alpha                90
_cell_angle_beta                 90
_cell_angle_gamma                90
_cell_volume                     2881.71
_exptl_crystal_colour            blue
_exptl_crystal_description       block
_cell_formula_units_Z            4
loop_
_atom_site_label
_atom_site_type_symbol
_atom_site_fract_x
_atom_site_fract_y
_atom_site_fract_z
_atom_site_U_iso_or_equiv
_atom_site_thermal_displace_type
Cu1 Cu 0.5000 0.5000 1.0000 0.0399 Uani
Cu2 Cu 0.16622(4) 0.33378(4) 0.79139(5) 0.0617 Uani
O1 O 0.1138(2) 0.5239(2) 0.60006(19) 0.0723 Uani
N1 N 0.4133(2) 0.4133(2) 0.9283(3) 0.0413 Uani
N2 N 0.2872(2) 0.3568(2) 0.8565(2) 0.0498 Uani
C1 C 0.3231(3) 0.4304(3) 0.8992(2) 0.0460 Uani
C2 C 0.2699(4) 0.5212(3) 0.9150(3) 0.0693 Uani
H1 H 0.2243 0.5302 0.8668 0.1040 Uiso
H2 H 0.3138 0.5736 0.9154 0.1040 Uiso
H3 H 0.2375 0.5181 0.9728 0.1040 Uiso
O2 O 0.1791(2) 0.4532(2) 0.72119(19) 0.0769 Uani
C3 C 0.1159(4) 0.4615(4) 0.6598(3) 0.0703 Uani
O3 O 0.2500 0.2500 0.6742(5) 0.1147 Uani
H4 H 0.224(3) 0.224(3) 0.627(3) 0.1000 Uiso
N2O N 0.3568(2) 0.2872(2) 0.8565(2) 0.0498 Uani
C1O C 0.4304(3) 0.3231(3) 0.8992(2) 0.0460 Uani
C2O C 0.5212(3) 0.2699(4) 0.9150(3) 0.0693 Uani
H1O H 0.5302 0.2243 0.8668 0.1040 Uiso
H2O H 0.5736 0.3138 0.9154 0.1040 Uiso
H3O H 0.5181 0.2375 0.9728 0.1040 Uiso
O2N O 0.0468(2) 0.3209(2) 0.72119(19) 0.0769 Uani
C3N C 0.0385(4) 0.3841(4) 0.6598(3) 0.0703 Uani
O1N O -0.0239(2) 0.3862(2) 0.60006(19) 0.0723 Uani
H4A H 0.276(3) 0.276(3) 0.627(3) 0.1000 Uiso
Cu2A Cu 0.33378(4) 0.16622(4) 0.79139(5) 0.0617 Uani
O1A O 0.3862(2) -0.0239(2) 0.60006(19) 0.0723 Uani
N1A N 0.0867(2) 0.0867(2) 0.9283(3) 0.0413 Uani
N2A N 0.2128(2) 0.1432(2) 0.8565(2) 0.0498 Uani
C1A C 0.1769(3) 0.0696(3) 0.8992(2) 0.0460 Uani
C2A C 0.2301(4) -0.0212(3) 0.9150(3) 0.0693 Uani
H1A H 0.2757 -0.0302 0.8668 0.1040 Uiso
H2A H 0.1862 -0.0736 0.9154 0.1040 Uiso
H3A H 0.2625 -0.0181 0.9728 0.1040 Uiso
O2A O 0.3209(2) 0.0468(2) 0.72119(19) 0.0769 Uani
C3A C 0.3841(4) 0.0385(4) 0.6598(3) 0.0703 Uani
N2N N 0.1432(2) 0.2128(2) 0.8565(2) 0.0498 Uani
C1N C 0.0696(3) 0.1769(3) 0.8992(2) 0.0460 Uani
C2N C -0.0212(3) 0.2301(4) 0.9150(3) 0.0693 Uani
H1N H -0.0302 0.2757 0.8668 0.1040 Uiso
H2N H -0.0736 0.1862 0.9154 0.1040 Uiso
H3N H -0.0181 0.2625 0.9728 0.1040 Uiso
O2O O 0.4532(2) 0.1791(2) 0.72119(19) 0.0769 Uani
C3O C 0.4615(4) 0.1159(4) 0.6598(3) 0.0703 Uani
O1O O 0.5239(2) 0.1138(2) 0.60006(19) 0.0723 Uani
Cu1A Cu 0.0000 0.0000 1.0000 0.0399 Uani
Cu1B Cu 0.0000 0.5000 0.5000 0.0399 Uani
Cu1C Cu 0.5000 0.0000 0.5000 0.0399 Uani
O1C O 0.5239(2) 0.3862(2) 1.10006(19) 0.0723 Uani
O1E O 0.6138(2) 0.4761(2) 0.89994(19) 0.0723 Uani
O1K O 0.4761(2) 0.6138(2) 0.89994(19) 0.0723 Uani
O1M O 0.3862(2) 0.5239(2) 1.10006(19) 0.0723 Uani
N1G N 0.5867(2) 0.5867(2) 1.0717(3) 0.0413 Uani
loop_
_atom_site_aniso_label
_atom_site_aniso_U_11
_atom_site_aniso_U_22
_atom_site_aniso_U_33
_atom_site_aniso_U_23
_atom_site_aniso_U_13
_atom_site_aniso_U_12
Cu1 0.0419(4) 0.0419(4) 0.0359(5) 0.0129(3) 0.0129(3) 0.0122(4)
Cu2 0.0736(4) 0.0736(4) 0.0378(5) 0.0158(2) -0.0158(2) 0.0117(4)
O1 0.099 0.073 0.045 0.0215 -0.0103 0.0212
N1 0.0419(15) 0.0419(15) 0.040(2) 0.0074(15) 0.0074(15) 0.014(2)
N2 0.061(2) 0.054(2) 0.0345(17) 0.0035(15) -0.0008(15) 0.0157(16)
C1 0.052(3) 0.045(2) 0.041(2) 0.0139(19) 0.0031(19) 0.0150(19)
C2 0.068(3) 0.052(3) 0.088(4) 0.007(2) -0.016(3) 0.023(2)
O2 0.088(2) 0.088(2) 0.0546(19) 0.0259(17) -0.0271(17) 0.0043(18)
C3 0.088(3) 0.080(3) 0.043(3) 0.016(2) -0.010(2) 0.021(3)
O3 0.154(5) 0.154(5) 0.036(4) 0.000 0.000 0.032(7)
N2O 0.054 0.061 0.0345 -0.0008 0.0035 0.0157
C1O 0.045 0.052 0.041 0.0031 0.0139 0.015
C2O 0.052 0.068 0.088 -0.016 0.007 0.023
O2N 0.088 0.088 0.0546 0.0271 -0.0259 0.0043
C3N 0.08 0.088 0.043 0.01 -0.016 0.021
O1N 0.073 0.099 0.045 0.0103 -0.0215 0.0212
Cu2A 0.0736 0.0736 0.0378 -0.0158 0.0158 0.0117
O1A 0.099 0.073 0.045 -0.0215 0.0103 0.0212
N1A 0.0419 0.0419 0.04 -0.0074 -0.0074 0.014
N2A 0.061 0.054 0.0345 -0.0035 0.0008 0.0157
C1A 0.052 0.045 0.041 -0.0139 -0.0031 0.015
C2A 0.068 0.052 0.088 -0.007 0.016 0.023
O2A 0.088 0.088 0.0546 -0.0259 0.0271 0.0043
C3A 0.088 0.08 0.043 -0.016 0.01 0.021
N2N 0.054 0.061 0.0345 0.0008 -0.0035 0.0157
C1N 0.045 0.052 0.041 -0.0031 -0.0139 0.015
C2N 0.052 0.068 0.088 0.016 -0.007 0.023
O2O 0.088 0.088 0.0546 -0.0271 0.0259 0.0043
C3O 0.08 0.088 0.043 -0.01 0.016 0.021
O1O 0.073 0.099 0.045 -0.0103 0.0215 0.0212
Cu1A 0.0419 0.0419 0.0359 -0.0129 -0.0129 0.0122
Cu1B 0.0419 0.0419 0.0359 0.0129 -0.0129 -0.0122
Cu1C 0.0419 0.0419 0.0359 -0.0129 0.0129 -0.0122
O1C 0.073 0.099 0.045 0.0103 0.0215 -0.0212
O1E 0.099 0.073 0.045 0.0215 0.0103 -0.0212
O1K 0.073 0.099 0.045 0.0103 0.0215 -0.0212
O1M 0.099 0.073 0.045 0.0215 0.0103 -0.0212
N1G 0.0419 0.0419 0.04 0.0074 0.0074 0.014
loop_
_geom_bond_atom_site_label_1
_geom_bond_atom_site_label_2
_geom_bond_site_symmetry_1
_geom_bond_site_symmetry_2
Cu1 N1 1_555 1_555
Cu2 N2 1_555 1_555
O1 C3 1_555 1_555
N1 C1 1_555 1_555
N2 C1 1_555 1_555
C1 C2 1_555 1_555
C2 H1 1_555 1_555
H2 C2 1_555 1_555
H3 C2 1_555 1_555
O2 Cu2 1_555 1_555
C3 O2 1_555 1_555
O3 Cu2 1_555 1_555
H4 O3 1_555 1_555
N2O N2 1_555 1_555
C1O N1 1_555 1_555
C2O C1O 1_555 1_555
H1O C2O 1_555 1_555
H2O C2O 1_555 1_555
H3O C2O 1_555 1_555
O2N Cu2 1_555 1_555
C3N C3 1_555 1_555
O1N C3N 1_555 1_555
H4A O3 1_555 1_555
Cu2A O3 1_555 1_555
O1A C3A 1_555 1_555
N1A C1A 1_555 1_555
N2A Cu2A 1_555 1_555
C1A N2A 1_555 1_555
C2A C1A 1_555 1_555
H1A C2A 1_555 1_555
H2A C2A 1_555 1_555
H3A C2A 1_555 1_555
O2A Cu2A 1_555 1_555
C3A O2A 1_555 1_555
N2N Cu2 1_555 1_555
C1N N1A 1_555 1_555
C2N C1N 1_555 1_555
H1N C2N 1_555 1_555
H2N C2N 1_555 1_555
H3N C2N 1_555 1_555
O2O Cu2A 1_555 1_555
C3O C3A 1_555 1_555
O1O C3O 1_555 1_555
Cu1A N1A 1_555 1_555
Cu1B O1 1_555 1_555
Cu1C O1A 1_555 1_555
O1C Cu1 1_555 1_555
O1E Cu1 1_555 1_555
O1K Cu1 1_555 1_555
O1M Cu1 1_555 1_555
N1G Cu1 1_555 1_555
N2O C1O 1_555 1_555
N2O Cu2A 1_555 1_555
O2N C3N 1_555 1_555
O1N Cu1B 1_555 1_555
N2A N2N 1_555 1_555
N2N C1N 1_555 1_555
O2O C3O 1_555 1_555
O1O Cu1C 1_555 1_555

#END
