
#######################################################################
#
#                 Cambridge Crystallographic Data Centre
#                                CCDC 
#
#######################################################################
#
# If this CIF has been generated from an entry in the Cambridge 
# Structural Database, then it will include bibliographic, chemical, 
# crystal, experimental, refinement or atomic coordinate data resulting 
# from the CCDC's data processing and validation procedures.
#
#######################################################################

data_ADAXIO
_chemical_formula_moiety         '(C26 H16 Co2 N2 O10)n,2n(C3 H7 N1 O1)'
_chemical_name_systematic        
"catena-(bis(\m~4~-terephthalato)-(\m~4~-4,4'-bipyridine 1,1'-dioxide)-di-cobalt(ii) N,N-dimethylformamide solvate)"
_symmetry_cell_setting           monoclinic
_symmetry_space_group_name_H-M   'C 2/c'
_symmetry_Int_Tables_number      15
_space_group_name_Hall           '-C 2yc'
loop_
_symmetry_equiv_pos_site_id
_symmetry_equiv_pos_as_xyz
1 x,y,z
2 -x,y,1/2-z
3 1/2+x,1/2+y,z
4 1/2-x,1/2+y,1/2-z
5 -x,-y,-z
6 x,-y,1/2+z
7 1/2-x,1/2-y,-z
8 1/2+x,1/2-y,1/2+z
_cell_length_a                   18.191(2)
_cell_length_b                   17.177(2)
_cell_length_c                   13.6923(17)
_cell_angle_alpha                90
_cell_angle_beta                 129.7410(10)
_cell_angle_gamma                90
_cell_volume                     3289.83
_exptl_crystal_colour            red
_exptl_crystal_description       pillar
_cell_formula_units_Z            4
loop_
_atom_site_label
_atom_site_type_symbol
_atom_site_fract_x
_atom_site_fract_y
_atom_site_fract_z
Co1 Co 0.5000 0.19734(3) 0.2500
Co2 Co 0.2500 0.2500 0.0000
C1 C 0.3421(2) 0.16623(19) 0.2506(3)
C2 C 0.3378(2) 0.10033(19) 0.3195(3)
C3 C 0.2609(3) 0.0492(2) 0.2544(4)
H1 H 0.2089 0.0587 0.1697
C4 C 0.2607(3) -0.0157(2) 0.3143(4)
H2 H 0.2089 -0.0497 0.2691
C5 C 0.3371(2) -0.0304(2) 0.4409(3)
C6 C 0.4123(3) 0.0218(2) 0.5067(3)
H3 H 0.4630 0.0137 0.5925
C7 C 0.4127(3) 0.0860(2) 0.4461(3)
H4 H 0.4644 0.1201 0.4915
C8 C 0.3416(2) -0.10346(19) 0.5062(3)
C9 C 0.4636(3) 0.3284(2) 0.0222(4)
H5 H 0.4693 0.2779 0.0032
C10 C 0.4934(3) 0.3903(2) -0.0084(5)
H6 H 0.5200 0.3811 -0.0470
C11 C 0.4845(3) 0.4664(2) 0.0173(4)
C12 C 0.4432(3) 0.4768(2) 0.0740(4)
H7 H 0.4355 0.5268 0.0924
C13 C 0.4139(3) 0.4140(2) 0.1028(4)
H8 H 0.3851 0.4218 0.1387
N1 N 0.4263(2) 0.34093(17) 0.0797(3)
O1 O 0.42156(17) 0.20048(13) 0.3103(2)
O2 O 0.26787(16) 0.18176(13) 0.1399(2)
O3 O 0.41410(17) -0.11042(13) 0.6212(2)
O4 O 0.27345(17) -0.15104(14) 0.4395(2)
O5 O 0.39984(16) 0.28121(13) 0.1134(2)
Co1D Co 0.5000 -0.19734(3) -0.2500
Co1D_2 Co 0.5000 -0.19734(3) 0.7500
Co1D_3 Co 0.5000 0.80266(3) -0.2500
Co2B Co 0.7500 -0.2500 0.0000
Co2B_2 Co 0.7500 0.7500 0.0000
Co2C Co 0.2500 -0.2500 0.5000
Co2A Co 0.7500 0.2500 0.5000
C1A C 0.6579(2) 0.16623(19) 0.2494(3)
C2A C 0.6622(2) 0.10033(19) 0.1805(3)
C3A C 0.7391(3) 0.0492(2) 0.2456(4)
H1A H 0.7911 0.0587 0.3303
C4A C 0.7393(3) -0.0157(2) 0.1857(4)
H2A H 0.7911 -0.0497 0.2309
C5A C 0.6629(2) -0.0304(2) 0.0591(3)
C6A C 0.5877(3) 0.0218(2) -0.0067(3)
H3A H 0.5370 0.0137 -0.0925
C7A C 0.5873(3) 0.0860(2) 0.0539(3)
H4A H 0.5356 0.1201 0.0085
C8A C 0.6584(2) -0.10346(19) -0.0062(3)
C9D C 0.5364(3) 0.6716(2) -0.0222(4)
H5D H 0.5307 0.7221 -0.0032
C10D C 0.5066(3) 0.6097(2) 0.0084(5)
H6D H 0.4800 0.6189 0.0470
C11D C 0.5155(3) 0.5336(2) -0.0173(4)
C12D C 0.5568(3) 0.5232(2) -0.0740(4)
H7D H 0.5645 0.4732 -0.0924
C13D C 0.5861(3) 0.5860(2) -0.1028(4)
H8D H 0.6149 0.5782 -0.1387
N1D N 0.5737(2) 0.65907(17) -0.0797(3)
O1A O 0.57844(17) 0.20048(13) 0.1897(2)
O2A O 0.73213(16) 0.18176(13) 0.3601(2)
O2F O 0.23213(16) 0.31824(13) -0.1399(2)
O3A O 0.58590(17) -0.11042(13) -0.1212(2)
O3D O 0.58590(17) 0.11042(13) 0.3788(2)
O3E O 0.41410(17) 0.11042(13) 0.1212(2)
O4A O 0.72655(17) -0.15104(14) 0.0605(2)
O4C O 0.22655(17) 0.34896(14) 0.0605(2)
O4E O 0.27345(17) 0.15104(14) -0.0605(2)
O5D O 0.60016(16) 0.71879(13) -0.1134(2)
O5F O 0.10016(16) 0.21879(13) -0.1134(2)
O5A O 0.60016(16) 0.28121(13) 0.3866(2)
C15 C 0.3761(9) -0.1291(10) 0.209(2)
C17 C 0.2484(10) -0.2181(6) 0.1649(13)
C18 C 0.2270(8) -0.1309(6) 0.0052(10)
N2 N 0.2810(4) -0.1679(4) 0.1256(6)
O6 O 0.1381(4) -0.1507(4) -0.0746(7)
C14? C 0.3877(9) -0.1627(14) 0.209(5)
C16? C 0.345(3) -0.2190(19) 0.259(3)
C19? C 0.192(3) -0.208(2) 0.072(4)
loop_
_geom_bond_atom_site_label_1
_geom_bond_atom_site_label_2
_geom_bond_site_symmetry_1
_geom_bond_site_symmetry_2
Co1 O1 1_555 1_555
Co2 O2 1_555 1_555
C1 C2 1_555 1_555
C2 C3 1_555 1_555
C3 H1 1_555 1_555
C4 C3 1_555 1_555
H2 C4 1_555 1_555
C5 C4 1_555 1_555
C6 C5 1_555 1_555
H3 C6 1_555 1_555
C7 C2 1_555 1_555
H4 C7 1_555 1_555
C8 C5 1_555 1_555
C9 H5 1_555 1_555
C10 C9 1_555 1_555
H6 C10 1_555 1_555
C11 C10 1_555 1_555
C12 C11 1_555 1_555
H7 C12 1_555 1_555
C13 C12 1_555 1_555
H8 C13 1_555 1_555
C15 N2 1_555 1_555
C17 N2 1_555 1_555
C18 N2 1_555 1_555
N1 C9 1_555 1_555
O1 C1 1_555 1_555
O2 C1 1_555 1_555
O3 C8 1_555 1_555
O4 C8 1_555 1_555
O5 Co1 1_555 1_555
O6 C18 1_555 1_555
Co1D O3A 1_555 1_555
Co1D_2 O3 1_555 1_555
Co1D_3 O5D 1_555 1_555
Co2B O4A 1_555 1_555
Co2B_2 O5D 1_555 1_555
Co2C O4 1_555 1_555
Co2A O2A 1_555 1_555
C1A C2A 1_555 1_555
C2A C3A 1_555 1_555
C3A H1A 1_555 1_555
C4A C3A 1_555 1_555
H2A C4A 1_555 1_555
C5A C4A 1_555 1_555
C6A C5A 1_555 1_555
H3A C6A 1_555 1_555
C7A C2A 1_555 1_555
H4A C7A 1_555 1_555
C8A C5A 1_555 1_555
C9D H5D 1_555 1_555
C10D C9D 1_555 1_555
H6D C10D 1_555 1_555
C11D C11 1_555 1_555
C12D C11D 1_555 1_555
H7D C12D 1_555 1_555
C13D C12D 1_555 1_555
H8D C13D 1_555 1_555
N1D C9D 1_555 1_555
O1A Co1 1_555 1_555
O2A C1A 1_555 1_555
O2F Co2 1_555 1_555
O3A C8A 1_555 1_555
O3D Co1 1_555 1_555
O3E Co1 1_555 1_555
O4A C8A 1_555 1_555
O4C Co2 1_555 1_555
O4E Co2 1_555 1_555
O5D N1D 1_555 1_555
O5F Co2 1_555 1_555
O5A Co1 1_555 1_555
Co2 O5 1_555 1_555
C6 C7 1_555 1_555
C13 N1 1_555 1_555
N1 O5 1_555 1_555
Co2A O5A 1_555 1_555
C1A O1A 1_555 1_555
C6A C7A 1_555 1_555
C10D C11D 1_555 1_555
C13D N1D 1_555 1_555

#END
