
#######################################################################
#
#                 Cambridge Crystallographic Data Centre
#                                CCDC 
#
#######################################################################
#
# If this CIF has been generated from an entry in the Cambridge 
# Structural Database, then it will include bibliographic, chemical, 
# crystal, experimental, refinement or atomic coordinate data resulting 
# from the CCDC's data processing and validation procedures.
#
#######################################################################

data_ADAXEK
_chemical_formula_moiety         
'(C26 H16 Co2 N2 O10)n,n(C8 H6 O4),2n(C1 H4 O1)'
_chemical_name_systematic        
"catena-(bis(\m~4~-terephthalato)-(\m~4~-4,4'-bipyridine 1,1'-dioxide)-di-cobalt(ii) terephthalic acid methanol solvate)"
_symmetry_cell_setting           monoclinic
_symmetry_space_group_name_H-M   'C 2/m'
_symmetry_Int_Tables_number      12
_space_group_name_Hall           '-C 2y'
loop_
_symmetry_equiv_pos_site_id
_symmetry_equiv_pos_as_xyz
1 x,y,z
2 -x,y,-z
3 1/2+x,1/2+y,z
4 1/2-x,1/2+y,-z
5 -x,-y,-z
6 x,-y,z
7 1/2-x,1/2-y,-z
8 1/2+x,1/2-y,z
_cell_length_a                   7.1668(6)
_cell_length_b                   23.6839(19)
_cell_length_c                   9.8524(8)
_cell_angle_alpha                90
_cell_angle_beta                 94.4420(10)
_cell_angle_gamma                90
_cell_volume                     1667.3
_exptl_crystal_colour            red
_exptl_crystal_description       pillar
_cell_formula_units_Z            2
loop_
_atom_site_label
_atom_site_type_symbol
_atom_site_fract_x
_atom_site_fract_y
_atom_site_fract_z
Co1 Co 0.2500 0.7500 0.5000
O1 O 0.1271(4) 0.80964(12) 0.3664(3)
O2 O -0.1814(4) 0.79359(12) 0.3300(3)
O3 O 0.0000 0.70414(15) 0.5000
N1 N 0.0000 0.64770(19) 0.5000
C1 C -0.0120(5) 0.81427(17) 0.1415(4)
C2 C 0.1602(6) 0.8157(3) 0.0858(4)
H1 H 0.2693 0.8171 0.1432
C3 C -0.1721(6) 0.8151(3) 0.0529(4)
H2 H -0.2891 0.8152 0.0877
C4 C -0.0225(5) 0.80554(16) 0.2917(4)
C5 C 0.0000 0.5314(2) 0.5000
C6 C 0.0248(8) 0.5623(2) 0.3831(5)
H3 H 0.0414 0.5433 0.3023
C7 C 0.0254(7) 0.62019(18) 0.3840(4)
H4 H 0.0433 0.6402 0.3048
Co1A Co -0.2500 0.7500 -0.5000
Co1A_2 Co -0.2500 0.7500 0.5000
Co1_2 Co 0.2500 0.7500 -0.5000
Co1B Co -0.2500 0.2500 0.5000
Co1C Co 0.2500 0.2500 0.5000
Co1A_3 Co 0.7500 0.7500 0.5000
Co1A_4 Co 0.7500 0.7500 1.5000
Co1_3 Co 0.2500 0.7500 1.5000
O1A O -0.1271(4) 0.80964(12) -0.3664(3)
O1F O 0.3729(4) 0.69036(12) 0.6336(3)
O1G O 0.6271(4) 0.69036(12) 1.3664(3)
O1G_2 O -0.3729(4) 0.69036(12) -0.6336(3)
O2A O 0.1814(4) 0.79359(12) -0.3300(3)
O2F O 0.6814(4) 0.70641(12) 0.6700(3)
O2G O 0.3186(4) 0.70641(12) 1.3300(3)
O2A_2 O 0.1814(4) 0.79359(12) 0.6700(3)
O2G_2 O 0.3186(4) 0.70641(12) 0.3300(3)
O2_2 O -0.1814(4) 0.79359(12) -0.6700(3)
O2F_2 O -0.3186(4) 0.70641(12) -0.3300(3)
O3D O 0.0000 0.29586(15) 0.5000
O3F O 0.5000 0.79586(15) 0.5000
O3_2 O 0.0000 0.70414(15) -0.5000
O3F_2 O -0.5000 0.79586(15) -0.5000
N1D N 0.0000 0.35230(19) 0.5000
C1A C 0.0120(5) 0.81427(17) -0.1415(4)
C1F C 0.5120(5) 0.68573(17) 0.8585(4)
C1G C 0.4880(5) 0.68573(17) 1.1415(4)
C2A C -0.1602(6) 0.8157(3) -0.0858(4)
C2F C 0.3398(6) 0.6843(3) 0.9142(4)
C2G C 0.6602(6) 0.6843(3) 1.0858(4)
H1A H -0.2693 0.8171 -0.1432
H1F H 0.2307 0.6829 0.8568
H1G H 0.7693 0.6829 1.1432
C3A C 0.1721(6) 0.8151(3) -0.0529(4)
C3F C 0.6721(6) 0.6849(3) 0.9471(4)
C3G C 0.3279(6) 0.6849(3) 1.0529(4)
H2A H 0.2891 0.8152 -0.0877
H2F H 0.7891 0.6848 0.9123
H2G H 0.2109 0.6848 1.0877
C4A C 0.0225(5) 0.80554(16) -0.2917(4)
C4F C 0.5225(5) 0.69446(16) 0.7083(4)
C4G C 0.4775(5) 0.69446(16) 1.2917(4)
C5D C 0.0000 0.4686(2) 0.5000
C6D C -0.0248(8) 0.4377(2) 0.6169(5)
C6E C 0.0248(8) 0.4377(2) 0.3831(5)
C6A C -0.0248(8) 0.5623(2) 0.6169(5)
H3D H -0.0414 0.4567 0.6977
H3E H 0.0414 0.4567 0.3023
H3A H -0.0414 0.5433 0.6977
C7D C -0.0254(7) 0.37981(18) 0.6160(4)
C7E C 0.0254(7) 0.37981(18) 0.3840(4)
C7A C -0.0254(7) 0.62019(18) 0.6160(4)
H4E H 0.0433 0.3598 0.3048
H4D H -0.0433 0.3598 0.6952
H4A H -0.0433 0.6402 0.6952
O4 O 0.644(7) 0.5487(14) -0.815(5)
C8 C 0.554(2) 0.5000 -0.6349(14)
C9 C 0.5249(14) 0.5509(4) -0.5605(9)
H5 H 0.5430 0.5854 -0.6027
C10 C 0.615(2) 0.5000 -0.7570(14)
O4E O 0.644(7) 0.4513(14) -0.815(5)
O4A O 0.356(7) 0.5487(14) -0.185(5)
O4D O 0.356(7) 0.4513(14) -0.185(5)
C8A C 0.446(2) 0.5000 -0.3651(14)
C9A C 0.4751(14) 0.5509(4) -0.4395(9)
C9D C 0.4751(14) 0.4491(4) -0.4395(9)
C9E C 0.5249(14) 0.4491(4) -0.5605(9)
H5E H 0.5430 0.4146 -0.6027
H5D H 0.4570 0.4146 -0.3973
H5A H 0.4570 0.5854 -0.3973
C10A C 0.385(2) 0.5000 -0.2430(14)
O5 O 0.278(4) 0.5000 0.002(3)
C11 C 0.206(3) 0.5000 0.1159(19)
H6? H 0.2274 0.5359 0.1597
H7? H 0.2617 0.4707 0.1727
H8? H 0.0735 0.4935 0.1014
H9? H 0.254(11) 0.449(4) -0.062(8)
loop_
_geom_bond_atom_site_label_1
_geom_bond_atom_site_label_2
_geom_bond_site_symmetry_1
_geom_bond_site_symmetry_2
Co1 O1 1_555 1_555
O1 C4 1_555 1_555
O2 C4 1_555 1_555
O3 Co1 1_555 1_555
N1 O3 1_555 1_555
C1 C2 1_555 1_555
C2 H1 1_555 1_555
C3 C1 1_555 1_555
H2 C3 1_555 1_555
C4 C1 1_555 1_555
C5 C6 1_555 1_555
C6 H3 1_555 1_555
C7 N1 1_555 1_555
H4 C7 1_555 1_555
O4 C10 1_555 1_555
C8 C9 1_555 1_555
C9 H5 1_555 1_555
C10 C8 1_555 1_555
O5 C11 1_555 1_555
Co1A O1A 1_555 1_555
Co1A_2 O2 1_555 1_555
Co1_2 O2A 1_555 1_555
Co1B O3D 1_555 1_555
Co1C O3D 1_555 1_555
Co1A_3 O2F 1_555 1_555
Co1A_4 O1G 1_555 1_555
Co1_3 O2G 1_555 1_555
O1A C4A 1_555 1_555
O1F Co1 1_555 1_555
O1G C4G 1_555 1_555
O1G_2 Co1A 1_555 1_555
O2A C4A 1_555 1_555
O2F C4F 1_555 1_555
O2G C4G 1_555 1_555
O2A_2 Co1 1_555 1_555
O2G_2 Co1 1_555 1_555
O2_2 Co1A 1_555 1_555
O2F_2 Co1A 1_555 1_555
O3D N1D 1_555 1_555
O3F Co1 1_555 1_555
O3_2 Co1A 1_555 1_555
O3F_2 Co1A 1_555 1_555
N1D C7D 1_555 1_555
C1A C2A 1_555 1_555
C1F C2F 1_555 1_555
C1G C2G 1_555 1_555
C2A C3 1_555 1_555
C2F H1F 1_555 1_555
C2G H1G 1_555 1_555
H1A C2A 1_555 1_555
C3A C2 1_555 1_555
C3F C1F 1_555 1_555
C3G C1G 1_555 1_555
H2A C3A 1_555 1_555
H2F C3F 1_555 1_555
H2G C3G 1_555 1_555
C4A C1A 1_555 1_555
C4F O1F 1_555 1_555
C4G C1G 1_555 1_555
C5D C5 1_555 1_555
C6D C5D 1_555 1_555
C6E C5D 1_555 1_555
C6A C5 1_555 1_555
H3D C6D 1_555 1_555
H3E C6E 1_555 1_555
H3A C6A 1_555 1_555
C7D C6D 1_555 1_555
C7E N1D 1_555 1_555
C7A N1 1_555 1_555
H4E C7E 1_555 1_555
H4D C7D 1_555 1_555
H4A C7A 1_555 1_555
O4E C10 1_555 1_555
O4A C10A 1_555 1_555
O4D C10A 1_555 1_555
C8A C9A 1_555 1_555
C9A C9 1_555 1_555
C9D C8A 1_555 1_555
C9E C8 1_555 1_555
H5E C9E 1_555 1_555
H5D C9D 1_555 1_555
H5A C9A 1_555 1_555
C10A C8A 1_555 1_555
O3 Co1A_2 1_555 1_555
C6 C7 1_555 1_555
Co1_2 O3_2 1_555 1_555
Co1A_3 O3F 1_555 1_555
C1A C3A 1_555 1_555
C1F C4F 1_555 1_555
C2F C3G 1_555 1_555
C2G C3F 1_555 1_555
C6E C7E 1_555 1_555
C6A C7A 1_555 1_555
C9D C9E 1_555 1_555

#END
