
#######################################################################
#
#                 Cambridge Crystallographic Data Centre
#                                CCDC 
#
#######################################################################
#
# If this CIF has been generated from an entry in the Cambridge 
# Structural Database, then it will include bibliographic, chemical, 
# crystal, experimental, refinement or atomic coordinate data resulting 
# from the CCDC's data processing and validation procedures.
#
#######################################################################

data_VEZXOP
_chemical_formula_moiety         
'(C32 H15 N5 O10 Zn1)n,1.5n(C3 H7 N1 O1),1.5n(C1 H4 O1)'
_chemical_name_systematic        
'catena-((\m~3~-5-nitroisophthalato)-(\m~2~-2,7-bis(pyridin-4-yl)benzo[lmn][3,8]phenanthroline-1,3,6,8(2H,7H)-tetrone)-zinc(ii) N,N-dimethylformamide methanol solvate)'
_symmetry_cell_setting           monoclinic
_symmetry_space_group_name_H-M   'C 2/c'
_symmetry_Int_Tables_number      15
_space_group_name_Hall           '-C 2yc'
loop_
_symmetry_equiv_pos_site_id
_symmetry_equiv_pos_as_xyz
1 x,y,z
2 -x,y,1/2-z
3 1/2+x,1/2+y,z
4 1/2-x,1/2+y,1/2-z
5 -x,-y,-z
6 x,-y,1/2+z
7 1/2-x,1/2-y,-z
8 1/2+x,1/2-y,1/2+z
_cell_length_a                   31.110(9)
_cell_length_b                   10.192(3)
_cell_length_c                   22.095(6)
_cell_angle_alpha                90
_cell_angle_beta                 93.938(4)
_cell_angle_gamma                90
_cell_volume                     6989.19
_exptl_crystal_colour            colorless
_exptl_crystal_description       prism
_cell_formula_units_Z            8
loop_
_atom_site_label
_atom_site_type_symbol
_atom_site_fract_x
_atom_site_fract_y
_atom_site_fract_z
Zn1 Zn 0.537846(10) 0.33208(3) 0.042284(15)
O1 O 0.57859(8) 0.2033(3) 0.10801(12)
O2 O 0.53563(8) 0.1216(3) 0.03402(11)
O3 O 0.50281(7) -0.3620(3) 0.03397(10)
O4 O 0.55576(7) -0.4890(2) 0.07486(10)
O5 O 0.64347(17) -0.2987(4) 0.2462(2)
O6 O 0.64382(16) -0.0981(4) 0.26117(18)
O7 O 0.40941(8) 0.4230(3) 0.27733(11)
O8 O 0.35095(11) 0.1319(4) 0.13994(15)
O9 O 0.22626(9) 0.3585(4) 0.44636(14)
O10 O 0.18182(8) 0.0118(3) 0.32914(11)
N1 N 0.63261(13) -0.1916(4) 0.23127(17)
N2 N 0.48566(10) 0.3191(3) 0.10216(14)
N3 N 0.38087(9) 0.2715(3) 0.21040(13)
N4 N 0.20154(9) 0.1951(3) 0.38355(12)
N5 N 0.09186(8) 0.1679(3) 0.48433(12)
C1 C 0.56104(11) 0.1084(3) 0.08020(16)
C2 C 0.54945(10) -0.1369(3) 0.07556(14)
C3 C 0.56944(11) -0.0290(3) 0.10400(15)
C4 C 0.55784(9) -0.2628(3) 0.09713(14)
C5 C 0.58585(10) -0.2822(3) 0.14837(15)
C6 C 0.60396(12) -0.1727(4) 0.17665(16)
C7 C 0.59647(12) -0.0461(4) 0.15556(16)
C8 C 0.53687(9) -0.3803(3) 0.06553(13)
C9 C 0.45115(14) 0.3856(5) 0.0943(3)
C10 C 0.4869(3) 0.2421(10) 0.1497(4)
C11 C 0.41599(14) 0.3752(6) 0.1291(3)
C12 C 0.4531(3) 0.2243(10) 0.1854(4)
C13 C 0.34848(13) 0.1879(4) 0.18786(19)
C14 C 0.38035(10) 0.3480(4) 0.26365(16)
C15 C 0.31125(11) 0.1699(3) 0.22595(17)
C16 C 0.34269(10) 0.3293(3) 0.29986(15)
C17 C 0.27883(12) 0.0846(4) 0.20744(18)
C18 C 0.30958(9) 0.2403(3) 0.28028(15)
C19 C 0.33968(10) 0.4003(4) 0.35269(15)
C20 C 0.24483(11) 0.0620(4) 0.24415(16)
C21 C 0.27374(9) 0.2232(3) 0.31542(14)
C22 C 0.30301(10) 0.3879(4) 0.38601(15)
C23 C 0.24219(10) 0.1299(4) 0.29758(15)
C24 C 0.27093(10) 0.3009(4) 0.36826(14)
C25 C 0.20603(10) 0.1037(4) 0.33638(14)
C26 C 0.23207(11) 0.2908(4) 0.40323(15)
C27 C 0.16378(10) 0.1843(4) 0.41752(15)
C28 C 0.16039(10) 0.0865(4) 0.45898(15)
C29 C 0.13106(11) 0.2752(4) 0.40867(17)
C30 C 0.12354(10) 0.0820(4) 0.49151(14)
C31 C 0.09537(11) 0.2629(4) 0.44305(17)
C32 C 0.41708(11) 0.2896(4) 0.17408(16)
H1 H 0.5301 -0.1243 0.0415
H2 H 0.5922 -0.3669 0.1632
H3 H 0.6095 0.0263 0.1759
H4 H 0.4494 0.4467 0.0624
H5 H 0.5126 0.1962 0.1600
H6 H 0.3916 0.4285 0.1209
H7 H 0.4556 0.1651 0.2180
H8 H 0.2795 0.0413 0.1699
H9 H 0.3622 0.4570 0.3663
H10 H 0.2236 -0.0001 0.2323
H11 H 0.3004 0.4397 0.4208
H12 H 0.1824 0.0237 0.4655
H13 H 0.1328 0.3434 0.3803
H14 H 0.1211 0.0143 0.5200
H15 H 0.0728 0.3239 0.4370
Zn1_2 Zn 0.537846(10) -0.66792(3) 0.042284(15)
Zn1D Zn 0.462154(10) -0.33208(3) -0.042284(15)
Zn1G Zn 0.037846(10) 0.16792(3) 0.542284(15)
O3D O 0.49719(7) 0.3620(3) -0.03397(10)
O4_2 O 0.55576(7) 0.5110(2) 0.07486(10)
N5G N 0.59186(8) 0.3321(3) -0.01567(12)
loop_
_geom_bond_atom_site_label_1
_geom_bond_atom_site_label_2
_geom_bond_site_symmetry_1
_geom_bond_site_symmetry_2
Zn1 O1 1_555 1_555
O1 C1 1_555 1_555
O2 Zn1 1_555 1_555
O3 C8 1_555 1_555
O4 C8 1_555 1_555
O5 N1 1_555 1_555
O6 N1 1_555 1_555
O7 C14 1_555 1_555
O8 C13 1_555 1_555
O9 C26 1_555 1_555
O10 C25 1_555 1_555
N1 C6 1_555 1_555
N2 Zn1 1_555 1_555
N3 C13 1_555 1_555
N4 C25 1_555 1_555
N5 C30 1_555 1_555
C1 O2 1_555 1_555
C2 C3 1_555 1_555
C3 C1 1_555 1_555
C4 C2 1_555 1_555
C5 C4 1_555 1_555
C6 C5 1_555 1_555
C7 C3 1_555 1_555
C8 C4 1_555 1_555
C9 N2 1_555 1_555
C10 N2 1_555 1_555
C11 C9 1_555 1_555
C12 C10 1_555 1_555
C13 C15 1_555 1_555
C14 N3 1_555 1_555
C15 C17 1_555 1_555
C16 C14 1_555 1_555
C17 C20 1_555 1_555
C18 C15 1_555 1_555
C19 C16 1_555 1_555
C20 C23 1_555 1_555
C21 C18 1_555 1_555
C22 C19 1_555 1_555
C23 C21 1_555 1_555
C24 C21 1_555 1_555
C25 C23 1_555 1_555
C26 N4 1_555 1_555
C27 N4 1_555 1_555
C28 C27 1_555 1_555
C29 C27 1_555 1_555
C30 C28 1_555 1_555
C31 N5 1_555 1_555
C32 N3 1_555 1_555
H1 C2 1_555 1_555
H2 C5 1_555 1_555
H3 C7 1_555 1_555
H4 C9 1_555 1_555
H5 C10 1_555 1_555
H6 C11 1_555 1_555
H7 C12 1_555 1_555
H8 C17 1_555 1_555
H9 C19 1_555 1_555
H10 C20 1_555 1_555
H11 C22 1_555 1_555
H12 C28 1_555 1_555
H13 C29 1_555 1_555
H14 C30 1_555 1_555
H15 C31 1_555 1_555
Zn1_2 O4 1_555 1_555
Zn1D O3 1_555 1_555
Zn1G N5 1_555 1_555
O3D Zn1 1_555 1_555
O4_2 Zn1 1_555 1_555
N5G Zn1 1_555 1_555
C6 C7 1_555 1_555
C11 C32 1_555 1_555
C12 C32 1_555 1_555
C16 C18 1_555 1_555
C22 C24 1_555 1_555
C24 C26 1_555 1_555
C29 C31 1_555 1_555

#END
