
#######################################################################
#
#                 Cambridge Crystallographic Data Centre
#                                CCDC 
#
#######################################################################
#
# If this CIF has been generated from an entry in the Cambridge 
# Structural Database, then it will include bibliographic, chemical, 
# crystal, experimental, refinement or atomic coordinate data resulting 
# from the CCDC's data processing and validation procedures.
#
#######################################################################

data_KOZSOJ
_chemical_formula_moiety         '(C44 H30 Co1 N6)n,0.11n(I3)'
_chemical_name_systematic        
'catena-[(\m~3~-5,15-bis(4-methylphenyl)-10,20-di(pyridin-4-yl)porphyrinato)-cobalt triiodide]'
_symmetry_cell_setting           rhombohedral
_symmetry_space_group_name_H-M   'R -3'
_symmetry_Int_Tables_number      148
_space_group_name_Hall           '-R 3'
loop_
_symmetry_equiv_pos_site_id
_symmetry_equiv_pos_as_xyz
1 x,y,z
2 -y,x-y,z
3 -x+y,-x,z
4 2/3+x,1/3+y,1/3+z
5 2/3-y,1/3+x-y,1/3+z
6 2/3-x+y,1/3-x,1/3+z
7 1/3+x,2/3+y,2/3+z
8 1/3-y,2/3+x-y,2/3+z
9 1/3-x+y,2/3-x,2/3+z
10 -x,-y,-z
11 y,-x+y,-z
12 x-y,x,-z
13 1/3-x,2/3-y,2/3-z
14 1/3+y,2/3-x+y,2/3-z
15 1/3+x-y,2/3+x,2/3-z
16 2/3-x,1/3-y,1/3-z
17 2/3+y,1/3-x+y,1/3-z
18 2/3+x-y,1/3+x,1/3-z
_cell_length_a                   32.425(5)
_cell_length_b                   32.425(5)
_cell_length_c                   9.3400(19)
_cell_angle_alpha                90
_cell_angle_beta                 90
_cell_angle_gamma                120
_cell_volume                     8504.28
_exptl_crystal_description       needle
_cell_formula_units_Z            9
loop_
_atom_site_label
_atom_site_type_symbol
_atom_site_fract_x
_atom_site_fract_y
_atom_site_fract_z
I1 I 0.6667 0.3333 0.6614(2)
I2 I 0.6667 0.3333 0.3333
I1L I 0.6666 0.3334 0.0053(2)
I1_2 I 0.6667 0.3333 -0.3386(2)
I2_2 I 0.6667 0.3333 -0.6667
Co1 Co 0.5000 0.0000 0.0000
N1 N 0.53513(14) 0.00209(15) 0.1783(4)
N2 N 0.49889(14) 0.05760(14) 0.0695(4)
N3 N 0.37640(16) 0.13728(22) -0.2417(5)
C1 C 0.55621(18) -0.02479(19) 0.2043(6)
C2 C 0.5843(2) -0.0087(2) 0.3337(6)
H1 H 0.6017 -0.0220 0.3760
C3 C 0.5813(2) 0.0283(2) 0.3825(6)
H2 H 0.5967 0.0468 0.4650
C4 C 0.55063(19) 0.03496(19) 0.2874(6)
C5 C 0.54196(18) 0.07351(19) 0.2979(6)
C6 C 0.51674(18) 0.08223(18) 0.1960(6)
C7 C 0.50457(19) 0.1194(2) 0.2091(6)
H3 H 0.5131 0.1417 0.2851
C8 C 0.47875(19) 0.1162(2) 0.0919(6)
H4 H 0.4657 0.1360 0.0700
C9 C 0.47461(18) 0.07770(19) 0.0066(5)
C10 C 0.44812(18) 0.06209(18) -0.1206(6)
C11 C 0.42338(19) 0.08813(19) -0.1647(6)
C12 C 0.4396(2) 0.1206(2) -0.2735(6)
H5 H 0.4673 0.1269 -0.3255
C13 C 0.4154(2) 0.14408(19) -0.3069(7)
H6 H 0.4276 0.1668 -0.3823
C14 C 0.3607(2) 0.1056(3) -0.1342(6)
H7 H 0.3330 0.1002 -0.0836
C15 C 0.38255(19) 0.0804(2) -0.0939(6)
H8 H 0.3698 0.0579 -0.0180
C16 C 0.55982(18) 0.10466(19) 0.4278(6)
C17 C 0.54303(19) 0.0874(2) 0.5629(6)
H9 H 0.5197 0.0548 0.5741
C18 C 0.5593(2) 0.1165(2) 0.6835(6)
H10 H 0.5481 0.1029 0.7754
C19 C 0.5906(2) 0.1637(2) 0.6729(7)
C20 C 0.6078(2) 0.1812(2) 0.5367(7)
H11 H 0.6306 0.2140 0.5262
C21 C 0.5929(2) 0.1525(2) 0.4152(7)
H12 H 0.6055 0.1658 0.3240
C22 C 0.6088(2) 0.1948(2) 0.8056(8)
H13 H 0.5827 0.1848 0.8747
H14 H 0.6208 0.2281 0.7790
H15 H 0.6346 0.1916 0.8488
N1I N 0.46487(14) -0.00209(15) -0.1783(4)
N2I N 0.50111(14) -0.05760(14) -0.0695(4)
C1I C 0.44379(18) 0.02479(19) -0.2043(6)
C2I C 0.4157(2) 0.0087(2) -0.3337(6)
H1I H 0.3983 0.0220 -0.3760
C3I C 0.4187(2) -0.0283(2) -0.3825(6)
H2I H 0.4033 -0.0468 -0.4650
C4I C 0.44937(19) -0.03496(19) -0.2874(6)
C5I C 0.45804(18) -0.07351(19) -0.2979(6)
C6I C 0.48326(18) -0.08223(18) -0.1960(6)
C7I C 0.49543(19) -0.1194(2) -0.2091(6)
H3I H 0.4869 -0.1417 -0.2851
C8I C 0.52125(19) -0.1162(2) -0.0919(6)
H4I H 0.5343 -0.1360 -0.0700
C9I C 0.52539(18) -0.07770(19) -0.0066(5)
C10I C 0.55188(18) -0.06209(18) 0.1206(6)
C11I C 0.57662(19) -0.08813(19) 0.1647(6)
C12I C 0.5604(2) -0.1206(2) 0.2735(6)
H5I H 0.5327 -0.1269 0.3255
C13I C 0.5846(2) -0.14408(19) 0.3069(7)
H6I H 0.5724 -0.1668 0.3823
C15I C 0.61745(19) -0.0804(2) 0.0939(6)
H8I H 0.6302 -0.0579 0.0180
C16I C 0.44018(18) -0.10466(19) -0.4278(6)
C17I C 0.45697(19) -0.0874(2) -0.5629(6)
H9I H 0.4803 -0.0548 -0.5741
C18I C 0.4407(2) -0.1165(2) -0.6835(6)
H10I H 0.4519 -0.1029 -0.7754
C19I C 0.4094(2) -0.1637(2) -0.6729(7)
C20I C 0.3922(2) -0.1812(2) -0.5367(7)
H11I H 0.3694 -0.2140 -0.5262
C21I C 0.4071(2) -0.1525(2) -0.4152(7)
H12I H 0.3945 -0.1658 -0.3240
C22I C 0.3912(2) -0.1948(2) -0.8056(8)
H13I H 0.4173 -0.1848 -0.8747
H14I H 0.3792 -0.2281 -0.7790
H15I H 0.3654 -0.1916 -0.8488
N3I N 0.62360(16) -0.13728(22) 0.2417(5)
C14I C 0.6393(2) -0.1056(3) 0.1342(6)
H7I H 0.6670 -0.1002 0.0836
Co1D Co 0.6667 -0.1667 0.3333
Co1G Co 0.3333 0.1667 -0.3333
N3E N 0.42755(27) -0.04307(16) 0.0916(5)
N3N N 0.57245(27) 0.04307(16) -0.0916(5)
loop_
_geom_bond_atom_site_label_1
_geom_bond_atom_site_label_2
_geom_bond_site_symmetry_1
_geom_bond_site_symmetry_2
I1 I2 1_555 1_555
I2 I1L 1_555 1_555
Co1 N1 1_555 1_555
N1 C1 1_555 1_555
N2 Co1 1_555 1_555
N3 C13 1_555 1_555
C1 C2 1_555 1_555
C2 H1 1_555 1_555
C3 C2 1_555 1_555
H2 C3 1_555 1_555
C4 N1 1_555 1_555
C5 C4 1_555 1_555
C6 N2 1_555 1_555
C7 C6 1_555 1_555
H3 C7 1_555 1_555
C8 C7 1_555 1_555
H4 C8 1_555 1_555
C9 N2 1_555 1_555
C10 C9 1_555 1_555
C11 C10 1_555 1_555
C12 C11 1_555 1_555
H5 C12 1_555 1_555
C13 C12 1_555 1_555
H6 C13 1_555 1_555
C14 N3 1_555 1_555
H7 C14 1_555 1_555
C15 C11 1_555 1_555
H8 C15 1_555 1_555
C16 C5 1_555 1_555
C17 C16 1_555 1_555
H9 C17 1_555 1_555
C18 C17 1_555 1_555
H10 C18 1_555 1_555
C19 C18 1_555 1_555
C20 C19 1_555 1_555
H11 C20 1_555 1_555
C21 C16 1_555 1_555
H12 C21 1_555 1_555
C22 C19 1_555 1_555
H13 C22 1_555 1_555
H14 C22 1_555 1_555
H15 C22 1_555 1_555
I1L I1_2 1_555 1_555
I1_2 I2_2 1_555 1_555
N1I Co1 1_555 1_555
N2I Co1 1_555 1_555
C1I C10 1_555 1_555
C2I C1I 1_555 1_555
H1I C2I 1_555 1_555
C3I C2I 1_555 1_555
H2I C3I 1_555 1_555
C4I N1I 1_555 1_555
C5I C4I 1_555 1_555
C6I N2I 1_555 1_555
C7I C6I 1_555 1_555
H3I C7I 1_555 1_555
C8I C7I 1_555 1_555
H4I C8I 1_555 1_555
C9I N2I 1_555 1_555
C10I C1 1_555 1_555
C11I C10I 1_555 1_555
C12I C11I 1_555 1_555
H5I C12I 1_555 1_555
C13I C12I 1_555 1_555
H6I C13I 1_555 1_555
C15I C11I 1_555 1_555
H8I C15I 1_555 1_555
C16I C5I 1_555 1_555
C17I C16I 1_555 1_555
H9I C17I 1_555 1_555
C18I C17I 1_555 1_555
H10I C18I 1_555 1_555
C19I C18I 1_555 1_555
C20I C19I 1_555 1_555
H11I C20I 1_555 1_555
C21I C16I 1_555 1_555
H12I C21I 1_555 1_555
C22I C19I 1_555 1_555
H13I C22I 1_555 1_555
H14I C22I 1_555 1_555
H15I C22I 1_555 1_555
N3I C13I 1_555 1_555
C14I C15I 1_555 1_555
H7I C14I 1_555 1_555
Co1D N3I 1_555 1_555
Co1G N3 1_555 1_555
N3E Co1 1_555 1_555
N3N Co1 1_555 1_555
C3 C4 1_555 1_555
C5 C6 1_555 1_555
C8 C9 1_555 1_555
C14 C15 1_555 1_555
C20 C21 1_555 1_555
N1I C1I 1_555 1_555
C3I C4I 1_555 1_555
C5I C6I 1_555 1_555
C8I C9I 1_555 1_555
C9I C10I 1_555 1_555
C20I C21I 1_555 1_555
N3I C14I 1_555 1_555

#END
