
#######################################################################
#
#                 Cambridge Crystallographic Data Centre
#                                CCDC 
#
#######################################################################
#
# If this CIF has been generated from an entry in the Cambridge 
# Structural Database, then it will include bibliographic, chemical, 
# crystal, experimental, refinement or atomic coordinate data resulting 
# from the CCDC's data processing and validation procedures.
#
#######################################################################

data_FUMYUI
_chemical_formula_moiety         
'(C75 H55 Ir2 N7 O16 Zn3)n,3n(H2 O1),2n(C3 H7 N1 O1)'
_chemical_name_systematic        
'catena-(bis(\m~3~-2-(5-carboxypyridin-2-yl)phenyl)-tetrakis(\m~2~-2-(5-carboxypyridin-2-yl)phenyl)-(dimethylformamide)-triaqua-di-iridium-tri-zinc dimethylformamide solvate trihydrate)'
_symmetry_cell_setting           triclinic
_symmetry_space_group_name_H-M   'P -1'
_symmetry_Int_Tables_number      2
_space_group_name_Hall           '-P 1'
loop_
_symmetry_equiv_pos_site_id
_symmetry_equiv_pos_as_xyz
1 x,y,z
2 -x,-y,-z
_cell_length_a                   13.7071(2)
_cell_length_b                   17.0996(3)
_cell_length_c                   17.8304(3)
_cell_angle_alpha                90.4670(10)
_cell_angle_beta                 109.6290(9)
_cell_angle_gamma                90.0970(10)
_cell_volume                     3936.16
_exptl_crystal_colour            orange
_exptl_crystal_description       block
_cell_formula_units_Z            2
loop_
_atom_site_label
_atom_site_type_symbol
_atom_site_fract_x
_atom_site_fract_y
_atom_site_fract_z
O16 O 0.1814(7) 0.3994(5) 0.1006(5)
O17 O 0.8984(8) 0.4665(6) 0.9740(6)
O19 O 0.8855(9) 0.4511(6) 0.1380(6)
C73 C 1.0272(18) 0.9693(15) 0.9452(11)
N10 N 0.9689(18) 0.9532(14) 0.8678(11)
C81 C 0.860(2) 0.961(4) 0.868(3)
C82 C 0.988(4) 1.003(4) 0.809(3)
Zn1 Zn -0.0661(3) -0.2848(2) 0.7377(2)
Zn2 Zn -0.07634(9) -0.22446(7) 0.56230(7)
Zn3 Zn -0.02525(9) -0.25263(7) 1.09349(7)
Ir1 Ir -0.47320(2) -0.00334(2) 0.76216(2)
Ir2 Ir -0.43944(2) -0.49965(2) 0.265661(19)
C1 C -0.4129(6) -0.0999(4) 0.8245(4)
C2 C -0.3189(6) -0.1111(5) 0.8863(5)
H1 H -0.2731 -0.0685 0.9039
C3 C -0.2916(6) -0.1830(5) 0.9221(5)
C4 C -0.3590(7) -0.2437(5) 0.9023(5)
H2 H -0.3424 -0.2907 0.9306
C5 C -0.4517(7) -0.2370(5) 0.8410(5)
H3 H -0.4985 -0.2792 0.8279
C6 C -0.4763(6) -0.1672(5) 0.7983(5)
C7 C -0.5638(6) -0.1618(5) 0.7227(5)
C8 C -0.6257(7) -0.2220(5) 0.6826(5)
H4 H -0.6158 -0.2727 0.7036
C9 C -0.7037(8) -0.2078(6) 0.6100(6)
H5 H -0.7475 -0.2486 0.5826
C10 C -0.7156(7) -0.1365(6) 0.5802(5)
H6 H -0.7684 -0.1263 0.5317
C11 C -0.6504(7) -0.0773(5) 0.6204(5)
H7 H -0.6591 -0.0271 0.5979
C12 C -0.1881(7) -0.1943(6) 0.9845(5)
C13 C -0.3861(6) -0.0089(5) 0.6906(5)
C14 C -0.3104(6) -0.0660(5) 0.6926(5)
H8 H -0.2904 -0.1021 0.7345
C15 C -0.2654(6) -0.0693(5) 0.6335(5)
C16 C -0.2938(7) -0.0160(6) 0.5711(5)
H9 H -0.2637 -0.0184 0.5309
C17 C -0.3663(7) 0.0400(6) 0.5690(6)
H10 H -0.3859 0.0760 0.5271
C18 C -0.4110(6) 0.0439(5) 0.6282(5)
C19 C -0.4920(7) 0.1002(5) 0.6258(5)
C20 C -0.5306(8) 0.1602(6) 0.5695(6)
H11 H -0.4996 0.1688 0.5305
C21 C -0.6110(8) 0.2057(6) 0.5704(6)
H12 H -0.6355 0.2456 0.5329
C22 C -0.6561(7) 0.1921(5) 0.6275(5)
H13 H -0.7130 0.2219 0.6288
C23 C -0.6172(7) 0.1347(5) 0.6824(5)
H14 H -0.6477 0.1268 0.7217
C24 C -0.1893(7) -0.1346(5) 0.6358(5)
C25 C -0.3822(6) 0.0704(4) 0.8459(5)
C26 C -0.2862(6) 0.1025(5) 0.8536(5)
H15 H -0.2555 0.0897 0.8153
C27 C -0.2339(7) 0.1526(5) 0.9155(5)
C28 C -0.2770(7) 0.1727(5) 0.9720(5)
H16 H -0.2413 0.2064 1.0142
C29 C -0.3743(7) 0.1430(5) 0.9670(6)
H17 H -0.4040 0.1569 1.0057
C30 C -0.4258(6) 0.0939(5) 0.9057(5)
C31 C -0.5286(6) 0.0615(5) 0.8966(5)
C32 C -0.5865(7) 0.0774(6) 0.9466(5)
H18 H -0.5606 0.1125 0.9897
C33 C -0.6812(7) 0.0417(6) 0.9329(6)
H19 H -0.7199 0.0517 0.9665
C34 C -0.7177(7) -0.0079(6) 0.8704(6)
H20 H -0.7820 -0.0330 0.8601
C35 C -0.6593(6) -0.0214(5) 0.8217(5)
H21 H -0.6855 -0.0558 0.7781
C36 C -0.1307(7) 0.1864(5) 0.9209(6)
C37 C -0.3696(6) -0.4069(5) 0.2337(4)
C38 C -0.2726(6) -0.4031(5) 0.2238(4)
H22 H -0.2294 -0.4471 0.2356
C39 C -0.2388(6) -0.3353(5) 0.1969(5)
C40 C -0.3023(7) -0.2704(5) 0.1758(5)
H23 H -0.2800 -0.2252 0.1563
C41 C -0.3987(7) -0.2735(5) 0.1838(5)
H24 H -0.4433 -0.2305 0.1680
C42 C -0.4317(7) -0.3396(5) 0.2151(5)
C43 C -0.5307(7) -0.3425(5) 0.2299(5)
C44 C -0.6000(8) -0.2801(6) 0.2197(6)
H25 H -0.5848 -0.2319 0.2010
C45 C -0.6876(8) -0.2885(7) 0.2365(7)
H26 H -0.7359 -0.2477 0.2276
C46 C -0.7049(8) -0.3603(7) 0.2677(7)
H27 H -0.7639 -0.3675 0.2826
C47 C -0.6368(7) -0.4185(6) 0.2763(6)
H28 H -0.6513 -0.4668 0.2952
C48 C -0.1355(7) -0.3338(6) 0.1837(5)
C49 C -0.3709(6) -0.4856(5) 0.3844(5)
C50 C -0.3020(6) -0.4286(5) 0.4257(5)
H29 H -0.2817 -0.3903 0.3963
C51 C -0.2610(6) -0.4245(5) 0.5084(5)
C52 C -0.2914(7) -0.4813(6) 0.5526(5)
H30 H -0.2651 -0.4800 0.6086
C53 C -0.3600(8) -0.5388(6) 0.5131(5)
H31 H -0.3789 -0.5775 0.5429
C54 C -0.4017(7) -0.5414(5) 0.4321(5)
C55 C -0.4809(7) -0.5973(5) 0.3893(5)
C56 C -0.5240(7) -0.6564(6) 0.4225(5)
H32 H -0.4989 -0.6638 0.4779
C57 C -0.6016(8) -0.7034(6) 0.3759(6)
H33 H -0.6263 -0.7453 0.3984
C58 C -0.6431(7) -0.6889(6) 0.2961(6)
H34 H -0.6995 -0.7185 0.2636
C59 C -0.6002(7) -0.6291(5) 0.2635(5)
H35 H -0.6293 -0.6181 0.2089
C60 C -0.1882(7) -0.3618(5) 0.5520(5)
C61 C 0.3358(6) -0.4211(4) 0.7472(5)
C62 C 0.2479(6) -0.3938(5) 0.6899(5)
H36 H 0.2295 -0.4144 0.6379
C63 C 0.1842(6) -0.3358(5) 0.7065(5)
C64 C 0.2113(7) -0.3056(5) 0.7828(5)
H37 H 0.1715 -0.2657 0.7947
C65 C 0.2972(7) -0.3342(5) 0.8416(5)
H38 H 0.3135 -0.3155 0.8942
C66 C 0.3590(6) -0.3894(5) 0.8244(5)
C67 C 0.4546(7) -0.4161(5) 0.8841(5)
C68 C 0.4932(8) -0.3911(5) 0.9636(5)
H39 H 0.4546 -0.3555 0.9825
C69 C 0.5857(7) -0.4175(5) 1.0142(5)
H40 H 0.6113 -0.4003 1.0675
C70 C 0.6401(7) -0.4695(6) 0.9851(5)
H41 H 0.7044 -0.4882 1.0185
C71 C 0.6005(7) -0.4947(6) 0.9068(5)
H42 H 0.6385 -0.5309 0.8879
C72 C 0.0946(6) -0.3040(5) 0.6412(6)
N1 N -0.5752(5) -0.0881(4) 0.6902(4)
N2 N -0.5377(5) 0.0896(4) 0.6826(4)
N3 N -0.5672(5) 0.0123(4) 0.8339(4)
N4 N -0.5493(5) -0.4117(4) 0.2594(4)
N5 N -0.5181(5) -0.5870(4) 0.3090(4)
N6 N 0.5104(5) -0.4693(4) 0.8572(4)
O1 O -0.1350(5) -0.1355(4) 1.0203(4)
O2 O -0.1527(5) -0.2633(4) 0.9984(4)
O3 O -0.1691(6) -0.1817(4) 0.6880(4)
O4 O -0.1520(5) -0.1331(4) 0.5787(4)
O5 O -0.0809(6) 0.2265(5) 0.9807(4)
O6 O -0.0973(5) 0.1778(4) 0.8635(4)
O7 O -0.0882(6) -0.3981(4) 0.1854(5)
O8 O -0.1004(5) -0.2683(4) 0.1725(4)
O9 O -0.1725(5) -0.3065(4) 0.5088(4)
O10 O -0.1458(6) -0.3635(4) 0.6243(4)
O11 O 0.0745(5) -0.3261(4) 0.5706(4)
O12 O 0.0398(5) -0.2511(4) 0.6597(4)
O13 O 0.0487(5) -0.3575(4) 1.1190(4)
O14 O -0.0943(11) -0.4138(7) 0.7770(7)
O15 O -0.0340(7) -0.1746(6) 0.4763(5)
O18 O 0.0234(14) -0.2854(10) 0.8729(10)
N9 N 0.026(2) -0.1543(14) 0.3656(15)
C78 C 0.013(3) -0.0645(14) 0.375(2)
C79 C 0.1019(17) -0.1904(12) 0.3340(13)
C80 C 0.0021(15) -0.1939(12) 0.4290(11)
Zn3A Zn 0.02525(9) 0.25263(7) 0.90651(7)
Zn3_2 Zn -0.02525(9) -0.25263(7) 0.09349(7)
Ir2A Ir 0.43944(2) -0.50035(2) 0.734339(19)
C61A C -0.3358(6) -0.5789(4) 0.2528(5)
N6A N -0.5104(5) -0.5307(4) 0.1428(4)
O5A O 0.0809(6) -0.2265(5) 1.0193(4)
O6A O 0.0973(5) -0.1778(4) 1.1365(4)
O8_2 O -0.1004(5) -0.2683(4) 1.1725(4)
O20? O 1.0000 1.0000 1.0000
C74? C -0.042(3) 0.473(2) 0.5115(15)
N7? N 0.0012(19) 0.4513(14) 0.5952(14)
N8? N 0.009(3) 0.0921(19) 0.610(2)
C75? C 0.068(3) 0.008(2) 0.650(2)
C76? C 0.014(4) 0.147(2) 0.678(3)
C77? C 0.025(2) 0.1122(13) 0.5459(18)
C83? C -0.054(3) 0.3875(18) 0.616(2)
C84? C 0.107(2) 0.459(3) 0.627(3)
O21? O -0.010(4) 0.524(3) 0.476(2)
loop_
_geom_bond_atom_site_label_1
_geom_bond_atom_site_label_2
_geom_bond_site_symmetry_1
_geom_bond_site_symmetry_2
Zn1 O3 1_555 1_555
Zn2 O4 1_555 1_555
Zn3 O2 1_555 1_555
Ir1 C1 1_555 1_555
Ir2 C37 1_555 1_555
C1 C2 1_555 1_555
C2 H1 1_555 1_555
C3 C2 1_555 1_555
C4 C3 1_555 1_555
H2 C4 1_555 1_555
C5 C4 1_555 1_555
H3 C5 1_555 1_555
C6 C1 1_555 1_555
C7 C6 1_555 1_555
C8 C7 1_555 1_555
H4 C8 1_555 1_555
C9 C8 1_555 1_555
H5 C9 1_555 1_555
C10 C9 1_555 1_555
H6 C10 1_555 1_555
C11 C10 1_555 1_555
H7 C11 1_555 1_555
C12 C3 1_555 1_555
C13 Ir1 1_555 1_555
C14 C13 1_555 1_555
H8 C14 1_555 1_555
C15 C14 1_555 1_555
C16 C15 1_555 1_555
H9 C16 1_555 1_555
C17 C16 1_555 1_555
H10 C17 1_555 1_555
C18 C13 1_555 1_555
C19 C18 1_555 1_555
C20 C19 1_555 1_555
H11 C20 1_555 1_555
C21 C20 1_555 1_555
H12 C21 1_555 1_555
C22 C21 1_555 1_555
H13 C22 1_555 1_555
C23 C22 1_555 1_555
H14 C23 1_555 1_555
C24 C15 1_555 1_555
C25 Ir1 1_555 1_555
C26 C25 1_555 1_555
H15 C26 1_555 1_555
C27 C26 1_555 1_555
C28 C27 1_555 1_555
H16 C28 1_555 1_555
C29 C28 1_555 1_555
H17 C29 1_555 1_555
C30 C25 1_555 1_555
C31 C30 1_555 1_555
C32 C31 1_555 1_555
H18 C32 1_555 1_555
C33 C32 1_555 1_555
H19 C33 1_555 1_555
C34 C33 1_555 1_555
H20 C34 1_555 1_555
C35 C34 1_555 1_555
H21 C35 1_555 1_555
C36 C27 1_555 1_555
C37 C38 1_555 1_555
C38 H22 1_555 1_555
C39 C38 1_555 1_555
C40 C39 1_555 1_555
H23 C40 1_555 1_555
C41 C40 1_555 1_555
H24 C41 1_555 1_555
C42 C37 1_555 1_555
C43 C42 1_555 1_555
C44 C43 1_555 1_555
H25 C44 1_555 1_555
C45 C44 1_555 1_555
H26 C45 1_555 1_555
C46 C45 1_555 1_555
H27 C46 1_555 1_555
C47 C46 1_555 1_555
H28 C47 1_555 1_555
C48 C39 1_555 1_555
C49 Ir2 1_555 1_555
C50 C49 1_555 1_555
H29 C50 1_555 1_555
C51 C50 1_555 1_555
C52 C51 1_555 1_555
H30 C52 1_555 1_555
C53 C52 1_555 1_555
H31 C53 1_555 1_555
C54 C49 1_555 1_555
C55 C54 1_555 1_555
C56 C55 1_555 1_555
H32 C56 1_555 1_555
C57 C56 1_555 1_555
H33 C57 1_555 1_555
C58 C57 1_555 1_555
H34 C58 1_555 1_555
C59 C58 1_555 1_555
H35 C59 1_555 1_555
C60 C51 1_555 1_555
C61 C62 1_555 1_555
C62 H36 1_555 1_555
C63 C62 1_555 1_555
C64 C63 1_555 1_555
H37 C64 1_555 1_555
C65 C64 1_555 1_555
H38 C65 1_555 1_555
C66 C61 1_555 1_555
C67 C66 1_555 1_555
C68 C67 1_555 1_555
H39 C68 1_555 1_555
C69 C68 1_555 1_555
H40 C69 1_555 1_555
C70 C69 1_555 1_555
H41 C70 1_555 1_555
C71 C70 1_555 1_555
H42 C71 1_555 1_555
C72 C63 1_555 1_555
N1 Ir1 1_555 1_555
N2 Ir1 1_555 1_555
N3 Ir1 1_555 1_555
N4 Ir2 1_555 1_555
N5 Ir2 1_555 1_555
N6 C67 1_555 1_555
O1 C12 1_555 1_555
O2 C12 1_555 1_555
O3 C24 1_555 1_555
O4 C24 1_555 1_555
O5 C36 1_555 1_555
O6 C36 1_555 1_555
O7 C48 1_555 1_555
O8 C48 1_555 1_555
O9 Zn2 1_555 1_555
O10 Zn1 1_555 1_555
O11 C72 1_555 1_555
O12 Zn2 1_555 1_555
O13 Zn3 1_555 1_555
O14 Zn1 1_555 1_555
O15 Zn2 1_555 1_555
O18 Zn1 1_555 1_555
C73 N10 1_555 1_555
N9 C78 1_555 1_555
C79 N9 1_555 1_555
C80 O15 1_555 1_555
N10 C81 1_555 1_555
C82 N10 1_555 1_555
Zn3A O5 1_555 1_555
Zn3_2 O8 1_555 1_555
Ir2A C61 1_555 1_555
C61A Ir2 1_555 1_555
N6A Ir2 1_555 1_555
O5A Zn3 1_555 1_555
O6A Zn3 1_555 1_555
O8_2 Zn3 1_555 1_555
C5 C6 1_555 1_555
C7 N1 1_555 1_555
C11 N1 1_555 1_555
C17 C18 1_555 1_555
C19 N2 1_555 1_555
C23 N2 1_555 1_555
C29 C30 1_555 1_555
C31 N3 1_555 1_555
C35 N3 1_555 1_555
C41 C42 1_555 1_555
C43 N4 1_555 1_555
C47 N4 1_555 1_555
C53 C54 1_555 1_555
C55 N5 1_555 1_555
C59 N5 1_555 1_555
C60 O9 1_555 1_555
C60 O10 1_555 1_555
C65 C66 1_555 1_555
C71 N6 1_555 1_555
C72 O12 1_555 1_555
N6 Ir2A 1_555 1_555
O6 Zn3A 1_555 1_555
N9 C80 1_555 1_555

#END
