
#######################################################################
#
#                 Cambridge Crystallographic Data Centre
#                                CCDC 
#
#######################################################################
#
# If this CIF has been generated from an entry in the Cambridge 
# Structural Database, then it will include bibliographic, chemical, 
# crystal, experimental, refinement or atomic coordinate data resulting 
# from the CCDC's data processing and validation procedures.
#
#######################################################################

data_QABVEW
_chemical_formula_moiety         
'(C66 H50 B2 Co1 Cu6 N18 O24)n,6n(C3 H7 N1 O1),n(H2 O1)'
_chemical_name_systematic        
'catena-(bis(\m~4~-tris(Triazolyl)borate)-hexakis(\m~4~-5-methylisophthalato)-cobalt(ii)-hexa-copper(ii) dimethylformamide solvate monohydrate)'
_symmetry_cell_setting           rhombohedral
_symmetry_space_group_name_H-M   'R -3 c'
_symmetry_Int_Tables_number      167
_space_group_name_Hall           '-R 3 2"c'
loop_
_symmetry_equiv_pos_site_id
_symmetry_equiv_pos_as_xyz
1 x,y,z
2 -y,x-y,z
3 -x+y,-x,z
4 y,x,1/2-z
5 x-y,-y,1/2-z
6 -x,-x+y,1/2-z
7 2/3+x,1/3+y,1/3+z
8 2/3-y,1/3+x-y,1/3+z
9 2/3-x+y,1/3-x,1/3+z
10 2/3+y,1/3+x,5/6-z
11 2/3+x-y,1/3-y,5/6-z
12 2/3-x,1/3-x+y,5/6-z
13 1/3+x,2/3+y,2/3+z
14 1/3-y,2/3+x-y,2/3+z
15 1/3-x+y,2/3-x,2/3+z
16 1/3+y,2/3+x,1/6-z
17 1/3+x-y,2/3-y,1/6-z
18 1/3-x,2/3-x+y,1/6-z
19 -x,-y,-z
20 y,-x+y,-z
21 x-y,x,-z
22 -y,-x,1/2+z
23 -x+y,y,1/2+z
24 x,x-y,1/2+z
25 1/3-x,2/3-y,2/3-z
26 1/3+y,2/3-x+y,2/3-z
27 1/3+x-y,2/3+x,2/3-z
28 1/3-y,2/3-x,1/6+z
29 1/3-x+y,2/3+y,1/6+z
30 1/3+x,2/3+x-y,1/6+z
31 2/3-x,1/3-y,1/3-z
32 2/3+y,1/3-x+y,1/3-z
33 2/3+x-y,1/3+x,1/3-z
34 2/3-y,1/3-x,5/6+z
35 2/3-x+y,1/3+y,5/6+z
36 2/3+x,1/3+x-y,5/6+z
_cell_length_a                   24.0967(4)
_cell_length_b                   24.0967(4)
_cell_length_c                   37.7074(12)
_cell_angle_alpha                90
_cell_angle_beta                 90
_cell_angle_gamma                120
_cell_volume                     18961.5
_exptl_crystal_colour            green
_exptl_crystal_description       cubic
_cell_formula_units_Z            6
loop_
_atom_site_label
_atom_site_type_symbol
_atom_site_fract_x
_atom_site_fract_y
_atom_site_fract_z
Co1 Co 1.0000 1.0000 0.0000
B1 B 1.0000 1.0000 0.08578(9)
H1 H 1.0000 1.0000 0.1118
N1 N 0.92072(7) 0.94882(7) 0.03519(4)
C1 C 0.85831(9) 0.91113(9) 0.03251(5)
H2 H 0.8371 0.8964 0.0110
N2 N 0.93162(7) 0.95853(7) 0.07082(4)
C2 C 0.87580(9) 0.92714(9) 0.08706(5)
H3 H 0.8705 0.9269 0.1115
N3 N 0.82816(8) 0.89597(8) 0.06419(4)
Cu1 Cu 0.729148(11) 0.843089(12) 0.076291(6)
O1 O 0.70986(7) 0.78153(7) 0.03806(4)
C3 C 0.65889(10) 0.72746(10) 0.04047(6)
C4 C 0.66025(11) 0.67241(11) 0.02290(6)
C5 C 0.71035(10) 0.68311(10) 0.00070(5)
H4 H 0.7418 0.7248 -0.0047
C6 C 0.71392(11) 0.63169(10) -0.01370(6)
C7 C 0.66709(15) 0.56993(12) -0.00520(9)
H5 H 0.6694 0.5356 -0.0147
C8 C 0.61661(18) 0.55797(13) 0.01725(12)
C9 C 0.61303(16) 0.60988(13) 0.03023(9)
H6 H 0.5782 0.6027 0.0442
C10 C 0.5645(3) 0.48908(17) 0.0258(2)
H7 H 0.5508 0.4645 0.0043
H8 H 0.5286 0.4894 0.0366
H9 H 0.5814 0.4702 0.0418
O2 O 0.60946(7) 0.71648(7) 0.05754(4)
O3 O 0.76809(7) 0.59472(7) -0.05040(4)
C11 C 0.76758(10) 0.64349(10) -0.03837(5)
O4 O 0.80765(7) 0.70071(7) -0.04596(4)
B1R B 1.0000 1.0000 -0.08578(9)
H1R H 1.0000 1.0000 -0.1118
N1A N 1.05118(7) 0.97190(10) 0.03519(4)
N1B N 1.02810(10) 1.07928(7) 0.03519(4)
N1R N 1.07928(7) 1.05118(7) -0.03519(4)
N1S N 0.94882(7) 1.02810(10) -0.03519(4)
N1T N 0.97190(10) 0.92072(7) -0.03519(4)
C1A C 1.08887(9) 0.94718(13) 0.03251(5)
C1B C 1.05282(13) 1.14169(9) 0.03251(5)
C1R C 1.14169(9) 1.08887(9) -0.03251(5)
C1S C 0.91113(9) 1.05282(13) -0.03251(5)
C1T C 0.94718(13) 0.85831(9) -0.03251(5)
H2A H 1.1036 0.9407 0.0110
H2B H 1.0593 1.1629 0.0110
H2R H 1.1629 1.1036 -0.0110
H2S H 0.8964 1.0593 -0.0110
H2T H 0.9407 0.8371 -0.0110
N2A N 1.04147(7) 0.97309(10) 0.07082(4)
N2B N 1.02691(10) 1.06838(7) 0.07082(4)
N2R N 1.06838(7) 1.04147(7) -0.07082(4)
N2S N 0.95853(7) 1.02691(10) -0.07082(4)
N2T N 0.97309(10) 0.93162(7) -0.07082(4)
C2A C 1.07286(9) 0.94866(13) 0.08706(5)
C2B C 1.05134(13) 1.12420(9) 0.08706(5)
C2R C 1.12420(9) 1.07286(9) -0.08706(5)
C2S C 0.92714(9) 1.05134(13) -0.08706(5)
C2T C 0.94866(13) 0.87580(9) -0.08706(5)
H3A H 1.0731 0.9436 0.1115
H3B H 1.0564 1.1295 0.1115
H3R H 1.1295 1.0731 -0.1115
H3S H 0.9269 1.0564 -0.1115
H3T H 0.9436 0.8705 -0.1115
N3A N 1.10403(8) 0.93219(11) 0.06419(4)
N3B N 1.06781(11) 1.17184(8) 0.06419(4)
N3R N 1.17184(8) 1.10403(8) -0.06419(4)
N3S N 0.89597(8) 1.06781(11) -0.06419(4)
N3T N 0.93219(11) 0.82816(8) -0.06419(4)
Cu1A Cu 1.156911(12) 0.886059(16) 0.076291(6)
Cu1B Cu 1.113941(16) 1.270852(11) 0.076291(6)
Cu1R Cu 1.270852(11) 1.156911(12) -0.076291(6)
Cu1S Cu 0.843089(12) 1.113941(16) -0.076291(6)
Cu1T Cu 0.886059(16) 0.729148(11) -0.076291(6)
Cu1Q Cu 0.604185(11) 0.780608(16) 0.090376(6)
Cu1GA Cu 0.823578(12) 0.604185(11) -0.090376(6)
Cu1P Cu 1.219392(16) 0.823578(12) 0.090376(6)
Cu1O Cu 1.176422(12) 1.395815(11) 0.090376(6)
Cu1IA Cu 1.395815(11) 1.219392(16) -0.090376(6)
Cu1HA Cu 0.780608(16) 1.176422(12) -0.090376(6)
Cu1AA Cu 0.490244(12) 0.937519(11) 0.242958(6)
Cu1FA Cu 0.552726(16) 1.062481(11) 0.257042(6)
Cu1EA Cu 0.509756(12) 0.447274(16) 0.257042(6)
Cu1BA Cu 0.447274(16) 0.509756(12) 0.242958(6)
O1S O 0.78153(7) 1.07167(10) -0.03806(4)
O1AA O 0.55180(7) 0.95681(7) 0.20473(4)
O1Q O 0.62347(7) 0.73834(10) 0.12861(4)
O1A O 1.21847(7) 0.92833(10) 0.03806(4)
O1T O 0.92833(10) 0.70986(7) -0.03806(4)
O1B O 1.07167(10) 1.29014(7) 0.03806(4)
O1R O 1.29014(7) 1.21847(7) -0.03806(4)
C3S C 0.72746(10) 1.06857(14) -0.04047(6)
C3AA C 0.60587(10) 1.00778(10) 0.20714(6)
C3Q C 0.67444(10) 0.73524(14) 0.12620(6)
C3A C 1.27254(10) 0.93143(14) 0.04047(6)
C3T C 0.93143(14) 0.65889(10) -0.04047(6)
C4S C 0.67241(11) 1.01216(16) -0.02290(6)
C4AA C 0.66092(11) 1.00642(11) 0.18957(6)
C4Q C 0.67308(11) 0.67883(16) 0.14377(6)
C4A C 1.32759(11) 0.98784(16) 0.02290(6)
C4T C 0.98784(16) 0.66025(11) -0.02290(6)
C5S C 0.68311(10) 0.97276(14) -0.00070(5)
C5AA C 0.65022(10) 0.95632(10) 0.16737(5)
C5Q C 0.62298(10) 0.63943(14) 0.16597(5)
C5A C 1.31689(10) 1.02724(14) 0.00070(5)
C5T C 1.02724(14) 0.71035(10) -0.00070(5)
H4S H 0.7248 0.9830 0.0047
H4AA H 0.6085 0.9249 0.1620
H4Q H 0.5915 0.6497 0.1714
H4A H 1.2752 1.0170 -0.0047
H4T H 1.0170 0.7418 0.0047
C6S C 0.63169(10) 0.91777(15) 0.01370(6)
C6AA C 0.70164(10) 0.95275(11) 0.15297(6)
C6Q C 0.61941(11) 0.58444(15) 0.18037(6)
C6A C 1.36831(10) 1.08223(15) -0.01370(6)
C6T C 1.08223(15) 0.71392(11) 0.01370(6)
C7S C 0.56993(12) 0.90284(19) 0.00520(9)
C7AA C 0.76340(12) 0.99958(15) 0.16147(9)
C7Q C 0.66624(15) 0.56951(19) 0.17187(9)
C7A C 1.43007(12) 1.09716(19) -0.00520(9)
C7T C 1.09716(19) 0.66709(15) 0.00520(9)
H5S H 0.5356 0.8662 0.0147
H5AA H 0.7977 0.9973 0.1520
H5Q H 0.6639 0.5329 0.1814
H5A H 1.4644 1.1338 -0.0147
H5T H 1.1338 0.6694 0.0147
C8S C 0.55797(13) 0.94136(22) -0.01725(12)
C8AA C 0.77536(13) 1.05006(18) 0.18392(12)
C8Q C 0.71672(18) 0.60803(22) 0.14942(12)
C8A C 1.44203(13) 1.05864(22) 0.01725(12)
C8T C 1.05864(22) 0.61661(18) -0.01725(12)
C9S C 0.60988(13) 0.99685(21) -0.03023(9)
C9AA C 0.72345(13) 1.05364(16) 0.19690(9)
C9Q C 0.72030(16) 0.66352(21) 0.13644(9)
C9A C 1.39012(13) 1.00315(21) 0.03023(9)
C9T C 1.00315(21) 0.61303(16) -0.03023(9)
H6S H 0.6027 1.0245 -0.0442
H6AA H 0.7306 1.0885 0.2109
H6Q H 0.7551 0.6912 0.1225
H6A H 1.3973 0.9755 0.0442
H6T H 0.9755 0.5782 -0.0442
C10S C 0.48908(17) 0.92458(34) -0.0258(2)
C10AA C 0.84425(17) 1.1022(3) 0.1925(2)
C10Q C 0.7688(3) 0.59125(34) 0.1409(2)
C10A C 1.51092(17) 1.07542(34) 0.0258(2)
C10T C 1.07542(34) 0.5645(3) -0.0258(2)
H7S H 0.4645 0.9137 -0.0043
H7AA H 0.8688 1.1159 0.1710
H7Q H 0.7825 0.5804 0.1624
H7A H 1.5355 1.0863 0.0043
H7T H 1.0863 0.5508 -0.0043
H8S H 0.4894 0.9608 -0.0366
H8AA H 0.8439 1.1381 0.2033
H8Q H 0.8047 0.6275 0.1301
H8A H 1.5106 1.0392 0.0366
H8T H 1.0392 0.5286 -0.0366
H9S H 0.4702 0.8888 -0.0418
H9AA H 0.8631 1.0853 0.2085
H9Q H 0.7519 0.5555 0.1249
H9A H 1.5298 1.1112 0.0418
H9T H 1.1112 0.5814 -0.0418
O2S O 0.71648(7) 1.10702(10) -0.05754(4)
O2AA O 0.61685(7) 1.05721(7) 0.22421(4)
O2Q O 0.72387(7) 0.77369(10) 0.10913(4)
O2A O 1.28352(7) 0.89298(10) 0.05754(4)
O2T O 0.89298(10) 0.60946(7) -0.05754(4)
O2P O 1.22631(10) 0.95019(7) 0.10913(4)
O2O O 1.04981(7) 1.27613(7) 0.10913(4)
O2IA O 1.27613(7) 1.22631(10) -0.10913(4)
O2HA O 0.77369(10) 1.04981(7) -0.10913(4)
O2GA O 0.95019(7) 0.72387(7) -0.10913(4)
O3S O 0.59472(7) 0.82663(10) 0.05040(4)
O3AA O 0.73861(7) 0.89858(7) 0.11627(4)
O3Q O 0.56524(7) 0.49330(10) 0.21707(4)
O3A O 1.40528(7) 1.17337(10) -0.05040(4)
O3T O 1.17337(10) 0.76809(7) 0.05040(4)
O3CA O 1.10142(7) 0.84004(10) 0.11627(4)
O3BA O 1.15996(10) 1.26139(7) 0.11627(4)
O3I O 1.26139(7) 1.10142(7) -0.11627(4)
O3K O 0.89858(7) 1.15996(10) -0.11627(4)
O3J O 0.84004(10) 0.73861(7) -0.11627(4)
C11S C 0.64349(10) 0.87591(14) 0.03837(5)
C11AA C 0.68984(10) 0.89909(10) 0.12830(5)
C11Q C 0.56575(10) 0.54258(14) 0.20504(5)
C11A C 1.35651(10) 1.12409(14) -0.03837(5)
C11T C 1.12409(14) 0.76758(10) 0.03837(5)
O4S O 0.70071(7) 0.89306(10) 0.04596(4)
O4AA O 0.63262(7) 0.85902(7) 0.12071(4)
O4Q O 0.52568(7) 0.55973(10) 0.21263(4)
O4A O 1.29929(7) 1.10694(10) -0.04596(4)
O4T O 1.10694(10) 0.80765(7) 0.04596(4)
O4R O 1.19235(7) 1.29929(7) 0.04596(4)
O4B O 0.89306(10) 1.19235(7) -0.04596(4)
loop_
_geom_bond_atom_site_label_1
_geom_bond_atom_site_label_2
_geom_bond_site_symmetry_1
_geom_bond_site_symmetry_2
Co1 N1 1_555 1_555
B1 H1 1_555 1_555
N1 C1 1_555 1_555
C1 H2 1_555 1_555
N2 B1 1_555 1_555
C2 N2 1_555 1_555
H3 C2 1_555 1_555
N3 C1 1_555 1_555
Cu1 N3 1_555 1_555
O1 Cu1 1_555 1_555
C3 O1 1_555 1_555
C4 C3 1_555 1_555
C5 C4 1_555 1_555
H4 C5 1_555 1_555
C6 C5 1_555 1_555
C7 C6 1_555 1_555
H5 C7 1_555 1_555
C8 C7 1_555 1_555
C9 C4 1_555 1_555
H6 C9 1_555 1_555
C10 C8 1_555 1_555
H7 C10 1_555 1_555
H8 C10 1_555 1_555
H9 C10 1_555 1_555
O2 C3 1_555 1_555
O3 C11 1_555 1_555
C11 C6 1_555 1_555
O4 C11 1_555 1_555
B1R H1R 1_555 1_555
N1A Co1 1_555 1_555
N1B Co1 1_555 1_555
N1R Co1 1_555 1_555
N1S Co1 1_555 1_555
N1T Co1 1_555 1_555
C1A N1A 1_555 1_555
C1B N1B 1_555 1_555
C1R N1R 1_555 1_555
C1S N1S 1_555 1_555
C1T N1T 1_555 1_555
H2A C1A 1_555 1_555
H2B C1B 1_555 1_555
H2R C1R 1_555 1_555
H2S C1S 1_555 1_555
H2T C1T 1_555 1_555
N2A B1 1_555 1_555
N2B B1 1_555 1_555
N2R B1R 1_555 1_555
N2S B1R 1_555 1_555
N2T B1R 1_555 1_555
C2A N2A 1_555 1_555
C2B N2B 1_555 1_555
C2R N2R 1_555 1_555
C2S N2S 1_555 1_555
C2T N2T 1_555 1_555
H3A C2A 1_555 1_555
H3B C2B 1_555 1_555
H3R C2R 1_555 1_555
H3S C2S 1_555 1_555
H3T C2T 1_555 1_555
N3A C1A 1_555 1_555
N3B C1B 1_555 1_555
N3R C1R 1_555 1_555
N3S C1S 1_555 1_555
N3T C1T 1_555 1_555
Cu1A N3A 1_555 1_555
Cu1B N3B 1_555 1_555
Cu1R N3R 1_555 1_555
Cu1S N3S 1_555 1_555
Cu1T O4 1_555 1_555
Cu1Q Cu1 1_555 1_555
Cu1GA O3 1_555 1_555
Cu1P Cu1A 1_555 1_555
Cu1O Cu1B 1_555 1_555
Cu1IA Cu1R 1_555 1_555
Cu1HA Cu1S 1_555 1_555
Cu1AA Cu1FA 1_555 1_555
Cu1FA O2AA 1_555 1_555
Cu1EA Cu1BA 1_555 1_555
Cu1BA O4Q 1_555 1_555
O1S Cu1S 1_555 1_555
O1AA Cu1AA 1_555 1_555
O1Q Cu1Q 1_555 1_555
O1A Cu1A 1_555 1_555
O1T Cu1T 1_555 1_555
O1B Cu1B 1_555 1_555
O1R Cu1R 1_555 1_555
C3S O1S 1_555 1_555
C3AA O1AA 1_555 1_555
C3Q O1Q 1_555 1_555
C3A O1A 1_555 1_555
C3T O1T 1_555 1_555
C4S C3S 1_555 1_555
C4AA C3AA 1_555 1_555
C4Q C3Q 1_555 1_555
C4A C3A 1_555 1_555
C4T C3T 1_555 1_555
C5S C4S 1_555 1_555
C5AA C4AA 1_555 1_555
C5Q C4Q 1_555 1_555
C5A C4A 1_555 1_555
C5T C4T 1_555 1_555
H4S C5S 1_555 1_555
H4AA C5AA 1_555 1_555
H4Q C5Q 1_555 1_555
H4A C5A 1_555 1_555
H4T C5T 1_555 1_555
C6S C5S 1_555 1_555
C6AA C5AA 1_555 1_555
C6Q C5Q 1_555 1_555
C6A C5A 1_555 1_555
C6T C5T 1_555 1_555
C7S C6S 1_555 1_555
C7AA C6AA 1_555 1_555
C7Q C6Q 1_555 1_555
C7A C6A 1_555 1_555
C7T C6T 1_555 1_555
H5S C7S 1_555 1_555
H5AA C7AA 1_555 1_555
H5Q C7Q 1_555 1_555
H5A C7A 1_555 1_555
H5T C7T 1_555 1_555
C8S C7S 1_555 1_555
C8AA C7AA 1_555 1_555
C8Q C7Q 1_555 1_555
C8A C7A 1_555 1_555
C8T C7T 1_555 1_555
C9S C4S 1_555 1_555
C9AA C4AA 1_555 1_555
C9Q C4Q 1_555 1_555
C9A C4A 1_555 1_555
C9T C4T 1_555 1_555
H6S C9S 1_555 1_555
H6AA C9AA 1_555 1_555
H6Q C9Q 1_555 1_555
H6A C9A 1_555 1_555
H6T C9T 1_555 1_555
C10S C8S 1_555 1_555
C10AA C8AA 1_555 1_555
C10Q C8Q 1_555 1_555
C10A C8A 1_555 1_555
C10T C8T 1_555 1_555
H7S C10S 1_555 1_555
H7AA C10AA 1_555 1_555
H7Q C10Q 1_555 1_555
H7A C10A 1_555 1_555
H7T C10T 1_555 1_555
H8S C10S 1_555 1_555
H8AA C10AA 1_555 1_555
H8Q C10Q 1_555 1_555
H8A C10A 1_555 1_555
H8T C10T 1_555 1_555
H9S C10S 1_555 1_555
H9AA C10AA 1_555 1_555
H9Q C10Q 1_555 1_555
H9A C10A 1_555 1_555
H9T C10T 1_555 1_555
O2S Cu1HA 1_555 1_555
O2AA C3AA 1_555 1_555
O2Q Cu1 1_555 1_555
O2A Cu1P 1_555 1_555
O2T Cu1GA 1_555 1_555
O2P Cu1A 1_555 1_555
O2O Cu1B 1_555 1_555
O2IA Cu1R 1_555 1_555
O2HA Cu1S 1_555 1_555
O2GA Cu1T 1_555 1_555
O3S Cu1Q 1_555 1_555
O3AA Cu1 1_555 1_555
O3Q Cu1EA 1_555 1_555
O3A Cu1IA 1_555 1_555
O3T Cu1P 1_555 1_555
O3CA Cu1A 1_555 1_555
O3BA Cu1B 1_555 1_555
O3I Cu1R 1_555 1_555
O3K Cu1S 1_555 1_555
O3J Cu1T 1_555 1_555
C11S C6S 1_555 1_555
C11AA C6AA 1_555 1_555
C11Q C6Q 1_555 1_555
C11A C6A 1_555 1_555
C11T C6T 1_555 1_555
O4S Cu1 1_555 1_555
O4AA Cu1Q 1_555 1_555
O4Q C11Q 1_555 1_555
O4A Cu1R 1_555 1_555
O4T Cu1A 1_555 1_555
O4R Cu1B 1_555 1_555
O4B Cu1S 1_555 1_555
N1 N2 1_555 1_555
C2 N3 1_555 1_555
C8 C9 1_555 1_555
O2 Cu1Q 1_555 1_555
N1A N2A 1_555 1_555
N1B N2B 1_555 1_555
N1R N2R 1_555 1_555
N1S N2S 1_555 1_555
N1T N2T 1_555 1_555
C2A N3A 1_555 1_555
C2B N3B 1_555 1_555
C2R N3R 1_555 1_555
C2S N3S 1_555 1_555
C2T N3T 1_555 1_555
N3T Cu1T 1_555 1_555
Cu1T Cu1GA 1_555 1_555
C3S O2S 1_555 1_555
C3Q O2Q 1_555 1_555
C3A O2A 1_555 1_555
C3T O2T 1_555 1_555
C8S C9S 1_555 1_555
C8AA C9AA 1_555 1_555
C8Q C9Q 1_555 1_555
C8A C9A 1_555 1_555
C8T C9T 1_555 1_555
O3S C11S 1_555 1_555
O3AA C11AA 1_555 1_555
O3Q C11Q 1_555 1_555
O3A C11A 1_555 1_555
O3T C11T 1_555 1_555
C11S O4S 1_555 1_555
C11AA O4AA 1_555 1_555
C11A O4A 1_555 1_555
C11T O4T 1_555 1_555

#END
