
#######################################################################
#
#                 Cambridge Crystallographic Data Centre
#                                CCDC 
#
#######################################################################
#
# If this CIF has been generated from an entry in the Cambridge 
# Structural Database, then it will include bibliographic, chemical, 
# crystal, experimental, refinement or atomic coordinate data resulting 
# from the CCDC's data processing and validation procedures.
#
#######################################################################

data_NEFTOJ
_chemical_formula_moiety         '(C10 H5 Cu1 N3 O4)n,n(C3 H7 N1 O1),2n(H2 O1)'
_chemical_name_systematic        
'catena-((\m~5~-5-(4H-1,2,4-Triazol-4-yl)benzene-1,3-dicarboxylato)-copper dimethylformamide dihydrate)'
_symmetry_cell_setting           orthorhombic
_symmetry_space_group_name_H-M   'P b c n'
_symmetry_Int_Tables_number      60
_space_group_name_Hall           '-P 2n 2ab'
loop_
_symmetry_equiv_pos_site_id
_symmetry_equiv_pos_as_xyz
1 x,y,z
2 1/2-x,1/2-y,1/2+z
3 1/2+x,1/2-y,-z
4 -x,y,1/2-z
5 -x,-y,-z
6 1/2+x,1/2+y,1/2-z
7 1/2-x,1/2+y,z
8 x,-y,1/2+z
_cell_length_a                   12.0546(7)
_cell_length_b                   14.5444(7)
_cell_length_c                   20.4026(11)
_cell_angle_alpha                90
_cell_angle_beta                 90
_cell_angle_gamma                90
_cell_volume                     3577.13
_exptl_crystal_description       block
_cell_formula_units_Z            8
loop_
_atom_site_label
_atom_site_type_symbol
_atom_site_fract_x
_atom_site_fract_y
_atom_site_fract_z
_atom_site_U_iso_or_equiv
_atom_site_thermal_displace_type
Cu1 Cu 0.42745(5) 0.36510(5) 0.70022(3) 0.0141 Uani
O1 O 0.3550(4) 0.4638(3) 0.7532(2) 0.0260 Uani
O2 O 0.4722(4) 0.4572(3) 0.8381(2) 0.0300 Uani
O3 O 0.1464(4) 0.7701(3) 0.7531(2) 0.0267 Uani
O4 O 0.0283(4) 0.7718(3) 0.8368(2) 0.0273 Uani
N1 N 0.3206(4) 0.6315(3) 1.1171(3) 0.0227 Uani
N2 N 0.2593(5) 0.6257(3) 1.0155(3) 0.0303 Uani
N3 N 0.2048(5) 0.6337(4) 1.1190(3) 0.0353 Uani
C1 C 0.3865(6) 0.4866(4) 0.8077(3) 0.0220 Uani
C2 C 0.3196(5) 0.5554(4) 0.8454(3) 0.0243 Uani
C3 C 0.1126(6) 0.7466(4) 0.8075(3) 0.0223 Uani
C4 C 0.2548(6) 0.6206(4) 0.9458(3) 0.0270 Uani
C5 C 0.1847(6) 0.6793(4) 0.9128(3) 0.0277 Uani
H1 H 0.1384 0.7193 0.9355 0.1400 Uiso
C6 C 0.3221(5) 0.5579(4) 0.9124(3) 0.0257 Uani
H2 H 0.3682 0.5183 0.9355 0.0310 Uiso
C7 C 0.2498(6) 0.6160(4) 0.8096(3) 0.0223 Uani
H3 H 0.2482 0.6141 0.7640 0.0270 Uiso
C8 C 0.1845(5) 0.6775(4) 0.8435(3) 0.0243 Uani
C9 C 0.1728(6) 0.6322(6) 1.0585(3) 0.0403 Uani
H4 H 0.0989 0.6353 1.0457 0.0480 Uiso
C10 C 0.3501(6) 0.6253(5) 1.0556(3) 0.0327 Uani
H5 H 0.4231 0.6211 1.0411 0.0390 Uiso
Cu1C Cu 0.57255(5) 0.36510(5) 0.79978(3) 0.0141 Uani
Cu1F Cu 0.07255(5) 0.86510(5) 0.70022(3) 0.0141 Uani
Cu1E Cu -0.07255(5) 0.86510(5) 0.79978(3) 0.0141 Uani
Cu1G Cu 0.42745(5) 0.63490(5) 1.20022(3) 0.0141 Uani
O2C O 0.5278(4) 0.4572(3) 0.6619(2) 0.0300 Uani
O3F O 0.3536(4) 0.2701(3) 0.7531(2) 0.0267 Uani
O4E O 0.5283(4) 0.2718(3) 0.6632(2) 0.0273 Uani
N1G N 0.3206(4) 0.3685(3) 0.6171(3) 0.0227 Uani
loop_
_atom_site_aniso_label
_atom_site_aniso_U_11
_atom_site_aniso_U_22
_atom_site_aniso_U_33
_atom_site_aniso_U_23
_atom_site_aniso_U_13
_atom_site_aniso_U_12
Cu1 0.0073(4) 0.0052(4) 0.0297(5) -0.0006(3) -0.0001(3) 0.0008(3)
O1 0.018(3) 0.030(2) 0.030(3) -0.006(2) -0.004(2) 0.015(2)
O2 0.027(3) 0.027(2) 0.036(3) -0.005(2) 0.000(2) 0.016(2)
O3 0.027(3) 0.017(2) 0.036(3) 0.0006(19) -0.002(2) 0.016(2)
O4 0.017(2) 0.023(2) 0.042(3) 0.007(2) 0.002(2) 0.015(2)
N1 0.017(3) 0.024(3) 0.027(3) 0.003(2) -0.004(2) -0.003(2)
N2 0.029(3) 0.036(3) 0.026(3) -0.003(2) -0.004(3) 0.014(3)
N3 0.019(3) 0.054(4) 0.033(3) 0.000(3) -0.003(3) -0.008(3)
C1 0.021(3) 0.004(3) 0.041(4) 0.004(3) 0.007(3) 0.004(2)
C2 0.015(3) 0.019(3) 0.039(4) 0.000(3) -0.003(3) 0.008(3)
C3 0.019(3) 0.017(3) 0.031(4) -0.001(3) -0.006(3) 0.012(3)
C4 0.023(3) 0.031(3) 0.027(3) 0.002(3) -0.001(3) 0.011(3)
C5 0.028(4) 0.015(3) 0.040(4) -0.001(3) 0.000(3) 0.011(3)
C6 0.020(4) 0.016(3) 0.041(4) 0.000(3) -0.003(3) 0.013(3)
C7 0.026(3) 0.017(3) 0.024(3) -0.001(2) -0.002(3) 0.009(3)
C8 0.018(3) 0.010(3) 0.045(4) 0.004(3) -0.007(3) 0.009(3)
C9 0.022(4) 0.069(6) 0.030(4) 0.003(4) 0.003(3) 0.005(4)
C10 0.021(4) 0.040(4) 0.037(4) 0.003(3) 0.001(3) 0.014(3)
Cu1C 0.0073 0.0052 0.0297 0.0006 -0.0001 -0.0008
Cu1F 0.0073 0.0052 0.0297 -0.0006 0.0001 -0.0008
Cu1E 0.0073 0.0052 0.0297 0.0006 0.0001 0.0008
Cu1G 0.0073 0.0052 0.0297 0.0006 -0.0001 -0.0008
O2C 0.027 0.027 0.036 0.005 0 -0.016
O3F 0.027 0.017 0.036 0.0006 0.002 -0.016
O4E 0.017 0.023 0.042 -0.007 -0.002 0.015
N1G 0.017 0.024 0.027 -0.003 -0.004 0.003
loop_
_geom_bond_atom_site_label_1
_geom_bond_atom_site_label_2
_geom_bond_site_symmetry_1
_geom_bond_site_symmetry_2
Cu1 O1 1_555 1_555
O1 C1 1_555 1_555
O2 C1 1_555 1_555
O3 C3 1_555 1_555
O4 C3 1_555 1_555
N1 N3 1_555 1_555
N2 C4 1_555 1_555
N3 C9 1_555 1_555
C1 C2 1_555 1_555
C2 C6 1_555 1_555
C3 C8 1_555 1_555
C4 C5 1_555 1_555
C5 H1 1_555 1_555
C6 C4 1_555 1_555
H2 C6 1_555 1_555
C7 C2 1_555 1_555
H3 C7 1_555 1_555
C8 C5 1_555 1_555
C9 N2 1_555 1_555
H4 C9 1_555 1_555
C10 N1 1_555 1_555
H5 C10 1_555 1_555
Cu1C O2 1_555 1_555
Cu1F O3 1_555 1_555
Cu1E O4 1_555 1_555
Cu1G N1 1_555 1_555
O2C Cu1 1_555 1_555
O3F Cu1 1_555 1_555
O4E Cu1 1_555 1_555
N1G Cu1 1_555 1_555
N2 C10 1_555 1_555
C7 C8 1_555 1_555

#END
