
#######################################################################
#
#                 Cambridge Crystallographic Data Centre
#                                CCDC 
#
#######################################################################
#
# If this CIF has been generated from an entry in the Cambridge 
# Structural Database, then it will include bibliographic, chemical, 
# crystal, experimental, refinement or atomic coordinate data resulting 
# from the CCDC's data processing and validation procedures.
#
#######################################################################

data_UGEMOK
_chemical_name_common            DUT-109
_chemical_formula_moiety         '(C94 H94 Cu3 N8 O25)n'
_chemical_name_systematic        
catena-[bis(\m-4,4',4''-benzene-1,3,5-triyltris(2-[(t-butoxycarbonyl)amino]benzoato))-(2,2'-bipyridine)-aqua-tri-copper]
_symmetry_cell_setting           tetragonal
_symmetry_space_group_name_H-M   'I 41/a m d'
_symmetry_Int_Tables_number      141
_space_group_name_Hall           '-I 4bd 2'
loop_
_symmetry_equiv_pos_site_id
_symmetry_equiv_pos_as_xyz
1 x,y,z
2 1/2-x,-y,1/2+z
3 1/4-y,3/4+x,1/4+z
4 1/4+y,1/4-x,3/4+z
5 1/2-x,y,1/2-z
6 x,-y,-z
7 1/4+y,3/4+x,1/4-z
8 1/4-y,1/4-x,3/4-z
9 1/2+x,1/2+y,1/2+z
10 -x,1/2-y,z
11 3/4-y,1/4+x,3/4+z
12 3/4+y,3/4-x,1/4+z
13 -x,1/2+y,-z
14 1/2+x,1/2-y,1/2-z
15 3/4+y,1/4+x,3/4-z
16 3/4-y,3/4-x,1/4-z
17 -x,-y,-z
18 1/2+x,y,1/2-z
19 3/4+y,1/4-x,3/4-z
20 3/4-y,3/4+x,1/4-z
21 1/2+x,-y,1/2+z
22 -x,y,z
23 3/4-y,1/4-x,3/4+z
24 3/4+y,3/4+x,1/4+z
25 1/2-x,1/2-y,1/2-z
26 x,1/2+y,-z
27 1/4+y,3/4-x,1/4-z
28 1/4-y,1/4+x,3/4-z
29 x,1/2-y,z
30 1/2-x,1/2+y,1/2+z
31 1/4-y,3/4-x,1/4+z
32 1/4+y,1/4+x,3/4+z
_cell_length_a                   27.860(4)
_cell_length_b                   27.860(4)
_cell_length_c                   53.540(11)
_cell_angle_alpha                90
_cell_angle_beta                 90
_cell_angle_gamma                90
_cell_volume                     41556.7
_exptl_crystal_colour            blue
_exptl_crystal_description       block
_cell_formula_units_Z            8
_chemical_properties_physical    Moisture-sensitive
_exptl_crystal_recrystallization_method 'solvothermal synthesis'
loop_
_atom_site_label
_atom_site_type_symbol
_atom_site_fract_x
_atom_site_fract_y
_atom_site_fract_z
Cu1 Cu 0.79728(2) 0.7500 0.24924(2)
Cu2 Cu 0.5000 0.2500 0.14968(2)
O1 O 0.5000 0.2500 0.1875(2)
O2 O 0.54969(14) 0.29924(15) 0.14609(9)
O3 O 0.78782(11) 0.69996(12) 0.22367(7)
O4 O 0.70859(11) 0.70004(13) 0.22489(7)
C1 C 0.74807(15) 0.68440(19) 0.21668(10)
C2 C 0.74662(17) 0.6455(2) 0.19861(10)
C3 C 0.7879(2) 0.6249(3) 0.18901(19)
H1 H 0.8173 0.6363 0.1947
C4 C 0.7878(3) 0.5893(4) 0.17180(19)
H2 H 0.8169 0.5767 0.1664
C5 C 0.7463(2) 0.5717(2) 0.16227(13)
C6 C 0.7052(3) 0.5896(4) 0.17203(19)
H3 H 0.6759 0.5767 0.1671
C7 C 0.7058(2) 0.6263(4) 0.1891(2)
C8 C 0.7457(3) 0.5337(3) 0.14296(14)
C9 C 0.7817(2) 0.5317(2) 0.1250
H4 H 0.8053 0.5553 0.1250
C10 C 0.7105(3) 0.4976(3) 0.14286(15)
H5 H 0.6864 0.4978 0.1549
C11 C 0.7115(2) 0.4615(2) 0.1250
C12 C 0.6738(2) 0.4238(2) 0.1250
C13 C 0.6548(3) 0.4055(3) 0.10280(15)
H6 H 0.6662 0.4168 0.0876
C14 C 0.6201(3) 0.3717(3) 0.10297(16)
C15 C 0.6017(2) 0.3517(2) 0.1250
C16 C 0.5643(2) 0.3143(2) 0.1250
N1 N 0.87338(13) 0.7500 0.24833(10)
C17 C 0.97316(13) 0.7496(6) 0.24818(13)
N2 N 0.6032(11) 0.3629(16) 0.0776(5)
N3 N 0.6582(5) 0.6464(7) 0.1941(4)
C18 C 0.8982(3) 0.7906(4) 0.2492(3)
H7 H 0.8816 0.8196 0.2497
C19 C 0.9476(3) 0.7912(4) 0.2493(4)
H8 H 0.9637 0.8204 0.2501
O2F O 0.54924(15) 0.29969(14) 0.10391(9)
O3F O 0.94996(12) 0.53782(11) 0.02633(7)
O4F O 0.95004(13) 0.45859(11) 0.02511(7)
C1F C 0.93440(19) 0.49807(15) 0.03332(10)
C2F C 0.8955(2) 0.49662(17) 0.05139(10)
C3F C 0.8749(3) 0.5379(2) 0.06099(19)
H1F H 0.8863 0.5673 0.0553
C4F C 0.8393(4) 0.5378(3) 0.07820(19)
H2F H 0.8267 0.5669 0.0836
C5F C 0.8217(2) 0.4963(2) 0.08773(13)
C6F C 0.8396(4) 0.4552(3) 0.07797(19)
H3F H 0.8267 0.4259 0.0829
C7F C 0.8763(4) 0.4558(2) 0.0609(2)
C8F C 0.7837(3) 0.4957(3) 0.10704(14)
C10F C 0.7476(3) 0.4605(3) 0.10714(15)
H5F H 0.7478 0.4364 0.0951
C13F C 0.6555(3) 0.4048(3) 0.14720(15)
H6F H 0.6668 0.4162 0.1624
C14F C 0.6217(3) 0.3701(3) 0.14703(16)
N2F N 0.6129(16) 0.3532(11) 0.1724(5)
N3F N 0.8964(7) 0.4082(5) 0.0559(4)
N1I N 1.12662(13) 0.7500 0.24833(10)
C17I C 1.02684(13) 0.7504(6) 0.24818(13)
C18I C 1.1018(3) 0.7094(4) 0.2492(3)
H7I H 1.1184 0.6804 0.2497
C19I C 1.0524(3) 0.7088(4) 0.2493(4)
H8I H 1.0363 0.6796 0.2501
C18U C 1.1018(3) 0.7906(4) 0.2492(3)
H7U H 1.1184 0.8196 0.2497
C19U C 1.0524(3) 0.7912(4) 0.2493(4)
H8U H 1.0363 0.8204 0.2501
C18BA C 0.8982(3) 0.7094(4) 0.2492(3)
H7BA H 0.8816 0.6804 0.2497
C19BA C 0.9476(3) 0.7088(4) 0.2493(4)
H8BA H 0.9637 0.6796 0.2501
Cu1D Cu 0.70272(2) 0.7500 0.25076(2)
O2BA O 0.54969(14) 1.20076(15) 0.14609(9)
O3BA O 0.78782(11) 0.80004(12) 0.22367(7)
O4BA O 0.70859(11) 0.79996(13) 0.22489(7)
C1BA C 0.74807(15) 0.81560(19) 0.21668(10)
C2BA C 0.74662(17) 0.8545(2) 0.19861(10)
C3BA C 0.7879(2) 0.8751(3) 0.18901(19)
H1BA H 0.8173 0.8637 0.1947
C4BA C 0.7878(3) 0.9107(4) 0.17180(19)
H2BA H 0.8169 0.9233 0.1664
C5BA C 0.7463(2) 0.9283(2) 0.16227(13)
C6BA C 0.7052(3) 0.9104(4) 0.17203(19)
H3BA H 0.6759 0.9233 0.1671
C7BA C 0.7058(2) 0.8737(4) 0.1891(2)
C8BA C 0.7457(3) 0.9663(3) 0.14296(14)
C9Z C 0.7817(2) 0.9683(2) 0.1250
H4Z H 0.8053 0.9447 0.1250
C10BA C 0.7105(3) 1.0024(3) 0.14286(15)
H5BA H 0.6864 1.0022 0.1549
C11Z C 0.7115(2) 1.0385(2) 0.1250
C12Z C 0.6738(2) 1.0762(2) 0.1250
C13BA C 0.6548(3) 1.0945(3) 0.10280(15)
H6BA H 0.6662 1.0832 0.0876
C14BA C 0.6201(3) 1.1283(3) 0.10297(16)
C15Z C 0.6017(2) 1.1483(2) 0.1250
C16Z C 0.5643(2) 1.1857(2) 0.1250
N2BA N 0.6032(11) 1.1371(16) 0.0776(5)
N3BA N 0.6582(5) 0.8536(7) 0.1941(4)
O2Z O 0.54924(15) 1.20031(14) 0.10391(9)
O3Z O 0.94996(12) 0.96218(11) 0.02633(7)
O4Z O 0.95004(13) 1.04141(11) 0.02511(7)
C1Z C 0.93440(19) 1.00193(15) 0.03332(10)
C2Z C 0.8955(2) 1.00338(17) 0.05139(10)
C3Z C 0.8749(3) 0.9621(2) 0.06099(19)
H1Z H 0.8863 0.9327 0.0553
C4Z C 0.8393(4) 0.9622(3) 0.07820(19)
H2Z H 0.8267 0.9331 0.0836
C5Z C 0.8217(2) 1.0037(2) 0.08773(13)
C6Z C 0.8396(4) 1.0448(3) 0.07797(19)
H3Z H 0.8267 1.0741 0.0829
C7Z C 0.8763(4) 1.0442(2) 0.0609(2)
C8Z C 0.7837(3) 1.0043(3) 0.10704(14)
C10Z C 0.7476(3) 1.0395(3) 0.10714(15)
H5Z H 0.7478 1.0636 0.0951
C13Z C 0.6555(3) 1.0952(3) 0.14720(15)
H6Z H 0.6668 1.0838 0.1624
C14Z C 0.6217(3) 1.1299(3) 0.14703(16)
N2Z N 0.6129(16) 1.1468(11) 0.1724(5)
N3Z N 0.8964(7) 1.0918(5) 0.0559(4)
Cu1C Cu 1.0000 0.45272(2) -0.00076(2)
Cu1F Cu 1.0000 0.54728(2) 0.00076(2)
Cu1I Cu 1.20272(2) 0.7500 0.24924(2)
Cu1J Cu 1.0000 1.04728(2) -0.00076(2)
Cu1O Cu 1.0000 0.95272(2) 0.00076(2)
Cu2_2 Cu 0.5000 1.2500 0.14968(2)
Cu2F Cu 0.5000 0.2500 0.10032(2)
Cu2F_2 Cu 0.5000 1.2500 0.10032(2)
O2I O 0.45031(14) 0.20076(15) 0.14609(9)
O2U O 0.45031(14) 0.29924(15) 0.14609(9)
O2BA_2 O 0.54969(14) 0.20076(15) 0.14609(9)
O3D O 0.71218(11) 0.69996(12) 0.27633(7)
O3X O 0.71218(11) 0.80004(12) 0.27633(7)
O4D O 0.79141(11) 0.70004(13) 0.27511(7)
O4X O 0.79141(11) 0.79996(13) 0.27511(7)
N1D N 0.62662(13) 0.7500 0.25167(10)
C20? C 0.8980(2) 0.7313(5) 0.22787(14)
H9? H 0.8811 0.7192 0.2143
C21? C 0.9479(2) 0.7307(6) 0.22780(16)
H10? H 0.9644 0.7179 0.2143
C22? C 0.9485(2) 0.7669(6) 0.26863(14)
H11? H 0.9654 0.7783 0.2824
C23? C 0.8986(2) 0.7675(5) 0.26871(13)
H12? H 0.8822 0.7796 0.2824
loop_
_geom_bond_atom_site_label_1
_geom_bond_atom_site_label_2
_geom_bond_site_symmetry_1
_geom_bond_site_symmetry_2
Cu1 O3 1_555 1_555
Cu2 O1 1_555 1_555
O2 Cu2 1_555 1_555
O3 C1 1_555 1_555
O4 C1 1_555 1_555
C1 C2 1_555 1_555
C2 C3 1_555 1_555
C3 H1 1_555 1_555
C4 C3 1_555 1_555
H2 C4 1_555 1_555
C5 C4 1_555 1_555
C6 C5 1_555 1_555
H3 C6 1_555 1_555
C7 C2 1_555 1_555
C8 C5 1_555 1_555
C9 C8 1_555 1_555
H4 C9 1_555 1_555
C10 C8 1_555 1_555
H5 C10 1_555 1_555
C11 C10 1_555 1_555
C12 C11 1_555 1_555
C13 C12 1_555 1_555
H6 C13 1_555 1_555
C14 C13 1_555 1_555
C15 C14 1_555 1_555
C16 O2 1_555 1_555
N1 Cu1 1_555 1_555
C17 C19 1_555 1_555
N2 C14 1_555 1_555
N3 C7 1_555 1_555
C18 N1 1_555 1_555
H7 C18 1_555 1_555
C19 C18 1_555 1_555
H8 C19 1_555 1_555
O2F C16 1_555 1_555
O3F C1F 1_555 1_555
O4F C1F 1_555 1_555
C1F C2F 1_555 1_555
C2F C3F 1_555 1_555
C3F H1F 1_555 1_555
C4F C3F 1_555 1_555
H2F C4F 1_555 1_555
C5F C4F 1_555 1_555
C6F C5F 1_555 1_555
H3F C6F 1_555 1_555
C7F C2F 1_555 1_555
C8F C9 1_555 1_555
C10F C11 1_555 1_555
H5F C10F 1_555 1_555
C13F C12 1_555 1_555
H6F C13F 1_555 1_555
C14F C15 1_555 1_555
N2F C14F 1_555 1_555
N3F C7F 1_555 1_555
N1I C18I 1_555 1_555
C17I C17 1_555 1_555
C18I H7I 1_555 1_555
C19I C17I 1_555 1_555
H8I C19I 1_555 1_555
C18U N1I 1_555 1_555
H7U C18U 1_555 1_555
C19U C17I 1_555 1_555
H8U C19U 1_555 1_555
C18BA N1 1_555 1_555
H7BA C18BA 1_555 1_555
C19BA C17 1_555 1_555
H8BA C19BA 1_555 1_555
Cu1D Cu1 1_555 1_555
O2BA C16Z 1_555 1_555
O3BA Cu1 1_555 1_555
O4BA Cu1D 1_555 1_555
C1BA O3BA 1_555 1_555
C2BA C1BA 1_555 1_555
C3BA C2BA 1_555 1_555
H1BA C3BA 1_555 1_555
C4BA C3BA 1_555 1_555
H2BA C4BA 1_555 1_555
C5BA C4BA 1_555 1_555
C6BA C5BA 1_555 1_555
H3BA C6BA 1_555 1_555
C7BA C2BA 1_555 1_555
C8BA C5BA 1_555 1_555
C9Z C8BA 1_555 1_555
H4Z C9Z 1_555 1_555
C10BA C8BA 1_555 1_555
H5BA C10BA 1_555 1_555
C11Z C10BA 1_555 1_555
C12Z C11Z 1_555 1_555
C13BA C12Z 1_555 1_555
H6BA C13BA 1_555 1_555
C14BA C13BA 1_555 1_555
C15Z C14BA 1_555 1_555
C16Z C15Z 1_555 1_555
N2BA C14BA 1_555 1_555
N3BA C7BA 1_555 1_555
O2Z C16Z 1_555 1_555
O3Z C1Z 1_555 1_555
O4Z C1Z 1_555 1_555
C1Z C2Z 1_555 1_555
C2Z C3Z 1_555 1_555
C3Z H1Z 1_555 1_555
C4Z C3Z 1_555 1_555
H2Z C4Z 1_555 1_555
C5Z C4Z 1_555 1_555
C6Z C5Z 1_555 1_555
H3Z C6Z 1_555 1_555
C7Z C2Z 1_555 1_555
C8Z C9Z 1_555 1_555
C10Z C11Z 1_555 1_555
H5Z C10Z 1_555 1_555
C13Z C12Z 1_555 1_555
H6Z C13Z 1_555 1_555
C14Z C15Z 1_555 1_555
N2Z C14Z 1_555 1_555
N3Z C7Z 1_555 1_555
Cu1C O4F 1_555 1_555
Cu1F O3F 1_555 1_555
Cu1I N1I 1_555 1_555
Cu1J O4Z 1_555 1_555
Cu1O O3Z 1_555 1_555
Cu2_2 O2BA 1_555 1_555
Cu2F Cu2 1_555 1_555
Cu2F_2 O2Z 1_555 1_555
O2I Cu2 1_555 1_555
O2U Cu2 1_555 1_555
O2BA_2 Cu2 1_555 1_555
O3D Cu1D 1_555 1_555
O3X Cu1D 1_555 1_555
O4D Cu1 1_555 1_555
O4X Cu1 1_555 1_555
N1D Cu1D 1_555 1_555
O4 Cu1D 1_555 1_555
C6 C7 1_555 1_555
C15 C16 1_555 1_555
O2F Cu2F 1_555 1_555
C5F C8F 1_555 1_555
C6F C7F 1_555 1_555
C8F C10F 1_555 1_555
C13F C14F 1_555 1_555
C18I C19I 1_555 1_555
C18U C19U 1_555 1_555
C18BA C19BA 1_555 1_555
O4BA C1BA 1_555 1_555
C6BA C7BA 1_555 1_555
C5Z C8Z 1_555 1_555
C6Z C7Z 1_555 1_555
C8Z C10Z 1_555 1_555
C13Z C14Z 1_555 1_555
Cu1C Cu1F 1_555 1_555
Cu1J Cu1O 1_555 1_555
Cu2_2 Cu2F_2 1_555 1_555

#END
