
#######################################################################
#
#                 Cambridge Crystallographic Data Centre
#                                CCDC 
#
#######################################################################
#
# If this CIF has been generated from an entry in the Cambridge 
# Structural Database, then it will include bibliographic, chemical, 
# crystal, experimental, refinement or atomic coordinate data resulting 
# from the CCDC's data processing and validation procedures.
#
#######################################################################

data_UGEMIE
_chemical_formula_moiety         '(C42 H45 Cu1 N3 O13)n,2(C3 H7 N1 O1),H2 O1'
_chemical_name_systematic        
"catena-[(\m-hydrogen 4,4',4''-benzene-1,3,5-triyltris(2-[(t-butoxycarbonyl)amino]benzoato))-aqua-copper N,N-dimethylformamide solvate monohydrate]"
_symmetry_cell_setting           monoclinic
_symmetry_space_group_name_H-M   'P 21/n'
_symmetry_Int_Tables_number      14
_space_group_name_Hall           '-P 2yn'
loop_
_symmetry_equiv_pos_site_id
_symmetry_equiv_pos_as_xyz
1 x,y,z
2 1/2-x,1/2+y,1/2-z
3 -x,-y,-z
4 1/2+x,1/2-y,1/2+z
_cell_length_a                   9.6800(19)
_cell_length_b                   24.270(5)
_cell_length_c                   23.410(5)
_cell_angle_alpha                90
_cell_angle_beta                 90.07(3)
_cell_angle_gamma                90
_cell_volume                     5499.79
_exptl_crystal_colour            blue
_exptl_crystal_description       block
_cell_formula_units_Z            4
_chemical_properties_physical    Moisture-sensitive
_exptl_crystal_preparation       'solvothermal synthesis'
loop_
_atom_site_label
_atom_site_type_symbol
_atom_site_fract_x
_atom_site_fract_y
_atom_site_fract_z
_atom_site_U_iso_or_equiv
_atom_site_thermal_displace_type
Cu1 Cu 0.37966(3) -0.00959(2) 0.47484(2) 0.0246 Uani
O1 O 0.1228(3) 0.56024(11) 0.54002(15) 0.0864 Uani
H1 H 0.102(6) 0.5868(15) 0.560(2) 0.1040 Uiso
O2 O 0.2655(3) 0.62628(9) 0.51371(11) 0.0638 Uani
O3 O 0.4161(2) 0.06251(7) 0.43954(8) 0.0419 Uani
O4 O 0.8016(2) 0.47373(8) 0.04340(8) 0.0445 Uani
O5 O 0.6149(2) 0.07981(7) 0.48462(9) 0.0465 Uani
O6 O 1.0054(2) 0.45627(9) 0.08404(8) 0.0491 Uani
O7 O 0.1889(3) -0.02412(11) 0.43286(11) 0.0637 Uani
O8 O 0.6707(3) 0.59062(10) 0.39280(13) 0.0775 Uani
O9 O 0.6183(3) 0.66812(10) 0.44133(13) 0.0786 Uani
O10 O 1.0119(3) 0.29143(12) 0.20562(16) 0.0948 Uani
O11 O 1.1705(4) 0.31689(15) 0.14158(16) 0.1043 Uani
O12 O 0.5232(3) 0.13625(9) 0.24679(9) 0.0652 Uani
O13 O 0.4132(3) 0.05515(9) 0.26393(10) 0.0659 Uani
N1 N 0.4766(3) 0.59870(9) 0.44700(11) 0.0471 Uani
H2 H 0.435(3) 0.6199(13) 0.4706(13) 0.0560 Uiso
N2 N 0.9952(3) 0.37008(12) 0.15490(13) 0.0608 Uani
H3 H 1.039(4) 0.3851(16) 0.1280(13) 0.0730 Uiso
N3 N 0.4398(3) 0.11316(9) 0.33440(10) 0.0500 Uani
H4 H 0.415(4) 0.0853(11) 0.3548(14) 0.0600 Uiso
C1 C 0.5969(3) 0.32524(10) 0.30604(11) 0.0359 Uani
H5 H 0.6354 0.2975 0.2837 0.0430 Uiso
C2 C 0.5374(3) 0.31227(9) 0.35862(10) 0.0331 Uani
C3 C 0.4788(3) 0.35378(9) 0.39127(10) 0.0345 Uani
H6 H 0.4392 0.3449 0.4263 0.0410 Uiso
C4 C 0.4777(3) 0.40853(9) 0.37300(10) 0.0330 Uani
C5 C 0.5386(3) 0.42059(9) 0.32030(11) 0.0356 Uani
H7 H 0.5388 0.4568 0.3073 0.0430 Uiso
C6 C 0.5987(3) 0.37986(10) 0.28687(11) 0.0357 Uani
C7 C 0.6664(3) 0.39503(9) 0.23202(11) 0.0377 Uani
C8 C 0.6041(3) 0.43316(12) 0.19535(12) 0.0469 Uani
H8 H 0.5167 0.4469 0.2035 0.0560 Uiso
C9 C 0.6730(3) 0.45014(11) 0.14710(12) 0.0453 Uani
H9 H 0.6309 0.4755 0.1229 0.0540 Uiso
C10 C 0.7936(3) 0.37328(10) 0.21763(11) 0.0403 Uani
H10 H 0.8326 0.3463 0.2408 0.0480 Uiso
C11 C 0.8647(3) 0.39068(10) 0.16940(11) 0.0387 Uani
C12 C 0.4148(3) 0.45241(9) 0.40849(10) 0.0332 Uani
C13 C 0.2941(3) 0.44228(10) 0.43930(12) 0.0408 Uani
H11 H 0.2522 0.4079 0.4375 0.0490 Uiso
C14 C 0.2374(3) 0.48336(11) 0.47235(12) 0.0414 Uani
H12 H 0.1578 0.4760 0.4932 0.0500 Uiso
C15 C 0.2961(3) 0.53570(10) 0.47535(11) 0.0353 Uani
C16 C 0.4169(3) 0.54619(10) 0.44389(10) 0.0332 Uani
C17 C 0.4751(3) 0.50409(10) 0.41113(11) 0.0346 Uani
H13 H 0.5558 0.5109 0.3908 0.0420 Uiso
C18 C 0.2286(3) 0.57851(12) 0.51111(13) 0.0453 Uani
C19 C 0.5373(3) 0.25466(9) 0.38048(10) 0.0330 Uani
C20 C 0.4968(3) 0.21108(10) 0.34593(10) 0.0354 Uani
H14 H 0.4755 0.2175 0.3078 0.0430 Uiso
C21 C 0.4878(3) 0.15760(9) 0.36788(10) 0.0341 Uani
C22 C 0.5258(3) 0.14813(9) 0.42461(10) 0.0322 Uani
C23 C 0.5711(3) 0.19161(10) 0.45815(10) 0.0392 Uani
H15 H 0.5993 0.1849 0.4955 0.0470 Uiso
C24 C 0.5751(3) 0.24470(10) 0.43709(11) 0.0393 Uani
H16 H 0.6028 0.2737 0.4605 0.0470 Uiso
C25 C 0.5192(3) 0.09231(9) 0.45154(9) 0.0310 Uani
C26 C 0.8754(3) 0.45493(9) 0.08299(10) 0.0343 Uani
C27 C 0.8036(3) 0.43054(9) 0.13353(10) 0.0364 Uani
C28 C 0.4659(4) 0.10476(11) 0.27802(12) 0.0454 Uani
C29 C 1.0547(4) 0.32273(14) 0.17173(15) 0.0559 Uani
C30 C 0.5969(4) 0.61608(12) 0.42387(14) 0.0513 Uani
C31 C 0.4399(5) 0.02901(16) 0.20827(15) 0.0710 Uani
C32 C 0.3817(8) 0.0635(2) 0.1611(2) 0.1167 Uani
H17 H 0.2856 0.0703 0.1682 0.1750 Uiso
H18 H 0.3920 0.0445 0.1255 0.1750 Uiso
H19 H 0.4304 0.0980 0.1595 0.1750 Uiso
C33 C 0.5922(7) 0.0201(2) 0.2014(3) 0.1113 Uani
H20 H 0.6373 0.0550 0.1961 0.1670 Uiso
H21 H 0.6087 -0.0028 0.1687 0.1670 Uiso
H22 H 0.6283 0.0025 0.2350 0.1670 Uiso
C34 C 0.3638(7) -0.0256(2) 0.2145(2) 0.1103 Uani
H23 H 0.4025 -0.0460 0.2458 0.1660 Uiso
H24 H 0.3731 -0.0465 0.1799 0.1660 Uiso
H25 H 0.2677 -0.0187 0.2217 0.1660 Uiso
C35 C 0.7483(5) 0.69709(17) 0.4257(2) 0.0810 Uani
C36 C 0.7593(6) 0.7028(2) 0.3617(2) 0.0966 Uani
H26 H 0.8267 0.7304 0.3525 0.1450 Uiso
H27 H 0.6712 0.7134 0.3463 0.1450 Uiso
H28 H 0.7869 0.6682 0.3454 0.1450 Uiso
C37 C 0.8675(6) 0.6669(3) 0.4507(3) 0.1223 Uani
H29 H 0.8500 0.6597 0.4904 0.1830 Uiso
H30 H 0.9495 0.6888 0.4471 0.1830 Uiso
H31 H 0.8799 0.6327 0.4309 0.1830 Uiso
C38 C 0.7211(8) 0.7540(3) 0.4509(4) 0.1556 Uani
H32 H 0.7165 0.7514 0.4918 0.2340 Uiso
H33 H 0.6351 0.7680 0.4364 0.2340 Uiso
H34 H 0.7946 0.7785 0.4403 0.2340 Uiso
C39 C 1.2649(6) 0.2699(3) 0.1471(3) 0.1107 Uani
C40 C 1.3220(10) 0.2657(5) 0.2022(3) 0.2210 Uani
H35 H 1.3294 0.3017 0.2188 0.3320 Uiso
H36 H 1.4121 0.2493 0.1999 0.3320 Uiso
H37 H 1.2635 0.2431 0.2256 0.3320 Uiso
C41 C 1.1897(11) 0.2204(4) 0.1276(7) 0.2674 Uani
H38 H 1.1535 0.2011 0.1601 0.4010 Uiso
H39 H 1.2516 0.1968 0.1070 0.4010 Uiso
H40 H 1.1150 0.2312 0.1030 0.4010 Uiso
C42 C 1.3765(11) 0.2854(6) 0.1044(5) 0.2646 Uani
H41 H 1.4657 0.2783 0.1208 0.3970 Uiso
H42 H 1.3689 0.3239 0.0953 0.3970 Uiso
H43 H 1.3654 0.2640 0.0703 0.3970 Uiso
Cu1A Cu 1.12034(3) 0.49041(2) 0.02516(2) 0.0246 Uani
Cu1B Cu 0.62034(3) 0.00959(2) 0.52516(2) 0.0246 Uani
Cu1C Cu 0.87966(3) 0.50959(2) -0.02516(2) 0.0246 Uani
O4C O 0.3016(2) 0.02627(8) 0.54340(8) 0.0445 Uani
O5B O 0.3851(2) -0.07981(7) 0.51538(9) 0.0465 Uani
O6A O 0.4946(2) -0.04373(9) 0.41596(8) 0.0491 Uani
O14 O 0.0029(4) 0.36597(16) 0.40093(18) 0.1096 Uani
N4 N 0.0078(5) 0.2822(2) 0.3668(3) 0.1386 Uani
C43 C 0.1474(7) 0.2847(5) 0.3496(5) 0.2136 Uani
H44 H 0.1520 0.2928 0.3095 0.3200 Uiso
H45 H 0.1911 0.2499 0.3569 0.3200 Uiso
H46 H 0.1941 0.3131 0.3707 0.3200 Uiso
C44 C -0.0518(5) 0.3244(2) 0.3913(3) 0.1070 Uani
H47 H -0.1441 0.3209 0.4017 0.1280 Uiso
C45 C -0.0713(10) 0.2361(4) 0.3437(7) 0.2330 Uani
H48 H -0.1681 0.2443 0.3459 0.3500 Uiso
H49 H -0.0519 0.2035 0.3655 0.3500 Uiso
H50 H -0.0458 0.2302 0.3046 0.3500 Uiso
O15 O 1.0581(6) 0.0568(2) 0.3736(3) 0.1774 Uani
N5 N 0.9526(7) 0.0925(2) 0.3001(3) 0.1214 Uani
C46 C 0.9693(19) 0.1047(6) 0.2431(5) 0.2867 Uani
H51 H 1.0660 0.1079 0.2346 0.4310 Uiso
H52 H 0.9239 0.1390 0.2346 0.4310 Uiso
H53 H 0.9296 0.0759 0.2203 0.4310 Uiso
C47 C 0.8199(9) 0.0982(3) 0.3274(6) 0.1880 Uani
H54 H 0.7606 0.0686 0.3156 0.2820 Uiso
H55 H 0.7793 0.1328 0.3168 0.2820 Uiso
H56 H 0.8316 0.0969 0.3681 0.2820 Uiso
C48 C 1.0587(9) 0.0729(3) 0.3262(4) 0.1451 Uani
H57 H 1.1416 0.0713 0.3062 0.1740 Uiso
O16 O -0.0080(8) -0.0847(4) 0.4886(4) 0.2324 Uani
loop_
_atom_site_aniso_label
_atom_site_aniso_U_11
_atom_site_aniso_U_22
_atom_site_aniso_U_33
_atom_site_aniso_U_23
_atom_site_aniso_U_13
_atom_site_aniso_U_12
Cu1 0.0399(2) 0.01485(16) 0.01922(16) 0.00128(9) 0.00866(12) -0.00058(10)
O1 0.092(2) 0.0574(15) 0.110(2) -0.0309(15) 0.0682(18) -0.0193(14)
O2 0.0665(15) 0.0434(12) 0.0817(16) -0.0253(11) 0.0290(13) -0.0107(10)
O3 0.0593(13) 0.0253(8) 0.0411(10) 0.0160(7) -0.0002(9) -0.0082(8)
O4 0.0542(13) 0.0472(11) 0.0322(9) 0.0144(8) 0.0170(9) 0.0010(9)
O5 0.0669(15) 0.0219(8) 0.0506(11) 0.0147(8) -0.0096(10) -0.0069(8)
O6 0.0513(14) 0.0562(12) 0.0399(10) 0.0229(9) 0.0152(9) -0.0040(9)
O7 0.0557(16) 0.0661(15) 0.0692(15) 0.0046(12) -0.0245(12) -0.0117(11)
O8 0.0839(18) 0.0486(13) 0.100(2) -0.0167(13) 0.0541(17) -0.0219(12)
O9 0.0770(18) 0.0490(13) 0.110(2) -0.0297(14) 0.0472(16) -0.0341(12)
O10 0.092(2) 0.0674(17) 0.125(3) 0.0539(18) 0.042(2) 0.0385(15)
O11 0.088(2) 0.116(3) 0.109(2) 0.035(2) 0.042(2) 0.066(2)
O12 0.110(2) 0.0475(12) 0.0380(11) -0.0017(10) 0.0153(12) -0.0156(13)
O13 0.108(2) 0.0452(12) 0.0444(12) -0.0106(10) -0.0025(12) -0.0239(12)
N1 0.0529(15) 0.0297(11) 0.0586(15) -0.0113(10) 0.0199(12) -0.0098(10)
N2 0.0658(19) 0.0561(16) 0.0605(16) 0.0285(13) 0.0352(15) 0.0232(13)
N3 0.091(2) 0.0278(11) 0.0311(11) 0.0050(9) 0.0000(12) -0.0188(12)
C1 0.0535(17) 0.0207(11) 0.0334(12) 0.0069(9) 0.0136(11) 0.0015(10)
C2 0.0478(16) 0.0205(11) 0.0309(12) 0.0091(9) 0.0068(11) -0.0031(9)
C3 0.0528(17) 0.0237(11) 0.0271(11) 0.0084(9) 0.0116(11) -0.0050(10)
C4 0.0462(15) 0.0213(11) 0.0315(12) 0.0069(9) 0.0098(11) -0.0017(9)
C5 0.0533(17) 0.0193(10) 0.0343(12) 0.0117(9) 0.0142(12) 0.0003(10)
C6 0.0508(16) 0.0232(11) 0.0330(12) 0.0111(9) 0.0146(11) 0.0005(10)
C7 0.0582(17) 0.0213(11) 0.0336(12) 0.0102(9) 0.0181(12) 0.0010(10)
C8 0.0569(19) 0.0407(14) 0.0432(15) 0.0192(12) 0.0233(14) 0.0160(13)
C9 0.0615(19) 0.0364(14) 0.0379(14) 0.0190(11) 0.0186(13) 0.0149(12)
C10 0.0576(18) 0.0247(12) 0.0387(13) 0.0136(10) 0.0164(13) 0.0088(11)
C11 0.0527(17) 0.0253(11) 0.0382(13) 0.0090(10) 0.0175(12) 0.0074(11)
C12 0.0480(16) 0.0238(11) 0.0279(11) 0.0074(9) 0.0080(11) 0.0006(10)
C13 0.0549(18) 0.0259(12) 0.0417(14) 0.0035(10) 0.0173(13) -0.0073(11)
C14 0.0489(18) 0.0344(13) 0.0410(14) 0.0027(11) 0.0162(13) -0.0071(11)
C15 0.0431(16) 0.0326(12) 0.0303(12) -0.0006(10) 0.0059(11) -0.0007(10)
C16 0.0400(15) 0.0271(11) 0.0326(12) 0.0031(9) 0.0041(11) -0.0037(10)
C17 0.0442(16) 0.0257(11) 0.0340(13) 0.0044(9) 0.0106(11) -0.0026(10)
C18 0.0462(18) 0.0441(16) 0.0455(15) -0.0081(12) 0.0106(13) -0.0022(12)
C19 0.0491(16) 0.0196(11) 0.0302(11) 0.0086(9) 0.0121(11) -0.0017(9)
C20 0.0571(18) 0.0253(11) 0.0238(11) 0.0076(9) 0.0060(11) -0.0024(10)
C21 0.0535(17) 0.0212(11) 0.0276(11) 0.0029(9) 0.0069(11) -0.0045(10)
C22 0.0514(16) 0.0179(10) 0.0272(11) 0.0055(9) 0.0096(11) -0.0008(9)
C23 0.069(2) 0.0231(11) 0.0254(11) 0.0058(9) 0.0015(12) -0.0029(11)
C24 0.069(2) 0.0184(11) 0.0305(12) 0.0019(9) 0.0046(12) -0.0058(11)
C25 0.0527(17) 0.0167(10) 0.0236(11) 0.0030(8) 0.0104(11) -0.0012(10)
C26 0.0583(18) 0.0183(10) 0.0264(11) 0.0025(9) 0.0160(12) 0.0021(10)
C27 0.0579(17) 0.0218(11) 0.0294(12) 0.0065(9) 0.0181(12) 0.0042(10)
C28 0.070(2) 0.0317(13) 0.0344(13) 0.0015(11) -0.0054(13) -0.0045(13)
C29 0.061(2) 0.0485(17) 0.0581(18) 0.0089(15) 0.0127(16) 0.0193(15)
C30 0.059(2) 0.0370(14) 0.0578(18) -0.0070(13) 0.0197(16) -0.0138(13)
C31 0.106(4) 0.057(2) 0.0499(19) -0.0212(16) -0.014(2) -0.004(2)
C32 0.187(7) 0.106(4) 0.057(2) -0.018(3) -0.046(3) 0.007(4)
C33 0.122(5) 0.089(4) 0.123(5) -0.042(3) 0.012(4) 0.008(3)
C34 0.165(6) 0.070(3) 0.096(4) -0.038(3) -0.014(4) -0.034(3)
C35 0.075(3) 0.066(2) 0.102(3) -0.019(2) 0.036(3) -0.042(2)
C36 0.098(4) 0.073(3) 0.119(4) 0.013(3) 0.033(3) -0.032(2)
C37 0.084(4) 0.149(6) 0.134(5) 0.037(4) -0.003(4) -0.062(4)
C38 0.167(6) 0.098(4) 0.202(7) -0.079(4) 0.102(6) -0.095(4)
C39 0.096(4) 0.121(5) 0.115(4) 0.003(3) 0.012(3) 0.078(4)
C40 0.199(10) 0.350(15) 0.114(5) -0.019(7) -0.040(6) 0.194(11)
C41 0.173(9) 0.139(7) 0.49(2) -0.147(11) -0.073(12) 0.093(7)
C42 0.185(9) 0.366(17) 0.243(11) 0.084(11) 0.114(9) 0.207(11)
Cu1A 0.0399 0.01485 0.01922 -0.00128 0.00866 0.00058
Cu1B 0.0399 0.01485 0.01922 0.00128 0.00866 -0.00058
Cu1C 0.0399 0.01485 0.01922 -0.00128 0.00866 0.00058
O4C 0.0542 0.0472 0.0322 -0.0144 0.017 -0.001
O5B 0.0669 0.0219 0.0506 0.0147 -0.0096 -0.0069
O6A 0.0513 0.0562 0.0399 -0.0229 0.0152 0.004
O14 0.096(2) 0.100(2) 0.133(3) -0.057(2) 0.055(2) -0.020(2)
N4 0.082(3) 0.121(4) 0.213(6) -0.099(4) 0.036(4) -0.007(3)
C43 0.091(5) 0.296(12) 0.254(11) -0.183(10) 0.052(6) 0.002(6)
C44 0.069(3) 0.110(4) 0.142(5) -0.060(4) 0.030(3) -0.006(3)
C45 0.149(8) 0.157(8) 0.393(19) -0.143(10) 0.040(10) -0.023(6)
O15 0.156(5) 0.148(4) 0.228(7) 0.089(5) -0.093(5) -0.029(4)
N5 0.129(5) 0.103(4) 0.132(4) 0.000(3) -0.050(4) 0.023(3)
C46 0.42(3) 0.300(18) 0.140(9) -0.021(10) -0.054(13) 0.050(17)
C47 0.104(6) 0.119(6) 0.341(15) -0.028(7) -0.034(8) 0.016(4)
C48 0.135(7) 0.104(5) 0.196(8) 0.035(5) -0.069(6) -0.005(4)
O16 0.205(8) 0.275(10) 0.217(8) -0.002(7) -0.045(7) 0.036(6)
loop_
_geom_bond_atom_site_label_1
_geom_bond_atom_site_label_2
_geom_bond_site_symmetry_1
_geom_bond_site_symmetry_2
Cu1 O3 1_555 1_555
O1 H1 1_555 1_555
O2 C18 1_555 1_555
O3 C25 1_555 1_555
O4 C26 1_555 1_555
O5 C25 1_555 1_555
O6 C26 1_555 1_555
O7 Cu1 1_555 1_555
O8 C30 1_555 1_555
O9 C30 1_555 1_555
O10 C29 1_555 1_555
O11 C29 1_555 1_555
O12 C28 1_555 1_555
O13 C28 1_555 1_555
N1 H2 1_555 1_555
N2 H3 1_555 1_555
N3 H4 1_555 1_555
C1 H5 1_555 1_555
C2 C1 1_555 1_555
C3 C2 1_555 1_555
H6 C3 1_555 1_555
C4 C3 1_555 1_555
C5 C4 1_555 1_555
H7 C5 1_555 1_555
C6 C1 1_555 1_555
C7 C6 1_555 1_555
C8 C7 1_555 1_555
H8 C8 1_555 1_555
C9 C8 1_555 1_555
H9 C9 1_555 1_555
C10 C7 1_555 1_555
H10 C10 1_555 1_555
C11 N2 1_555 1_555
C12 C4 1_555 1_555
C13 C12 1_555 1_555
H11 C13 1_555 1_555
C14 C13 1_555 1_555
H12 C14 1_555 1_555
C15 C14 1_555 1_555
C16 N1 1_555 1_555
C17 C12 1_555 1_555
H13 C17 1_555 1_555
C18 O1 1_555 1_555
C19 C2 1_555 1_555
C20 C19 1_555 1_555
H14 C20 1_555 1_555
C21 N3 1_555 1_555
C22 C21 1_555 1_555
C23 C22 1_555 1_555
H15 C23 1_555 1_555
C24 C19 1_555 1_555
H16 C24 1_555 1_555
C25 C22 1_555 1_555
C26 C27 1_555 1_555
C27 C9 1_555 1_555
C28 N3 1_555 1_555
C29 N2 1_555 1_555
C30 N1 1_555 1_555
C31 O13 1_555 1_555
C32 C31 1_555 1_555
H17 C32 1_555 1_555
H18 C32 1_555 1_555
H19 C32 1_555 1_555
C33 C31 1_555 1_555
H20 C33 1_555 1_555
H21 C33 1_555 1_555
H22 C33 1_555 1_555
C34 C31 1_555 1_555
H23 C34 1_555 1_555
H24 C34 1_555 1_555
H25 C34 1_555 1_555
C35 O9 1_555 1_555
C36 C35 1_555 1_555
H26 C36 1_555 1_555
H27 C36 1_555 1_555
H28 C36 1_555 1_555
C37 C35 1_555 1_555
H29 C37 1_555 1_555
H30 C37 1_555 1_555
H31 C37 1_555 1_555
C38 C35 1_555 1_555
H32 C38 1_555 1_555
H33 C38 1_555 1_555
H34 C38 1_555 1_555
C39 O11 1_555 1_555
C40 C39 1_555 1_555
H35 C40 1_555 1_555
H36 C40 1_555 1_555
H37 C40 1_555 1_555
C41 C39 1_555 1_555
H38 C41 1_555 1_555
H39 C41 1_555 1_555
H40 C41 1_555 1_555
C42 C39 1_555 1_555
H41 C42 1_555 1_555
H42 C42 1_555 1_555
H43 C42 1_555 1_555
O14 C44 1_555 1_555
N4 C43 1_555 1_555
C43 H44 1_555 1_555
H45 C43 1_555 1_555
H46 C43 1_555 1_555
C44 N4 1_555 1_555
H47 C44 1_555 1_555
C45 N4 1_555 1_555
H48 C45 1_555 1_555
H49 C45 1_555 1_555
H50 C45 1_555 1_555
O15 C48 1_555 1_555
N5 C46 1_555 1_555
C46 H51 1_555 1_555
H52 C46 1_555 1_555
H53 C46 1_555 1_555
C47 N5 1_555 1_555
H54 C47 1_555 1_555
H55 C47 1_555 1_555
H56 C47 1_555 1_555
C48 N5 1_555 1_555
H57 C48 1_555 1_555
Cu1A O6 1_555 1_555
Cu1B Cu1 1_555 1_555
Cu1C O4 1_555 1_555
O4C Cu1 1_555 1_555
O5B Cu1 1_555 1_555
O6A Cu1 1_555 1_555
O5 Cu1B 1_555 1_555
C5 C6 1_555 1_555
C10 C11 1_555 1_555
C11 C27 1_555 1_555
C15 C16 1_555 1_555
C15 C18 1_555 1_555
C16 C17 1_555 1_555
C20 C21 1_555 1_555
C23 C24 1_555 1_555
Cu1A Cu1C 1_555 1_555

#END
