
#######################################################################
#
#                 Cambridge Crystallographic Data Centre
#                                CCDC 
#
#######################################################################
#
# If this CIF has been generated from an entry in the Cambridge 
# Structural Database, then it will include bibliographic, chemical, 
# crystal, experimental, refinement or atomic coordinate data resulting 
# from the CCDC's data processing and validation procedures.
#
#######################################################################

data_WUNTIK
_chemical_name_common            446-MOF
_chemical_formula_moiety         
'(C116 H76 N44 O25 Zn8 2-)n,2(C2 H8 N1 1+),24(C3 H7 N1 O1),16(H2 O1)'
_chemical_name_systematic        
"catena-[bis(dimethylammonium) tetrakis(\m~4~-6-amino-9H-purin-9-yl)-(\m~4~-oxido)-tetrakis(\m~3~-4,4',4''-(1,3,5-triazine-2,4,6-triyltriimino)tribenzoato)-octa-zinc N,N-dimethylformamide solvate hexadecahydrate]"
_symmetry_cell_setting           hexagonal
_symmetry_space_group_name_H-M   'P 6 2 2'
_symmetry_Int_Tables_number      177
_space_group_name_Hall           'P 6 2'
loop_
_symmetry_equiv_pos_site_id
_symmetry_equiv_pos_as_xyz
1 x,y,z
2 -y,x-y,z
3 -x+y,-x,z
4 -x,-y,z
5 y,-x+y,z
6 x-y,x,z
7 y,x,-z
8 x-y,-y,-z
9 -x,-x+y,-z
10 -y,-x,-z
11 -x+y,y,-z
12 x,x-y,-z
_cell_length_a                   45.0341(7)
_cell_length_b                   45.0341(7)
_cell_length_c                   11.1258(3)
_cell_angle_alpha                90
_cell_angle_beta                 90
_cell_angle_gamma                120
_cell_volume                     19540.9
_exptl_crystal_colour            colorless
_exptl_crystal_description       hexagonal-prism
_cell_formula_units_Z            3
loop_
_atom_site_label
_atom_site_type_symbol
_atom_site_fract_x
_atom_site_fract_y
_atom_site_fract_z
Zn1 Zn 0.48924(2) 0.461545(19) 0.60677(7)
Zn2 Zn 0.561391(11) 0.438609(11) 1.0000
Zn3 Zn 0.60572(2) 0.60572(2) 1.0000
O1 O 0.47667(19) 0.39616(19) 0.6695(7)
O2 O 0.46987(15) 0.42069(15) 0.5100(7)
O3 O 0.37433(15) 0.03661(15) -0.0691(5)
O4 O 0.40150(13) 0.04093(13) 0.0967(5)
O5 O 0.53367(12) 0.13971(12) 0.0711(4)
O6 O 0.5798(3) 0.1753(2) 0.1654(9)
O7 O 0.5000 0.5000 0.5000
N1 N 0.43828(19) 0.24838(19) 0.3392(7)
N2 N 0.3826(2) 0.2141(2) 0.2541(8)
N3 N 0.4221(2) 0.1926(2) 0.2569(7)
N4 N 0.3986(2) 0.2665(2) 0.3286(8)
H1 H 0.3790 0.2623 0.3012
N5 N 0.3684(2) 0.1618(2) 0.1729(9)
H2 H 0.3490 0.1602 0.1567
N6 N 0.47751(18) 0.22884(18) 0.3270(6)
H3 H 0.4900 0.2462 0.3721
C1 C 0.4076(3) 0.2416(2) 0.3126(9)
C2 C 0.3918(3) 0.1906(3) 0.2322(9)
C3 C 0.4459(2) 0.2231(3) 0.3070(8)
C4 C 0.4193(2) 0.2988(2) 0.3872(9)
C5 C 0.4172(3) 0.3265(3) 0.3362(10)
H4 H 0.4057 0.3237 0.2640
C6 C 0.4326(2) 0.3578(2) 0.3948(9)
H5 H 0.4303 0.3758 0.3650
C7 C 0.4514(2) 0.36194(19) 0.4993(9)
C8 C 0.4532(2) 0.3338(2) 0.5451(8)
H6 H 0.4652 0.3361 0.6158
C9 C 0.4371(2) 0.3028(2) 0.4850(9)
H7 H 0.4390 0.2844 0.5144
C10 C 0.4668(2) 0.3945(2) 0.5658(8)
C11 C 0.3730(3) 0.1340(3) 0.1349(9)
C12 C 0.3620(2) 0.1203(2) 0.0281(9)
H8 H 0.3514 0.1290 -0.0214
C13 C 0.3659(2) 0.0925(2) -0.0127(10)
H9 H 0.3589 0.0834 -0.0893
C14 C 0.3809(2) 0.0791(2) 0.0663(7)
C15 C 0.3917(2) 0.0936(2) 0.1784(8)
H10 H 0.4018 0.0850 0.2302
C16 C 0.3879(3) 0.1209(3) 0.2152(10)
H11 H 0.3949 0.1303 0.2914
C17 C 0.38562(19) 0.05065(19) 0.0269(6)
C18 C 0.4936(2) 0.2111(2) 0.2862(8)
C19 C 0.4757(3) 0.1802(3) 0.2212(10)
H12 H 0.4522 0.1696 0.2094
C20 C 0.4946(3) 0.1662(3) 0.1756(9)
H13 H 0.4832 0.1462 0.1306
C21 C 0.5289(2) 0.1800(2) 0.1928(7)
C22 C 0.5452(4) 0.2088(3) 0.2652(12)
H14 H 0.5683 0.2179 0.2841
C23 C 0.5270(3) 0.2243(3) 0.3101(11)
H15 H 0.5383 0.2440 0.3570
C24 C 0.5480(2) 0.1643(2) 0.1418(7)
C25 C 0.54835(19) 0.51770(19) 0.7622(6)
N7 N 0.53179(19) 0.4828(2) 0.7370(6)
C26 C 0.5386(2) 0.46115(15) 0.8060(8)
H16 H 0.5275 0.4378 0.7891
N8 N 0.5620(2) 0.47440(18) 0.9001(8)
C27 C 0.57855(18) 0.50929(19) 0.9252(6)
C28 C 0.5717(2) 0.53094(15) 0.8563(7)
C29 C 0.5652(4) 0.5668(5) 0.7814(19)
H17 H 0.5676 0.5881 0.7651
N9 N 0.5832(3) 0.5652(3) 0.8675(12)
N10 N 0.5435(3) 0.5410(3) 0.7140(10)
N11 N 0.6005(4) 0.5216(4) 1.0191(14)
H18 H 0.6041 0.5079 1.0624
H19 H 0.6109 0.5431 1.0354
Zn1C Zn 0.51076(2) 0.538455(19) 0.60677(7)
Zn2C Zn 0.438609(11) 0.561391(11) 1.0000
Zn3C Zn 0.39428(2) 0.39428(2) 1.0000
O1C O 0.52333(19) 0.60384(19) 0.6695(7)
O2C O 0.53013(15) 0.57931(15) 0.5100(7)
O3C O 0.62567(15) 0.96339(15) -0.0691(5)
O4C O 0.59850(13) 0.95907(13) 0.0967(5)
O5C O 0.46633(12) 0.86029(12) 0.0711(4)
O6C O 0.4202(3) 0.8247(2) 0.1654(9)
N1C N 0.56172(19) 0.75162(19) 0.3392(7)
N2C N 0.6174(2) 0.7859(2) 0.2541(8)
N3C N 0.5779(2) 0.8074(2) 0.2569(7)
N4C N 0.6014(2) 0.7335(2) 0.3286(8)
H1C H 0.6210 0.7377 0.3012
N5C N 0.6316(2) 0.8382(2) 0.1729(9)
H2C H 0.6510 0.8398 0.1567
N6C N 0.52249(18) 0.77116(18) 0.3270(6)
H3C H 0.5100 0.7538 0.3721
C1C C 0.5924(3) 0.7584(2) 0.3126(9)
C2C C 0.6082(3) 0.8094(3) 0.2322(9)
C3C C 0.5541(2) 0.7769(3) 0.3070(8)
C4C C 0.5807(2) 0.7012(2) 0.3872(9)
C5C C 0.5828(3) 0.6735(3) 0.3362(10)
H4C H 0.5943 0.6763 0.2640
C6C C 0.5674(2) 0.6422(2) 0.3948(9)
H5C H 0.5697 0.6242 0.3650
C7C C 0.5486(2) 0.63806(19) 0.4993(9)
C8C C 0.5468(2) 0.6662(2) 0.5451(8)
H6C H 0.5348 0.6639 0.6158
C9C C 0.5629(2) 0.6972(2) 0.4850(9)
H7C H 0.5610 0.7156 0.5144
C10C C 0.5332(2) 0.6055(2) 0.5658(8)
C11C C 0.6270(3) 0.8660(3) 0.1349(9)
C12C C 0.6380(2) 0.8797(2) 0.0281(9)
H8C H 0.6486 0.8710 -0.0214
C13C C 0.6341(2) 0.9075(2) -0.0127(10)
H9C H 0.6411 0.9166 -0.0893
C14C C 0.6191(2) 0.9209(2) 0.0663(7)
C15C C 0.6083(2) 0.9064(2) 0.1784(8)
H10C H 0.5982 0.9150 0.2302
C16C C 0.6121(3) 0.8791(3) 0.2152(10)
H11C H 0.6051 0.8697 0.2914
C17C C 0.61438(19) 0.94935(19) 0.0269(6)
C18C C 0.5064(2) 0.7889(2) 0.2862(8)
C19C C 0.5243(3) 0.8198(3) 0.2212(10)
H12C H 0.5478 0.8304 0.2094
C20C C 0.5054(3) 0.8338(3) 0.1756(9)
H13C H 0.5168 0.8538 0.1306
C21C C 0.4711(2) 0.8200(2) 0.1928(7)
C22C C 0.4548(4) 0.7912(3) 0.2652(12)
H14C H 0.4317 0.7821 0.2841
C23C C 0.4730(3) 0.7757(3) 0.3101(11)
H15C H 0.4617 0.7560 0.3570
C24C C 0.4520(2) 0.8357(2) 0.1418(7)
C25C C 0.45165(19) 0.48230(19) 0.7622(6)
N7C N 0.46821(19) 0.5172(2) 0.7370(6)
C26C C 0.4614(2) 0.53885(15) 0.8060(8)
H16C H 0.4725 0.5622 0.7891
N8C N 0.4380(2) 0.52560(18) 0.9001(8)
C27C C 0.42145(18) 0.49071(19) 0.9252(6)
C28C C 0.4283(2) 0.46906(15) 0.8563(7)
C29C C 0.4348(4) 0.4332(5) 0.7814(19)
H17C H 0.4324 0.4119 0.7651
N9C N 0.4168(3) 0.4348(3) 0.8675(12)
N10C N 0.4565(3) 0.4590(3) 0.7140(10)
N11C N 0.3995(4) 0.4784(4) 1.0191(14)
H18C H 0.3959 0.4921 1.0624
H19C H 0.3891 0.4569 1.0354
Zn1F Zn 0.461545(19) 0.48924(2) 0.39323(7)
O1F O 0.39616(19) 0.47667(19) 0.3305(7)
O2F O 0.42069(15) 0.46987(15) 0.4900(7)
O3F O 0.03661(15) 0.37433(15) 1.0691(5)
O4F O 0.04093(13) 0.40150(13) 0.9033(5)
O5F O 0.13971(12) 0.53367(12) 0.9289(4)
O6F O 0.1753(2) 0.5798(3) 0.8346(9)
N1F N 0.24838(19) 0.43828(19) 0.6608(7)
N2F N 0.2141(2) 0.3826(2) 0.7459(8)
N3F N 0.1926(2) 0.4221(2) 0.7431(7)
N4F N 0.2665(2) 0.3986(2) 0.6714(8)
H1F H 0.2623 0.3790 0.6988
N5F N 0.1618(2) 0.3684(2) 0.8271(9)
H2F H 0.1602 0.3490 0.8433
N6F N 0.22884(18) 0.47751(18) 0.6730(6)
H3F H 0.2462 0.4900 0.6279
C1F C 0.2416(2) 0.4076(3) 0.6874(9)
C2F C 0.1906(3) 0.3918(3) 0.7678(9)
C3F C 0.2231(3) 0.4459(2) 0.6930(8)
C4F C 0.2988(2) 0.4193(2) 0.6128(9)
C5F C 0.3265(3) 0.4172(3) 0.6638(10)
H4F H 0.3237 0.4057 0.7360
C6F C 0.3578(2) 0.4326(2) 0.6052(9)
H5F H 0.3758 0.4303 0.6350
C7F C 0.36194(19) 0.4514(2) 0.5007(9)
C8F C 0.3338(2) 0.4532(2) 0.4549(8)
H6F H 0.3361 0.4652 0.3842
C9F C 0.3028(2) 0.4371(2) 0.5150(9)
H7F H 0.2844 0.4390 0.4856
C10F C 0.3945(2) 0.4668(2) 0.4342(8)
C11F C 0.1340(3) 0.3730(3) 0.8651(9)
C12F C 0.1203(2) 0.3620(2) 0.9719(9)
H8F H 0.1290 0.3514 1.0214
C13F C 0.0925(2) 0.3659(2) 1.0127(10)
H9F H 0.0834 0.3589 1.0893
C14F C 0.0791(2) 0.3809(2) 0.9337(7)
C15F C 0.0936(2) 0.3917(2) 0.8216(8)
H10F H 0.0850 0.4018 0.7698
C16F C 0.1209(3) 0.3879(3) 0.7848(10)
H11F H 0.1303 0.3949 0.7086
C17F C 0.05065(19) 0.38562(19) 0.9731(6)
C18F C 0.2111(2) 0.4936(2) 0.7138(8)
C19F C 0.1802(3) 0.4757(3) 0.7788(10)
H12F H 0.1696 0.4522 0.7906
C20F C 0.1662(3) 0.4946(3) 0.8244(9)
H13F H 0.1462 0.4832 0.8694
C21F C 0.1800(2) 0.5289(2) 0.8072(7)
C22F C 0.2088(3) 0.5452(4) 0.7348(12)
H14F H 0.2179 0.5683 0.7159
C23F C 0.2243(3) 0.5270(3) 0.6899(11)
H15F H 0.2440 0.5383 0.6430
C24F C 0.1643(2) 0.5480(2) 0.8582(7)
C25F C 0.51770(19) 0.54835(19) 0.2378(6)
N7F N 0.4828(2) 0.53179(19) 0.2630(6)
C26F C 0.46115(15) 0.5386(2) 0.1940(8)
H16F H 0.4378 0.5275 0.2109
N8F N 0.47440(18) 0.5620(2) 0.0999(8)
C27F C 0.50929(19) 0.57855(18) 0.0748(6)
C28F C 0.53094(15) 0.5717(2) 0.1437(7)
C29F C 0.5668(5) 0.5652(4) 0.2186(19)
H17F H 0.5881 0.5676 0.2349
N9F N 0.5652(3) 0.5832(3) 0.1325(12)
N10F N 0.5410(3) 0.5435(3) 0.2860(10)
N11F N 0.5216(4) 0.6005(4) -0.0191(14)
H18F H 0.5079 0.6041 -0.0624
H19F H 0.5431 0.6109 -0.0354
Zn1I Zn 0.538455(19) 0.51076(2) 0.39323(7)
O1I O 0.60384(19) 0.52333(19) 0.3305(7)
O2I O 0.57931(15) 0.53013(15) 0.4900(7)
O3I O 0.96339(15) 0.62567(15) 1.0691(5)
O4I O 0.95907(13) 0.59850(13) 0.9033(5)
O5I O 0.86029(12) 0.46633(12) 0.9289(4)
O6I O 0.8247(2) 0.4202(3) 0.8346(9)
N1I N 0.75162(19) 0.56172(19) 0.6608(7)
N2I N 0.7859(2) 0.6174(2) 0.7459(8)
N3I N 0.8074(2) 0.5779(2) 0.7431(7)
N4I N 0.7335(2) 0.6014(2) 0.6714(8)
H1I H 0.7377 0.6210 0.6988
N5I N 0.8382(2) 0.6316(2) 0.8271(9)
H2I H 0.8398 0.6510 0.8433
N6I N 0.77116(18) 0.52249(18) 0.6730(6)
H3I H 0.7538 0.5100 0.6279
C1I C 0.7584(2) 0.5924(3) 0.6874(9)
C2I C 0.8094(3) 0.6082(3) 0.7678(9)
C3I C 0.7769(3) 0.5541(2) 0.6930(8)
C4I C 0.7012(2) 0.5807(2) 0.6128(9)
C5I C 0.6735(3) 0.5828(3) 0.6638(10)
H4I H 0.6763 0.5943 0.7360
C6I C 0.6422(2) 0.5674(2) 0.6052(9)
H5I H 0.6242 0.5697 0.6350
C7I C 0.63806(19) 0.5486(2) 0.5007(9)
C8I C 0.6662(2) 0.5468(2) 0.4549(8)
H6I H 0.6639 0.5348 0.3842
C9I C 0.6972(2) 0.5629(2) 0.5150(9)
H7I H 0.7156 0.5610 0.4856
C10I C 0.6055(2) 0.5332(2) 0.4342(8)
C11I C 0.8660(3) 0.6270(3) 0.8651(9)
C12I C 0.8797(2) 0.6380(2) 0.9719(9)
H8I H 0.8710 0.6486 1.0214
C13I C 0.9075(2) 0.6341(2) 1.0127(10)
H9I H 0.9166 0.6411 1.0893
C14I C 0.9209(2) 0.6191(2) 0.9337(7)
C15I C 0.9064(2) 0.6083(2) 0.8216(8)
H10I H 0.9150 0.5982 0.7698
C16I C 0.8791(3) 0.6121(3) 0.7848(10)
H11I H 0.8697 0.6051 0.7086
C17I C 0.94935(19) 0.61438(19) 0.9731(6)
C18I C 0.7889(2) 0.5064(2) 0.7138(8)
C19I C 0.8198(3) 0.5243(3) 0.7788(10)
H12I H 0.8304 0.5478 0.7906
C20I C 0.8338(3) 0.5054(3) 0.8244(9)
H13I H 0.8538 0.5168 0.8694
C21I C 0.8200(2) 0.4711(2) 0.8072(7)
C22I C 0.7912(3) 0.4548(4) 0.7348(12)
H14I H 0.7821 0.4317 0.7159
C23I C 0.7757(3) 0.4730(3) 0.6899(11)
H15I H 0.7560 0.4617 0.6430
C24I C 0.8357(2) 0.4520(2) 0.8582(7)
C25I C 0.48230(19) 0.45165(19) 0.2378(6)
N7I N 0.5172(2) 0.46821(19) 0.2630(6)
C26I C 0.53885(15) 0.4614(2) 0.1940(8)
H16I H 0.5622 0.4725 0.2109
N8I N 0.52560(18) 0.4380(2) 0.0999(8)
C27I C 0.49071(19) 0.42145(18) 0.0748(6)
C28I C 0.46906(15) 0.4283(2) 0.1437(7)
C29I C 0.4332(5) 0.4348(4) 0.2186(19)
H17I H 0.4119 0.4324 0.2349
N9I N 0.4348(3) 0.4168(3) 0.1325(12)
N10I N 0.4590(3) 0.4565(3) 0.2860(10)
N11I N 0.4784(4) 0.3995(4) -0.0191(14)
H18I H 0.4921 0.3959 -0.0624
H19I H 0.4569 0.3891 -0.0354
Zn2_2 Zn 0.561391(11) 0.438609(11) 0.0000
Zn2A Zn 0.561391(11) 0.122782(16) 0.0000
Zn2B Zn 0.877218(16) 0.438609(11) 1.0000
Zn2C_2 Zn 0.438609(11) 0.561391(11) 0.0000
Zn2D Zn 0.438609(11) 0.877218(16) 0.0000
Zn2E Zn 0.122782(16) 0.561391(11) 1.0000
Zn3_2 Zn 0.60572(2) 0.60572(2) 0.0000
Zn3A Zn 0.39428(2) 0.00000(3) 0.0000
Zn3B Zn 0.00000(3) 0.39428(2) 1.0000
Zn3C_2 Zn 0.39428(2) 0.39428(2) 0.0000
Zn3D Zn 0.60572(2) 1.00000(3) 0.0000
Zn3E Zn 1.00000(3) 0.60572(2) 1.0000
O3B O 0.66228(21) 0.62567(15) 0.9309(5)
O3E O 0.33772(21) 0.37433(15) 0.9309(5)
O3H O 0.62567(15) 0.66228(21) 1.0691(5)
O3K O 0.37433(15) 0.33772(21) 1.0691(5)
O4B O 0.63943(18) 0.59850(13) 1.0967(5)
O4E O 0.36057(18) 0.40150(13) 1.0967(5)
O4H O 0.59850(13) 0.63943(18) 0.9033(5)
O4K O 0.40150(13) 0.36057(18) 0.9033(5)
O5B O 0.60604(17) 0.46633(12) 1.0711(4)
O5E O 0.39396(17) 0.53367(12) 1.0711(4)
O5H O 0.46633(12) 0.60604(17) 0.9289(4)
O5K O 0.53367(12) 0.39396(17) 0.9289(4)
N8F_2 N 0.47440(18) 0.5620(2) 1.0999(8)
N8I_2 N 0.52560(18) 0.4380(2) 1.0999(8)
N9F_2 N 0.5652(3) 0.5832(3) 1.1325(12)
N9I_2 N 0.4348(3) 0.4168(3) 1.1325(12)
C30? C 0.54604(17) 0.50493(16) 0.7635(6)
N12? N 0.5463(2) 0.5353(2) 0.7389(6)
C31? C 0.5665(2) 0.56442(16) 0.8074(8)
H20? H 0.5667 0.5848 0.7909
N13? N 0.5864(2) 0.56310(15) 0.9005(7)
C32? C 0.58608(17) 0.53270(17) 0.9252(5)
C33? C 0.56591(17) 0.50361(14) 0.8567(6)
C34? C 0.5380(4) 0.4578(4) 0.7716(13)
H21? H 0.5292 0.4348 0.7536
N14? N 0.5599(2) 0.4712(2) 0.8633(11)
N15? N 0.5283(3) 0.4751(3) 0.7067(10)
N16? N 0.6063(3) 0.5332(3) 1.0175(12)
H22? H 0.6069 0.5149 1.0354
H23? H 0.6184 0.5517 1.0577
loop_
_geom_bond_atom_site_label_1
_geom_bond_atom_site_label_2
_geom_bond_site_symmetry_1
_geom_bond_site_symmetry_2
Zn1 O2 1_555 1_555
Zn2 N8 1_555 1_555
Zn3 N9 1_555 1_555
O1 C10 1_555 1_555
O2 C10 1_555 1_555
O3 C17 1_555 1_555
O4 C17 1_555 1_555
O5 C24 1_555 1_555
O6 C24 1_555 1_555
O7 Zn1 1_555 1_555
N1 C1 1_555 1_555
N2 C1 1_555 1_555
N3 C2 1_555 1_555
N4 H1 1_555 1_555
N5 H2 1_555 1_555
N6 H3 1_555 1_555
C1 N4 1_555 1_555
C2 N2 1_555 1_555
C3 N1 1_555 1_555
C4 N4 1_555 1_555
C5 C4 1_555 1_555
H4 C5 1_555 1_555
C6 C5 1_555 1_555
H5 C6 1_555 1_555
C7 C6 1_555 1_555
C8 C7 1_555 1_555
H6 C8 1_555 1_555
C9 C4 1_555 1_555
H7 C9 1_555 1_555
C10 C7 1_555 1_555
C11 N5 1_555 1_555
C12 C11 1_555 1_555
H8 C12 1_555 1_555
C13 C12 1_555 1_555
H9 C13 1_555 1_555
C14 C13 1_555 1_555
C15 C14 1_555 1_555
H10 C15 1_555 1_555
C16 C11 1_555 1_555
H11 C16 1_555 1_555
C17 C14 1_555 1_555
C18 N6 1_555 1_555
C19 C18 1_555 1_555
H12 C19 1_555 1_555
C20 C19 1_555 1_555
H13 C20 1_555 1_555
C21 C20 1_555 1_555
C22 C21 1_555 1_555
H14 C22 1_555 1_555
C23 C18 1_555 1_555
H15 C23 1_555 1_555
C24 C21 1_555 1_555
C25 N7 1_555 1_555
N7 Zn1 1_555 1_555
C26 N7 1_555 1_555
H16 C26 1_555 1_555
N8 C26 1_555 1_555
C27 N8 1_555 1_555
C28 C25 1_555 1_555
C29 H17 1_555 1_555
N9 C28 1_555 1_555
N10 C25 1_555 1_555
N11 C27 1_555 1_555
H18 N11 1_555 1_555
H19 N11 1_555 1_555
Zn1C O7 1_555 1_555
Zn2C N8C 1_555 1_555
Zn3C N9C 1_555 1_555
O1C C10C 1_555 1_555
O2C Zn1C 1_555 1_555
O3C C17C 1_555 1_555
O4C C17C 1_555 1_555
O5C C24C 1_555 1_555
O6C C24C 1_555 1_555
N1C C1C 1_555 1_555
N2C C1C 1_555 1_555
N3C C2C 1_555 1_555
N4C H1C 1_555 1_555
N5C H2C 1_555 1_555
N6C H3C 1_555 1_555
C1C N4C 1_555 1_555
C2C N2C 1_555 1_555
C3C N1C 1_555 1_555
C4C N4C 1_555 1_555
C5C C4C 1_555 1_555
H4C C5C 1_555 1_555
C6C C5C 1_555 1_555
H5C C6C 1_555 1_555
C7C C6C 1_555 1_555
C8C C7C 1_555 1_555
H6C C8C 1_555 1_555
C9C C4C 1_555 1_555
H7C C9C 1_555 1_555
C10C O2C 1_555 1_555
C11C N5C 1_555 1_555
C12C C11C 1_555 1_555
H8C C12C 1_555 1_555
C13C C12C 1_555 1_555
H9C C13C 1_555 1_555
C14C C13C 1_555 1_555
C15C C14C 1_555 1_555
H10C C15C 1_555 1_555
C16C C11C 1_555 1_555
H11C C16C 1_555 1_555
C17C C14C 1_555 1_555
C18C N6C 1_555 1_555
C19C C18C 1_555 1_555
H12C C19C 1_555 1_555
C20C C19C 1_555 1_555
H13C C20C 1_555 1_555
C21C C20C 1_555 1_555
C22C C21C 1_555 1_555
H14C C22C 1_555 1_555
C23C C18C 1_555 1_555
H15C C23C 1_555 1_555
C24C C21C 1_555 1_555
C25C N7C 1_555 1_555
N7C Zn1C 1_555 1_555
C26C N7C 1_555 1_555
H16C C26C 1_555 1_555
N8C C26C 1_555 1_555
C27C N8C 1_555 1_555
C28C C25C 1_555 1_555
C29C H17C 1_555 1_555
N9C C28C 1_555 1_555
N10C Zn1 1_555 1_555
N11C C27C 1_555 1_555
H18C N11C 1_555 1_555
H19C N11C 1_555 1_555
Zn1F O7 1_555 1_555
O1F C10F 1_555 1_555
O2F Zn1F 1_555 1_555
O3F C17F 1_555 1_555
O4F C17F 1_555 1_555
O5F C24F 1_555 1_555
O6F C24F 1_555 1_555
N1F C1F 1_555 1_555
N2F C1F 1_555 1_555
N3F C2F 1_555 1_555
N4F H1F 1_555 1_555
N5F H2F 1_555 1_555
N6F H3F 1_555 1_555
C1F N4F 1_555 1_555
C2F N2F 1_555 1_555
C3F N1F 1_555 1_555
C4F N4F 1_555 1_555
C5F C4F 1_555 1_555
H4F C5F 1_555 1_555
C6F C5F 1_555 1_555
H5F C6F 1_555 1_555
C7F C6F 1_555 1_555
C8F C7F 1_555 1_555
H6F C8F 1_555 1_555
C9F C4F 1_555 1_555
H7F C9F 1_555 1_555
C10F O2F 1_555 1_555
C11F N5F 1_555 1_555
C12F C11F 1_555 1_555
H8F C12F 1_555 1_555
C13F C12F 1_555 1_555
H9F C13F 1_555 1_555
C14F C13F 1_555 1_555
C15F C14F 1_555 1_555
H10F C15F 1_555 1_555
C16F C11F 1_555 1_555
H11F C16F 1_555 1_555
C17F C14F 1_555 1_555
C18F N6F 1_555 1_555
C19F C18F 1_555 1_555
H12F C19F 1_555 1_555
C20F C19F 1_555 1_555
H13F C20F 1_555 1_555
C21F C20F 1_555 1_555
C22F C21F 1_555 1_555
H14F C22F 1_555 1_555
C23F C18F 1_555 1_555
H15F C23F 1_555 1_555
C24F C21F 1_555 1_555
C25F N7F 1_555 1_555
N7F Zn1F 1_555 1_555
C26F N7F 1_555 1_555
H16F C26F 1_555 1_555
N8F C26F 1_555 1_555
C27F N8F 1_555 1_555
C28F C25F 1_555 1_555
C29F H17F 1_555 1_555
N9F C28F 1_555 1_555
N10F C25F 1_555 1_555
N11F C27F 1_555 1_555
H18F N11F 1_555 1_555
H19F N11F 1_555 1_555
Zn1I O7 1_555 1_555
O1I C10I 1_555 1_555
O2I Zn1I 1_555 1_555
O3I C17I 1_555 1_555
O4I C17I 1_555 1_555
O5I C24I 1_555 1_555
O6I C24I 1_555 1_555
N1I C1I 1_555 1_555
N2I C1I 1_555 1_555
N3I C2I 1_555 1_555
N4I H1I 1_555 1_555
N5I H2I 1_555 1_555
N6I H3I 1_555 1_555
C1I N4I 1_555 1_555
C2I N2I 1_555 1_555
C3I N1I 1_555 1_555
C4I N4I 1_555 1_555
C5I C4I 1_555 1_555
H4I C5I 1_555 1_555
C6I C5I 1_555 1_555
H5I C6I 1_555 1_555
C7I C6I 1_555 1_555
C8I C7I 1_555 1_555
H6I C8I 1_555 1_555
C9I C4I 1_555 1_555
H7I C9I 1_555 1_555
C10I O2I 1_555 1_555
C11I N5I 1_555 1_555
C12I C11I 1_555 1_555
H8I C12I 1_555 1_555
C13I C12I 1_555 1_555
H9I C13I 1_555 1_555
C14I C13I 1_555 1_555
C15I C14I 1_555 1_555
H10I C15I 1_555 1_555
C16I C11I 1_555 1_555
H11I C16I 1_555 1_555
C17I C14I 1_555 1_555
C18I N6I 1_555 1_555
C19I C18I 1_555 1_555
H12I C19I 1_555 1_555
C20I C19I 1_555 1_555
H13I C20I 1_555 1_555
C21I C20I 1_555 1_555
C22I C21I 1_555 1_555
H14I C22I 1_555 1_555
C23I C18I 1_555 1_555
H15I C23I 1_555 1_555
C24I C21I 1_555 1_555
C25I N7I 1_555 1_555
N7I Zn1I 1_555 1_555
C26I N7I 1_555 1_555
H16I C26I 1_555 1_555
N8I C26I 1_555 1_555
C27I N8I 1_555 1_555
C28I C25I 1_555 1_555
C29I H17I 1_555 1_555
N9I C28I 1_555 1_555
N10I Zn1F 1_555 1_555
N11I C27I 1_555 1_555
H18I N11I 1_555 1_555
H19I N11I 1_555 1_555
Zn2_2 N8I 1_555 1_555
Zn2A O5 1_555 1_555
Zn2B O5I 1_555 1_555
Zn2C_2 N8F 1_555 1_555
Zn2D O5C 1_555 1_555
Zn2E O5F 1_555 1_555
Zn3_2 N9F 1_555 1_555
Zn3A O3 1_555 1_555
Zn3B O3F 1_555 1_555
Zn3C_2 N9I 1_555 1_555
Zn3D O3C 1_555 1_555
Zn3E O3I 1_555 1_555
O3B Zn3 1_555 1_555
O3E Zn3C 1_555 1_555
O3H Zn3 1_555 1_555
O3K Zn3C 1_555 1_555
O4B Zn3 1_555 1_555
O4E Zn3C 1_555 1_555
O4H Zn3 1_555 1_555
O4K Zn3C 1_555 1_555
O5B Zn2 1_555 1_555
O5E Zn2C 1_555 1_555
O5H Zn2C 1_555 1_555
O5K Zn2 1_555 1_555
N8F_2 Zn2C 1_555 1_555
N8I_2 Zn2 1_555 1_555
N9F_2 Zn3 1_555 1_555
N9I_2 Zn3C 1_555 1_555
O4 Zn3A 1_555 1_555
N3 C3 1_555 1_555
N5 C2 1_555 1_555
N6 C3 1_555 1_555
C8 C9 1_555 1_555
C15 C16 1_555 1_555
C22 C23 1_555 1_555
C27 C28 1_555 1_555
C29 N9 1_555 1_555
C29 N10 1_555 1_555
N10 Zn1C 1_555 1_555
O4C Zn3D 1_555 1_555
N3C C3C 1_555 1_555
N5C C2C 1_555 1_555
N6C C3C 1_555 1_555
C7C C10C 1_555 1_555
C8C C9C 1_555 1_555
C15C C16C 1_555 1_555
C22C C23C 1_555 1_555
C25C N10C 1_555 1_555
C27C C28C 1_555 1_555
C29C N9C 1_555 1_555
C29C N10C 1_555 1_555
O4F Zn3B 1_555 1_555
N3F C3F 1_555 1_555
N5F C2F 1_555 1_555
N6F C3F 1_555 1_555
C7F C10F 1_555 1_555
C8F C9F 1_555 1_555
C15F C16F 1_555 1_555
C22F C23F 1_555 1_555
C27F C28F 1_555 1_555
C29F N9F 1_555 1_555
C29F N10F 1_555 1_555
N10F Zn1I 1_555 1_555
O4I Zn3E 1_555 1_555
N3I C3I 1_555 1_555
N5I C2I 1_555 1_555
N6I C3I 1_555 1_555
C7I C10I 1_555 1_555
C8I C9I 1_555 1_555
C15I C16I 1_555 1_555
C22I C23I 1_555 1_555
C25I N10I 1_555 1_555
C27I C28I 1_555 1_555
C29I N9I 1_555 1_555
C29I N10I 1_555 1_555

#END
