
#######################################################################
#
#                 Cambridge Crystallographic Data Centre
#                                CCDC 
#
#######################################################################
#
# If this CIF has been generated from an entry in the Cambridge 
# Structural Database, then it will include bibliographic, chemical, 
# crystal, experimental, refinement or atomic coordinate data resulting 
# from the CCDC's data processing and validation procedures.
#
#######################################################################

data_QOTBAE
_chemical_formula_moiety         '(C12 H8 N6 O4 Zn2)n,2(C4 H9 N1 O1)'
_chemical_name_systematic        
'catena-[bis(\m~3~-1,2,4-triazol-1-yl)-(\m~2~-terephthalato)-di-zinc N,N-dimethylacetamide solvate]'
_symmetry_cell_setting           tetragonal
_symmetry_space_group_name_H-M   'P 4/n c c'
_symmetry_Int_Tables_number      130
_space_group_name_Hall           '-P 4a 2ac'
loop_
_symmetry_equiv_pos_site_id
_symmetry_equiv_pos_as_xyz
1 x,y,z
2 1/2-y,x,z
3 1/2-x,1/2-y,z
4 y,1/2-x,z
5 1/2+x,-y,1/2-z
6 1/2+y,1/2+x,1/2-z
7 -x,1/2+y,1/2-z
8 -y,-x,1/2-z
9 -x,-y,-z
10 1/2+y,-x,-z
11 1/2+x,1/2+y,-z
12 -y,1/2+x,-z
13 1/2-x,y,1/2+z
14 1/2-y,1/2-x,1/2+z
15 x,1/2-y,1/2+z
16 y,x,1/2+z
_cell_length_a                   13.4761(19)
_cell_length_b                   13.4761(19)
_cell_length_c                   27.254(5)
_cell_angle_alpha                90
_cell_angle_beta                 90
_cell_angle_gamma                90
_cell_volume                     4949.47
_exptl_crystal_colour            yellow
_exptl_crystal_description       block
_cell_formula_units_Z            8
loop_
_atom_site_label
_atom_site_type_symbol
_atom_site_fract_x
_atom_site_fract_y
_atom_site_fract_z
_atom_site_U_iso_or_equiv
_atom_site_thermal_displace_type
Zn1 Zn 0.09002(4) -0.02250(4) 0.947334(18) 0.0319 Uani
O1 O 0.1398(3) 0.0554(3) 0.86644(13) 0.0611 Uani
O2 O 0.0484(3) -0.0747(3) 0.88338(15) 0.0620 Uani
N1 N 0.2344(3) -0.0145(3) 0.96543(13) 0.0338 Uani
N2 N 0.3766(3) -0.0391(3) 1.00321(13) 0.0310 Uani
N3 N 0.3916(3) 0.0275(3) 0.96584(13) 0.0333 Uani
C1 C 0.0883(5) -0.0148(5) 0.8534(2) 0.0543 Uani
C2 C 0.0680(5) -0.0336(5) 0.7999(2) 0.0573 Uani
C3 C 0.1184(6) 0.0203(5) 0.7643(2) 0.0707 Uani
H1 H 0.1627 0.0698 0.7736 0.0850 Uiso
C4 C -0.0008(5) -0.1030(5) 0.7849(2) 0.0663 Uani
H2 H -0.0346 -0.1401 0.8083 0.0800 Uiso
C5 C 0.3059(3) 0.0384(3) 0.94404(15) 0.0353 Uani
H3 H 0.2960 0.0786 0.9167 0.0430 Uiso
C6 C 0.2820(3) -0.0619(3) 1.00135(15) 0.0357 Uani
H4 H 0.2515 -0.1062 1.0227 0.0430 Uiso
O1G O -0.0554(3) -0.1398(3) 0.63356(13) 0.0611 Uani
O2G O 0.0747(3) -0.0484(3) 0.61662(15) 0.0620 Uani
C1G C 0.0148(5) -0.0883(5) 0.6466(2) 0.0543 Uani
C2G C 0.0336(5) -0.0680(5) 0.7001(2) 0.0573 Uani
C3G C -0.0203(5) -0.1184(6) 0.7357(2) 0.0707 Uani
H1G H -0.0698 -0.1627 0.7264 0.0850 Uiso
C4G C 0.1030(5) 0.0008(5) 0.7151(2) 0.0663 Uani
H2G H 0.1401 0.0346 0.6917 0.0800 Uiso
Zn1A Zn 0.52250(4) 0.09002(4) 0.947334(18) 0.0319 Uani
N1A N 0.5145(3) 0.2344(3) 0.96543(13) 0.0338 Uani
N2A N 0.5391(3) 0.3766(3) 1.00321(13) 0.0310 Uani
N3A N 0.4725(3) 0.3916(3) 0.96584(13) 0.0333 Uani
C5A C 0.4616(3) 0.3059(3) 0.94404(15) 0.0353 Uani
H3A H 0.4214 0.2960 0.9167 0.0430 Uiso
C6A C 0.5619(3) 0.2820(3) 1.00135(15) 0.0357 Uani
H4A H 0.6062 0.2515 1.0227 0.0430 Uiso
Zn1B Zn 0.40998(4) 0.52250(4) 0.947334(18) 0.0319 Uani
Zn1G Zn 0.02250(4) -0.09002(4) 0.552666(18) 0.0319 Uani
Zn1I Zn 0.47750(4) -0.09002(4) 1.052666(18) 0.0319 Uani
Zn1J Zn 0.59002(4) 0.47750(4) 1.052666(18) 0.0319 Uani
O1A O 0.4446(3) 0.1398(3) 0.86644(13) 0.0611 Uani
O2A O 0.5747(3) 0.0484(3) 0.88338(15) 0.0620 Uani
N2H N 0.6234(3) 0.0391(3) 0.99679(13) 0.0310 Uani
N2K N 0.0391(3) -0.1234(3) 0.99679(13) 0.0310 Uani
N3C N 0.0275(3) 0.1084(3) 0.96584(13) 0.0333 Uani
loop_
_atom_site_aniso_label
_atom_site_aniso_U_11
_atom_site_aniso_U_22
_atom_site_aniso_U_33
_atom_site_aniso_U_23
_atom_site_aniso_U_13
_atom_site_aniso_U_12
Zn1 0.0328(4) 0.0351(4) 0.0277(4) 0.00109(19) 0.00207(19) 0.0027(2)
O1 0.070(3) 0.077(3) 0.0362(18) -0.0116(19) -0.0107(18) 0.008(2)
O2 0.076(3) 0.073(3) 0.037(2) -0.007(2) -0.006(2) 0.008(2)
N1 0.034(2) 0.035(2) 0.0323(18) 0.0029(15) 0.0002(16) 0.0026(15)
N2 0.0315 0.0348 0.0266 0.0033 -0.0014 -0.0011
N3 0.037 0.034 0.029 0.0073 -0.0003 -0.0043
C1 0.066(4) 0.067(4) 0.030(3) -0.004(3) -0.004(2) 0.015(3)
C2 0.067(4) 0.065(4) 0.040(3) -0.010(3) -0.005(3) 0.009(3)
C3 0.090(5) 0.083(5) 0.039(3) -0.013(3) -0.002(3) -0.017(4)
C4 0.079(4) 0.089(5) 0.031(3) -0.005(3) -0.004(3) -0.006(4)
C5 0.036(2) 0.039(3) 0.031(2) 0.0047(18) -0.0036(18) 0.001(2)
C6 0.034(2) 0.041(2) 0.032(2) 0.004(2) -0.0002(19) -0.0020(19)
O1G 0.077 0.07 0.0362 -0.0107 -0.0116 0.008
O2G 0.073 0.076 0.037 -0.006 -0.007 0.008
C1G 0.067 0.066 0.03 -0.004 -0.004 0.015
C2G 0.065 0.067 0.04 -0.005 -0.01 0.009
C3G 0.083 0.09 0.039 -0.002 -0.013 -0.017
C4G 0.089 0.079 0.031 -0.004 -0.005 -0.006
Zn1A 0.0351 0.0328 0.0277 0.00207 -0.00109 -0.0027
N1A 0.035 0.034 0.0323 0.0002 -0.0029 -0.0026
N2A 0.0348 0.0315 0.0266 -0.0014 -0.0033 0.0011
N3A 0.034 0.037 0.029 -0.0003 -0.0073 0.0043
C5A 0.039 0.036 0.031 -0.0036 -0.0047 -0.001
C6A 0.041 0.034 0.032 -0.0002 -0.004 0.002
Zn1B 0.0328 0.0351 0.0277 -0.00109 -0.00207 0.0027
Zn1G 0.0351 0.0328 0.0277 0.00207 0.00109 0.0027
Zn1I 0.0351 0.0328 0.0277 0.00207 -0.00109 -0.0027
Zn1J 0.0328 0.0351 0.0277 -0.00109 -0.00207 0.0027
O1A 0.077 0.07 0.0362 -0.0107 0.0116 -0.008
O2A 0.073 0.076 0.037 -0.006 0.007 -0.008
N2H 0.0315 0.0348 0.0266 0.0033 -0.0014 -0.0011
N2K 0.0348 0.0315 0.0266 0.0014 0.0033 0.0011
N3C 0.034 0.037 0.029 0.0003 0.0073 0.0043
loop_
_geom_bond_atom_site_label_1
_geom_bond_atom_site_label_2
_geom_bond_site_symmetry_1
_geom_bond_site_symmetry_2
Zn1 O1 1_555 1_555
O1 C1 1_555 1_555
O2 Zn1 1_555 1_555
N1 Zn1 1_555 1_555
N2 N3 1_555 1_555
N3 C5 1_555 1_555
C1 O2 1_555 1_555
C2 C1 1_555 1_555
C3 C2 1_555 1_555
H1 C3 1_555 1_555
C4 C2 1_555 1_555
H2 C4 1_555 1_555
C5 N1 1_555 1_555
H3 C5 1_555 1_555
C6 N1 1_555 1_555
H4 C6 1_555 1_555
O1G C1G 1_555 1_555
O2G C1G 1_555 1_555
C1G C2G 1_555 1_555
C2G C3G 1_555 1_555
C3G C4 1_555 1_555
H1G C3G 1_555 1_555
C4G C3 1_555 1_555
H2G C4G 1_555 1_555
Zn1A N3 1_555 1_555
N1A Zn1A 1_555 1_555
N2A N3A 1_555 1_555
N3A C5A 1_555 1_555
C5A N1A 1_555 1_555
H3A C5A 1_555 1_555
C6A N1A 1_555 1_555
H4A C6A 1_555 1_555
Zn1B N3A 1_555 1_555
Zn1G O1G 1_555 1_555
Zn1I N2 1_555 1_555
Zn1J N2A 1_555 1_555
O1A Zn1A 1_555 1_555
O2A Zn1A 1_555 1_555
N2H Zn1A 1_555 1_555
N2K Zn1 1_555 1_555
N3C Zn1 1_555 1_555
N2 C6 1_555 1_555
O2G Zn1G 1_555 1_555
C2G C4G 1_555 1_555
N2A C6A 1_555 1_555

#END
