
#######################################################################
#
#                 Cambridge Crystallographic Data Centre
#                                CCDC 
#
#######################################################################
#
# If this CIF has been generated from an entry in the Cambridge 
# Structural Database, then it will include bibliographic, chemical, 
# crystal, experimental, refinement or atomic coordinate data resulting 
# from the CCDC's data processing and validation procedures.
#
#######################################################################

data_QARCAP
_chemical_formula_moiety         '(C16 H8 N12 Zn1)n'
_chemical_name_systematic        
catena-((\m~3~-2,3-Di(pyridin-2-yl)-5,6-di(1H-tetrazol-5-yl)pyrazine)-zinc)
_symmetry_cell_setting           orthorhombic
_symmetry_space_group_name_H-M   'P 21 21 21'
_symmetry_Int_Tables_number      19
_space_group_name_Hall           'P 2ac 2ab'
loop_
_symmetry_equiv_pos_site_id
_symmetry_equiv_pos_as_xyz
1 x,y,z
2 1/2-x,-y,1/2+z
3 -x,1/2+y,1/2-z
4 1/2+x,1/2-y,-z
_cell_length_a                   8.0503(16)
_cell_length_b                   8.8185(18)
_cell_length_c                   22.972(5)
_cell_angle_alpha                90
_cell_angle_beta                 90
_cell_angle_gamma                90
_cell_volume                     1630.82
_exptl_crystal_colour            yellow
_exptl_crystal_description       block
_cell_formula_units_Z            4
loop_
_atom_site_label
_atom_site_type_symbol
_atom_site_fract_x
_atom_site_fract_y
_atom_site_fract_z
Zn1 Zn 0.33478(4) 1.00260(4) 0.960901(14)
C1 C 0.1198(4) 0.7562(4) 1.00567(16)
C2 C 0.1141(4) 0.4298(4) 0.94748(14)
C3 C 0.1319(4) 0.7197(4) 0.94357(14)
C4 C 0.1163(4) 0.5779(4) 0.91739(14)
C5 C 0.1588(4) 0.6889(4) 0.82608(13)
C6 C 0.2018(4) 0.8287(4) 0.85382(13)
C7 C 0.2893(4) 0.9663(3) 0.82995(14)
C8 C 0.2872(4) 1.0137(5) 0.77221(14)
H1 H 0.2251 0.9607 0.7448
C9 C 0.3783(5) 1.1407(4) 0.75556(17)
H2 H 0.3804 1.1712 0.7168
C10 C 0.4645(5) 1.2202(4) 0.79679(16)
H3 H 0.5265 1.3051 0.7866
C11 C 0.4574(4) 1.1714(4) 0.85430(16)
H4 H 0.5134 1.2269 0.8826
C12 C 0.1505(4) 0.6535(4) 0.76231(14)
C13 C 0.0896(4) 0.7580(4) 0.72629(14)
H5 H 0.0565 0.8524 0.7401
C14 C 0.0774(7) 0.7245(5) 0.67048(19)
H6 H 0.0326 0.7966 0.6455
C15 C 0.1280(5) 0.5868(5) 0.64737(17)
H7 H 0.1232 0.5691 0.6075
C16 C 0.1843(5) 0.4789(5) 0.68406(15)
H8 H 0.2148 0.3843 0.6697
N1 N 0.2078(3) 0.8735(3) 1.02650(11)
N2 N 0.1692(4) 0.8810(3) 1.08388(12)
N3 N 0.0623(4) 0.7724(3) 1.09587(12)
N4 N 0.0276(3) 0.6918(3) 1.04673(11)
N5 N 0.0232(4) 0.3884(3) 0.99394(12)
N6 N 0.0658(4) 0.2424(4) 1.00504(15)
N7 N 0.1777(3) 0.2030(3) 0.96601(12)
N8 N 0.2099(4) 0.3189(3) 0.92944(12)
N9 N 0.1791(3) 0.8387(3) 0.91122(11)
N10 N 0.1256(4) 0.5673(3) 0.85882(11)
N11 N 0.3726(3) 1.0471(3) 0.87047(12)
N12 N 0.1967(4) 0.5092(5) 0.74348(15)
Zn1C Zn -0.16522(4) 0.49740(4) 1.039099(14)
Zn1_2 Zn 0.33478(4) 0.00260(4) 0.960901(14)
N4C N 0.5276(3) 0.8082(3) 0.95327(11)
N5C N 0.5232(4) 1.1116(3) 1.00606(12)
N7_2 N 0.1777(3) 1.2030(3) 0.96601(12)
loop_
_geom_bond_atom_site_label_1
_geom_bond_atom_site_label_2
_geom_bond_site_symmetry_1
_geom_bond_site_symmetry_2
Zn1 N1 1_555 1_555
C1 C3 1_555 1_555
C2 C4 1_555 1_555
C3 C4 1_555 1_555
C4 N10 1_555 1_555
C5 C6 1_555 1_555
C6 C7 1_555 1_555
C7 C8 1_555 1_555
C8 H1 1_555 1_555
C9 C8 1_555 1_555
H2 C9 1_555 1_555
C10 C9 1_555 1_555
H3 C10 1_555 1_555
C11 C10 1_555 1_555
H4 C11 1_555 1_555
C12 C5 1_555 1_555
C13 C12 1_555 1_555
H5 C13 1_555 1_555
C14 C13 1_555 1_555
H6 C14 1_555 1_555
C15 C14 1_555 1_555
H7 C15 1_555 1_555
C16 C15 1_555 1_555
H8 C16 1_555 1_555
N1 C1 1_555 1_555
N2 N1 1_555 1_555
N3 N2 1_555 1_555
N4 C1 1_555 1_555
N5 C2 1_555 1_555
N6 N5 1_555 1_555
N7 N6 1_555 1_555
N8 C2 1_555 1_555
N9 Zn1 1_555 1_555
N10 C5 1_555 1_555
N11 Zn1 1_555 1_555
N12 C12 1_555 1_555
Zn1C N4 1_555 1_555
Zn1_2 N7 1_555 1_555
N4C Zn1 1_555 1_555
N5C Zn1 1_555 1_555
N7_2 Zn1 1_555 1_555
C3 N9 1_555 1_555
C6 N9 1_555 1_555
C7 N11 1_555 1_555
C11 N11 1_555 1_555
C16 N12 1_555 1_555
N3 N4 1_555 1_555
N5 Zn1C 1_555 1_555
N7 N8 1_555 1_555

#END
