
#######################################################################
#
#                 Cambridge Crystallographic Data Centre
#                                CCDC 
#
#######################################################################
#
# If this CIF has been generated from an entry in the Cambridge 
# Structural Database, then it will include bibliographic, chemical, 
# crystal, experimental, refinement or atomic coordinate data resulting 
# from the CCDC's data processing and validation procedures.
#
#######################################################################

data_SENWEP
_chemical_formula_moiety         '(C18 H24 N4 O12 Zn2)n'
_chemical_name_systematic        
catena-[(\m~6~-Benzene-1,3,5-tricarboxylato)-tris(N,N-dimethylformamide)-nitrato-di-zinc(ii)]
_symmetry_cell_setting           cubic
_symmetry_space_group_name_H-M   'P 21 3'
_symmetry_Int_Tables_number      198
_space_group_name_Hall           'P 2ac 2ab 3'
loop_
_symmetry_equiv_pos_site_id
_symmetry_equiv_pos_as_xyz
1 x,y,z
2 1/2-x,-y,1/2+z
3 -x,1/2+y,1/2-z
4 1/2+x,1/2-y,-z
5 z,x,y
6 1/2+z,1/2-x,-y
7 1/2-z,-x,1/2+y
8 -z,1/2+x,1/2-y
9 y,z,x
10 -y,1/2+z,1/2-x
11 1/2+y,1/2-z,-x
12 1/2-y,-z,1/2+x
_cell_length_a                   14.1069(16)
_cell_length_b                   14.1069(16)
_cell_length_c                   14.1069(16)
_cell_angle_alpha                90
_cell_angle_beta                 90
_cell_angle_gamma                90
_cell_volume                     2807.34
_exptl_crystal_colour            colorless
_exptl_crystal_description       block
_cell_formula_units_Z            4
loop_
_atom_site_label
_atom_site_type_symbol
_atom_site_fract_x
_atom_site_fract_y
_atom_site_fract_z
_atom_site_U_iso_or_equiv
_atom_site_thermal_displace_type
Zn1 Zn 0.02008(4) 0.02008(4) 0.02008(4) 0.0691 Uani
Zn2 Zn 0.16822(5) 0.16822(5) 0.16822(5) 0.0941 Uani
O1 O 0.0549(3) -0.0634(4) 0.1247(3) 0.0807 Uani
O2 O 0.1825(3) 0.0224(4) 0.1573(3) 0.0850 Uani
C1 C 0.1487(4) -0.1103(4) 0.2546(4) 0.0680 Uani
C2 C 0.0916(4) -0.1868(5) 0.2734(4) 0.0700 Uani
H1 H 0.0391 -0.2001 0.2333 0.0840 Uiso
C3 C 0.1281(4) -0.0450(4) 0.1729(5) 0.0717 Uani
O3 O 0.1935(15) 0.1808(17) 0.2990(11) 0.1610 Uani
N1 N 0.188(2) 0.1546(13) 0.4648(10) 0.1817 Uani
C4 C 0.181(2) 0.163(2) 0.3681(12) 0.1960 Uani
H2 H 0.1238 0.1285 0.3593 0.2330 Uiso
C5 C 0.137(3) 0.076(2) 0.505(3) 0.2300 Uani
H3 H 0.0821 0.0998 0.5399 0.3500 Uiso
H4 H 0.1788 0.0410 0.5479 0.3500 Uiso
H5 H 0.1158 0.0341 0.4537 0.3500 Uiso
C6 C 0.259(4) 0.200(3) 0.520(3) 0.3833 Uani
H6 H 0.2322 0.2568 0.5499 0.5750 Uiso
H7 H 0.3121 0.2182 0.4794 0.5750 Uiso
H8 H 0.2813 0.1565 0.5694 0.5750 Uiso
O4 O -0.076(2) -0.049(2) -0.0579(15) 0.1210 Uani
O5 O -0.120(3) -0.077(3) -0.202(3) 0.2600 Uani
O6 O -0.069(4) 0.060(3) -0.159(4) 0.3500 Uani
N2 N -0.0900(19) -0.029(3) -0.1387(16) 0.2167 Uani
O1F O 0.3753(3) -0.0549(3) 0.4366(4) 0.0807 Uani
O2F O 0.3427(3) -0.1825(3) 0.5224(4) 0.0850 Uani
C1F C 0.2454(4) -0.1487(4) 0.3897(4) 0.0680 Uani
C2F C 0.2266(4) -0.0916(4) 0.3132(5) 0.0700 Uani
H1F H 0.2667 -0.0391 0.2999 0.0840 Uiso
C3F C 0.3271(5) -0.1281(4) 0.4550(4) 0.0717 Uani
O1I O 0.0634(4) -0.3753(3) 0.4451(3) 0.0807 Uani
O2I O -0.0224(4) -0.3427(3) 0.3175(3) 0.0850 Uani
C1I C 0.1103(4) -0.2454(4) 0.3513(4) 0.0680 Uani
C2I C 0.1868(5) -0.2266(4) 0.4084(4) 0.0700 Uani
H1I H 0.2001 -0.2667 0.4609 0.0840 Uiso
C3I C 0.0450(4) -0.3271(5) 0.3719(4) 0.0717 Uani
O4D O -0.0579(15) -0.076(2) -0.049(2) 0.1210 Uani
O5D O -0.202(3) -0.120(3) -0.077(3) 0.2600 Uani
O6D O -0.159(4) -0.069(4) 0.060(3) 0.3500 Uani
N2D N -0.1387(16) -0.0900(19) -0.029(3) 0.2167 Uani
O4H O -0.049(2) -0.0579(15) -0.076(2) 0.1210 Uani
O5H O -0.077(3) -0.202(3) -0.120(3) 0.2600 Uani
O6H O 0.060(3) -0.159(4) -0.069(4) 0.3500 Uani
N2H N -0.029(3) -0.1387(16) -0.0900(19) 0.2167 Uani
O3D O 0.2990(11) 0.1935(15) 0.1808(17) 0.1610 Uani
N1D N 0.4648(10) 0.188(2) 0.1546(13) 0.1817 Uani
C4D C 0.3681(12) 0.181(2) 0.163(2) 0.1960 Uani
H2D H 0.3593 0.1238 0.1285 0.2330 Uiso
C5D C 0.505(3) 0.137(3) 0.076(2) 0.2300 Uani
H3D H 0.5399 0.0821 0.0998 0.3500 Uiso
H4D H 0.5479 0.1788 0.0410 0.3500 Uiso
H5D H 0.4537 0.1158 0.0341 0.3500 Uiso
C6D C 0.520(3) 0.259(4) 0.200(3) 0.3833 Uani
H6D H 0.5499 0.2322 0.2568 0.5750 Uiso
H7D H 0.4794 0.3121 0.2182 0.5750 Uiso
H8D H 0.5694 0.2813 0.1565 0.5750 Uiso
O3H O 0.1808(17) 0.2990(11) 0.1935(15) 0.1610 Uani
N1H N 0.1546(13) 0.4648(10) 0.188(2) 0.1817 Uani
C4H C 0.163(2) 0.3681(12) 0.181(2) 0.1960 Uani
H2H H 0.1285 0.3593 0.1238 0.2330 Uiso
C5H C 0.076(2) 0.505(3) 0.137(3) 0.2300 Uani
H3H H 0.0998 0.5399 0.0821 0.3500 Uiso
H4H H 0.0410 0.5479 0.1788 0.3500 Uiso
H5H H 0.0341 0.4537 0.1158 0.3500 Uiso
C6H C 0.200(3) 0.520(3) 0.259(4) 0.3833 Uani
H6H H 0.2568 0.5499 0.2322 0.5750 Uiso
H7H H 0.2182 0.4794 0.3121 0.5750 Uiso
H8H H 0.1565 0.5694 0.2813 0.5750 Uiso
Zn1A Zn 0.47992(4) -0.02008(4) 0.52008(4) 0.0691 Uani
Zn1B Zn -0.02008(4) -0.47992(4) 0.47992(4) 0.0691 Uani
Zn2A Zn 0.33178(5) -0.16822(5) 0.66822(5) 0.0941 Uani
Zn2B Zn -0.16822(5) -0.33178(5) 0.33178(5) 0.0941 Uani
O1D O 0.1247(3) 0.0549(3) -0.0634(4) 0.0807 Uani
O1H O -0.0634(4) 0.1247(3) 0.0549(3) 0.0807 Uani
O2D O 0.1573(3) 0.1825(3) 0.0224(4) 0.0850 Uani
O2H O 0.0224(4) 0.1573(3) 0.1825(3) 0.0850 Uani
O7? O 0.1764(16) 0.1385(13) 0.3221(9) 0.0837 Uani
N3? N 0.1172(19) 0.1617(14) 0.4670(14) 0.1163 Uani
C7? C 0.1265(15) 0.1768(15) 0.3672(15) 0.0887 Uani
H9? H 0.0868 0.2230 0.3384 0.1080 Uiso
C8? C 0.175(4) 0.090(3) 0.5106(16) 0.1563 Uani
H10? H 0.1881 0.0395 0.4647 0.2350 Uiso
H11? H 0.1423 0.0637 0.5656 0.2350 Uiso
H12? H 0.2354 0.1184 0.5310 0.2350 Uiso
C9? C 0.048(2) 0.207(2) 0.525(2) 0.1233 Uani
H13? H 0.0608 0.2755 0.5269 0.1830 Uiso
H14? H 0.0512 0.1813 0.5893 0.1830 Uiso
H15? H -0.0152 0.1962 0.4985 0.1830 Uiso
loop_
_atom_site_aniso_label
_atom_site_aniso_U_11
_atom_site_aniso_U_22
_atom_site_aniso_U_33
_atom_site_aniso_U_23
_atom_site_aniso_U_13
_atom_site_aniso_U_12
Zn1 0.0691(5) 0.0691(5) 0.0691(5) -0.0037(3) -0.0037(3) -0.0037(3)
Zn2 0.0941(6) 0.0941(6) 0.0941(6) -0.0186(4) -0.0186(4) -0.0186(4)
O1 0.075(3) 0.085(3) 0.082(3) 0.002(2) -0.002(2) -0.004(2)
O2 0.076(2) 0.087(3) 0.092(3) 0.024(3) 0.011(2) 0.004(2)
C1 0.066(3) 0.072(3) 0.066(3) 0.003(2) 0.001(2) 0.004(2)
C2 0.068(3) 0.078(3) 0.064(3) -0.005(3) 0.002(2) 0.002(3)
C3 0.073(3) 0.069(3) 0.073(3) 0.004(3) 0.010(3) 0.001(2)
O3 0.167 0.2 0.116 -0.01 -0.015 0.051
N1 0.32 0.118 0.107 0.029 0.041 0.086
C4 0.19 0.3 0.098 0.07 0.038 0.11
C5 0.26 0.23 0.2 0.04 0.08 0.13
C6 0.61 0.18 0.36 0.08 -0.29 -0.12
O4 0.100(15) 0.21(4) 0.053(9) -0.027(10) -0.015(8) 0.055(16)
O5 0.16(3) 0.39(6) 0.23(3) -0.20(4) -0.05(3) -0.03(3)
O6 0.24(5) 0.32(7) 0.49(9) -0.18(7) -0.06(6) 0.12(5)
N2 0.13(3) 0.39(7) 0.13(2) 0.00(4) -0.05(2) 0.08(4)
O1F 0.082 0.075 0.085 0.004 -0.002 -0.002
O2F 0.092 0.076 0.087 -0.004 -0.024 0.011
C1F 0.066 0.066 0.072 -0.004 -0.003 0.001
C2F 0.064 0.068 0.078 -0.002 0.005 0.002
C3F 0.073 0.073 0.069 -0.001 -0.004 0.01
O1I 0.085 0.082 0.075 0.002 -0.004 -0.002
O2I 0.087 0.092 0.076 -0.011 0.004 -0.024
C1I 0.072 0.066 0.066 -0.001 0.004 -0.003
C2I 0.078 0.064 0.068 -0.002 0.002 0.005
C3I 0.069 0.073 0.073 -0.01 0.001 -0.004
O4D 0.053 0.1 0.21 0.055 -0.027 -0.015
O5D 0.23 0.16 0.39 -0.03 -0.2 -0.05
O6D 0.49 0.24 0.32 0.12 -0.18 -0.06
N2D 0.13 0.13 0.39 0.08 0 -0.05
O4H 0.21 0.053 0.1 -0.015 0.055 -0.027
O5H 0.39 0.23 0.16 -0.05 -0.03 -0.2
O6H 0.32 0.49 0.24 -0.06 0.12 -0.18
N2H 0.39 0.13 0.13 -0.05 0.08 0
O3D 0.116 0.167 0.2 0.051 -0.01 -0.015
N1D 0.107 0.32 0.118 0.086 0.029 0.041
C4D 0.098 0.19 0.3 0.11 0.07 0.038
C5D 0.2 0.26 0.23 0.13 0.04 0.08
C6D 0.36 0.61 0.18 -0.12 0.08 -0.29
O3H 0.2 0.116 0.167 -0.015 0.051 -0.01
N1H 0.118 0.107 0.32 0.041 0.086 0.029
C4H 0.3 0.098 0.19 0.038 0.11 0.07
C5H 0.23 0.2 0.26 0.08 0.13 0.04
C6H 0.18 0.36 0.61 -0.29 -0.12 0.08
Zn1A 0.0691 0.0691 0.0691 0.0037 0.0037 -0.0037
Zn1B 0.0691 0.0691 0.0691 0.0037 -0.0037 0.0037
Zn2A 0.0941 0.0941 0.0941 0.0186 0.0186 -0.0186
Zn2B 0.0941 0.0941 0.0941 0.0186 -0.0186 0.0186
O1D 0.082 0.075 0.085 -0.004 0.002 -0.002
O1H 0.085 0.082 0.075 -0.002 -0.004 0.002
O2D 0.092 0.076 0.087 0.004 0.024 0.011
O2H 0.087 0.092 0.076 0.011 0.004 0.024
O7? 0.147(17) 0.087(10) 0.017(6) 0.010(6) -0.026(8) -0.023(11)
N3? 0.17(3) 0.066(12) 0.113(17) 0.000(10) 0.021(17) 0.063(15)
C7? 0.076(14) 0.080(14) 0.11(2) -0.005(14) -0.032(15) 0.003(11)
C8? 0.28(6) 0.16(3) 0.029(9) 0.026(13) 0.008(17) 0.11(3)
C9? 0.13(2) 0.12(2) 0.12(2) -0.002(19) 0.03(2) 0.021(19)
loop_
_geom_bond_atom_site_label_1
_geom_bond_atom_site_label_2
_geom_bond_site_symmetry_1
_geom_bond_site_symmetry_2
Zn1 O1 1_555 1_555
Zn2 O2 1_555 1_555
O1 C3 1_555 1_555
O2 C3 1_555 1_555
C1 C2 1_555 1_555
C2 H1 1_555 1_555
C3 C1 1_555 1_555
O3 Zn2 1_555 1_555
N1 C4 1_555 1_555
C4 O3 1_555 1_555
H2 C4 1_555 1_555
C5 N1 1_555 1_555
H3 C5 1_555 1_555
H4 C5 1_555 1_555
H5 C5 1_555 1_555
C6 N1 1_555 1_555
H6 C6 1_555 1_555
H7 C6 1_555 1_555
H8 C6 1_555 1_555
O4 Zn1 1_555 1_555
O5 N2 1_555 1_555
O6 N2 1_555 1_555
N2 O4 1_555 1_555
O1F C3F 1_555 1_555
O2F C3F 1_555 1_555
C1F C2F 1_555 1_555
C2F C1 1_555 1_555
H1F C2F 1_555 1_555
C3F C1F 1_555 1_555
O1I C3I 1_555 1_555
O2I C3I 1_555 1_555
C1I C2 1_555 1_555
C2I C1F 1_555 1_555
H1I C2I 1_555 1_555
C3I C1I 1_555 1_555
O4D Zn1 1_555 1_555
O5D N2D 1_555 1_555
O6D N2D 1_555 1_555
N2D O4 1_555 1_555
O4H Zn1 1_555 1_555
O5H N2H 1_555 1_555
O6H N2H 1_555 1_555
N2H O4 1_555 1_555
O3D Zn2 1_555 1_555
N1D C4D 1_555 1_555
C4D O3D 1_555 1_555
H2D C4D 1_555 1_555
C5D N1D 1_555 1_555
H3D C5D 1_555 1_555
H4D C5D 1_555 1_555
H5D C5D 1_555 1_555
C6D N1D 1_555 1_555
H6D C6D 1_555 1_555
H7D C6D 1_555 1_555
H8D C6D 1_555 1_555
O3H Zn2 1_555 1_555
N1H C4H 1_555 1_555
C4H O3H 1_555 1_555
H2H C4H 1_555 1_555
C5H N1H 1_555 1_555
H3H C5H 1_555 1_555
H4H C5H 1_555 1_555
H5H C5H 1_555 1_555
C6H N1H 1_555 1_555
H6H C6H 1_555 1_555
H7H C6H 1_555 1_555
H8H C6H 1_555 1_555
Zn1A O1F 1_555 1_555
Zn1B O1I 1_555 1_555
Zn2A O2F 1_555 1_555
Zn2B O2I 1_555 1_555
O1D Zn1 1_555 1_555
O1H Zn1 1_555 1_555
O2D Zn2 1_555 1_555
O2H Zn2 1_555 1_555
N2 O4D 1_555 1_555
N2 O4H 1_555 1_555
C1I C2I 1_555 1_555
O4D N2D 1_555 1_555
O4D N2H 1_555 1_555
N2D O4H 1_555 1_555
O4H N2H 1_555 1_555

#END
