
#######################################################################
#
#                 Cambridge Crystallographic Data Centre
#                                CCDC 
#
#######################################################################
#
# If this CIF has been generated from an entry in the Cambridge 
# Structural Database, then it will include bibliographic, chemical, 
# crystal, experimental, refinement or atomic coordinate data resulting 
# from the CCDC's data processing and validation procedures.
#
#######################################################################

data_SENWOZ
_chemical_formula_moiety         '(C24 H36 N4 O12 Zn2)n'
_chemical_name_systematic        
catena-[(\m~6~-Benzene-1,3,5-tricarboxylato)-tris(N,N-diethylformamide)-nitrato-di-zinc(ii)]
_symmetry_cell_setting           orthorhombic
_symmetry_space_group_name_H-M   'P 21 21 21'
_symmetry_Int_Tables_number      19
_space_group_name_Hall           'P 2ac 2ab'
loop_
_symmetry_equiv_pos_site_id
_symmetry_equiv_pos_as_xyz
1 x,y,z
2 1/2-x,-y,1/2+z
3 -x,1/2+y,1/2-z
4 1/2+x,1/2-y,-z
_cell_length_a                   13.798(3)
_cell_length_b                   14.375(3)
_cell_length_c                   15.228(3)
_cell_angle_alpha                90
_cell_angle_beta                 90
_cell_angle_gamma                90
_cell_volume                     3020.42
_exptl_crystal_colour            colorless
_exptl_crystal_description       block
_cell_formula_units_Z            4
loop_
_atom_site_label
_atom_site_type_symbol
_atom_site_fract_x
_atom_site_fract_y
_atom_site_fract_z
_atom_site_U_iso_or_equiv
_atom_site_thermal_displace_type
Zn1 Zn 0.45166(11) 0.47573(10) 0.03998(10) 0.0606 Uani
Zn2 Zn 0.29143(12) 0.34379(11) 0.17847(10) 0.0678 Uani
O1 O 0.3475(7) 0.4458(6) -0.0362(6) 0.0660 Uani
O2 O 0.2850(8) 0.3303(6) 0.0430(7) 0.0750 Uani
O3 O 0.0246(7) 0.1343(7) -0.0678(6) 0.0727 Uani
O4 O -0.0567(8) 0.1781(7) -0.1861(6) 0.0787 Uani
O5 O 0.0603(8) 0.4441(6) -0.3609(6) 0.0673 Uani
O6 O 0.1969(7) 0.5131(7) -0.3227(6) 0.0697 Uani
C1 C 0.2119(10) 0.3574(8) -0.0922(8) 0.0563 Uani
C2 C 0.1482(10) 0.2854(9) -0.0832(9) 0.0613 Uani
H1 H 0.1523 0.2475 -0.0323 0.0730 Uiso
C3 C 0.0775(9) 0.2655(9) -0.1452(9) 0.0573 Uani
C4 C 0.0735(10) 0.3235(9) -0.2182(8) 0.0627 Uani
H2 H 0.0252 0.3135 -0.2616 0.0750 Uiso
C5 C 0.1399(10) 0.3964(8) -0.2285(8) 0.0583 Uani
C6 C 0.2071(10) 0.4138(8) -0.1678(8) 0.0550 Uani
H3 H 0.2513 0.4639 -0.1754 0.0660 Uiso
C7 C 0.2871(10) 0.3813(9) -0.0218(8) 0.0610 Uani
C8 C 0.0125(10) 0.1882(10) -0.1330(9) 0.0637 Uani
C9 C 0.1338(11) 0.4560(9) -0.3097(10) 0.0653 Uani
O7 O 0.5574(9) 0.5206(8) -0.0390(8) 0.0913 Uani
O8 O 0.4615(11) 0.6342(11) -0.0539(10) 0.1117 Uani
O9 O 0.5969(12) 0.6274(12) -0.1303(11) 0.1293 Uani
N1 N 0.5362(16) 0.5993(11) -0.0736(10) 0.1013 Uani
O10 O 0.1416(9) 0.3538(10) 0.1796(9) 0.0980 Uani
N2 N 0.0155(11) 0.2518(12) 0.1984(9) 0.0990 Uani
C10 C 0.0968(14) 0.2996(16) 0.2261(12) 0.1287 Uani
H4 H 0.1191 0.2898 0.2844 0.1550 Uiso
C11 C -0.0155(17) 0.2606(19) 0.1103(13) 0.1327 Uani
H5 H -0.0344 0.1991 0.0864 0.1590 Uiso
H6 H 0.0371 0.2864 0.0735 0.1590 Uiso
C12 C -0.103(2) 0.327(3) 0.111(3) 0.1873 Uani
H7 H -0.1205 0.3424 0.0509 0.2810 Uiso
H8 H -0.0855 0.3833 0.1433 0.2810 Uiso
H9 H -0.1574 0.2960 0.1403 0.2810 Uiso
C13 C -0.0398(19) 0.1924(13) 0.2560(13) 0.1337 Uani
H10 H -0.1098 0.2046 0.2477 0.1590 Uiso
H11 H -0.0233 0.2068 0.3178 0.1590 Uiso
C14 C -0.018(2) 0.0875(15) 0.2374(15) 0.1340 Uani
H12 H -0.0118 0.0778 0.1740 0.2030 Uiso
H13 H -0.0719 0.0494 0.2598 0.2030 Uiso
H14 H 0.0420 0.0695 0.2668 0.2030 Uiso
O11 O 0.2873(11) 0.3469(10) 0.3135(8) 0.1013 Uani
N3 N 0.3484(11) 0.3530(12) 0.4496(8) 0.0960 Uani
C15 C 0.3610(13) 0.3528(12) 0.3575(9) 0.0900 Uani
H15 H 0.4233 0.3569 0.3313 0.1080 Uiso
C16 C 0.4357(15) 0.3603(19) 0.4988(14) 0.1283 Uani
H16 H 0.4912 0.3410 0.4618 0.1560 Uiso
H17 H 0.4327 0.3181 0.5501 0.1560 Uiso
C17 C 0.451(4) 0.461(2) 0.530(3) 0.2267 Uani
H18 H 0.5096 0.4642 0.5666 0.3360 Uiso
H19 H 0.3949 0.4807 0.5652 0.3360 Uiso
H20 H 0.4581 0.5020 0.4795 0.3360 Uiso
C18 C 0.2578(13) 0.3534(13) 0.4921(13) 0.1130 Uani
H21 H 0.2068 0.3638 0.4474 0.1360 Uiso
H22 H 0.2560 0.4067 0.5332 0.1360 Uiso
C19 C 0.234(2) 0.267(2) 0.542(3) 0.2067 Uani
H23 H 0.2271 0.2149 0.5008 0.3070 Uiso
H24 H 0.1723 0.2760 0.5733 0.3070 Uiso
H25 H 0.2854 0.2537 0.5840 0.3070 Uiso
O12 O 0.2751(10) 0.2036(10) 0.1845(10) 0.1070 Uiso
N4 N 0.292(3) 0.051(3) 0.195(3) 0.1440 Uiso
C20 C 0.303(3) 0.135(2) 0.145(3) 0.1500 Uiso
C21 C 0.320(6) -0.033(3) 0.152(6) 0.8000 Uiso
C22 C 0.417(6) -0.055(8) 0.199(8) 0.2700 Uiso
C23 C 0.252(4) 0.061(6) 0.281(3) 0.2700 Uiso
C24 C 0.320(4) 0.031(5) 0.356(3) 0.1600 Uiso
Zn1A Zn 0.04834(11) 0.52427(10) -0.46002(10) 0.0606 Uani
Zn1C Zn -0.04834(11) 0.02427(10) -0.03998(10) 0.0606 Uani
Zn2A Zn 0.20857(12) 0.65621(11) -0.32153(10) 0.0678 Uani
Zn2C Zn -0.20857(12) 0.15621(11) -0.17847(10) 0.0678 Uani
O3C O 0.5246(7) 0.3657(7) 0.0678(6) 0.0727 Uani
O4C O 0.4433(8) 0.3219(7) 0.1861(6) 0.0787 Uani
O5A O 0.4397(8) 0.5559(6) 0.1391(6) 0.0673 Uani
O6A O 0.3031(7) 0.4869(7) 0.1773(6) 0.0697 Uani
N5? N 0.3017(18) 0.0559(15) 0.2355(19) 0.0670 Uiso
C25? C 0.3098(18) 0.1530(15) 0.2424(16) 0.0680 Uiso
C26? C 0.250(3) 0.016(3) 0.162(3) 0.1140 Uiso
C27? C 0.309(5) -0.036(5) 0.092(5) 0.1600 Uiso
C28? C 0.346(5) 0.000(4) 0.303(4) 0.8000 Uiso
C29? C 0.389(10) -0.094(6) 0.273(8) 0.2600 Uiso
loop_
_atom_site_aniso_label
_atom_site_aniso_U_11
_atom_site_aniso_U_22
_atom_site_aniso_U_33
_atom_site_aniso_U_23
_atom_site_aniso_U_13
_atom_site_aniso_U_12
Zn1 0.0729(9) 0.0562(8) 0.0528(8) -0.0039(6) 0.0005(7) 0.0033(7)
Zn2 0.0827(10) 0.0636(9) 0.0571(9) 0.0003(7) 0.0009(8) -0.0034(8)
O1 0.080(5) 0.053(5) 0.065(5) 0.009(4) 0.012(5) 0.004(4)
O2 0.105(7) 0.057(5) 0.063(5) 0.010(5) -0.009(5) 0.006(5)
O3 0.086(6) 0.071(6) 0.061(5) 0.011(4) -0.007(4) -0.007(5)
O4 0.092(7) 0.088(7) 0.056(5) 0.006(5) 0.001(5) -0.010(6)
O5 0.084(6) 0.060(5) 0.058(5) 0.006(4) -0.002(5) -0.004(5)
O6 0.085(6) 0.067(5) 0.057(5) 0.009(4) 0.003(5) -0.006(5)
C1 0.074(7) 0.041(6) 0.054(7) 0.000(5) -0.013(6) 0.008(6)
C2 0.073(8) 0.056(7) 0.055(7) 0.006(6) 0.011(6) 0.014(7)
C3 0.057(7) 0.057(7) 0.058(7) 0.010(5) 0.000(5) -0.007(6)
C4 0.078(9) 0.065(8) 0.045(6) 0.003(5) 0.006(6) -0.002(7)
C5 0.072(8) 0.046(6) 0.057(7) 0.001(5) 0.002(6) 0.006(6)
C6 0.071(7) 0.043(5) 0.051(7) -0.002(5) 0.002(6) 0.003(6)
C7 0.081(8) 0.062(7) 0.040(6) -0.005(5) -0.001(6) 0.020(7)
C8 0.057(7) 0.071(8) 0.063(8) -0.005(7) -0.007(6) -0.008(6)
C9 0.070(8) 0.059(8) 0.067(9) 0.008(6) 0.021(7) 0.002(7)
O7 0.098(7) 0.092(7) 0.084(7) 0.004(7) -0.008(6) 0.007(7)
O8 0.088(8) 0.121(11) 0.126(11) 0.013(8) 0.015(8) 0.019(8)
O9 0.136(11) 0.131(12) 0.121(11) 0.055(10) 0.029(9) -0.025(10)
N1 0.130(14) 0.088(10) 0.086(10) 0.011(8) -0.011(10) -0.010(11)
O10 0.082(7) 0.123(10) 0.089(8) 0.018(8) 0.012(6) -0.004(7)
N2 0.088(9) 0.127(12) 0.082(10) -0.042(9) 0.005(7) -0.038(9)
C10 0.137(18) 0.19(3) 0.059(11) 0.018(13) 0.012(12) 0.05(2)
C11 0.136(11) 0.135(11) 0.127(11) -0.008(9) 0.008(9) -0.027(9)
C12 0.182(16) 0.183(16) 0.197(16) -0.001(10) -0.004(10) -0.014(10)
C13 0.18(2) 0.136(18) 0.085(13) -0.017(12) 0.040(15) -0.071(19)
C14 0.20(3) 0.124(18) 0.078(13) 0.006(12) -0.029(15) -0.030(19)
O11 0.129(10) 0.093(8) 0.082(8) -0.005(7) 0.001(8) -0.006(8)
N3 0.123(11) 0.098(10) 0.067(8) -0.016(8) 0.003(9) 0.028(9)
C15 0.104(13) 0.070(9) 0.096(12) 0.009(9) 0.015(11) 0.002(10)
C16 0.137(17) 0.15(2) 0.098(14) 0.013(14) -0.028(13) 0.047(17)
C17 0.33(6) 0.16(3) 0.19(3) 0.04(3) 0.06(4) -0.01(3)
C18 0.137(17) 0.084(12) 0.118(16) 0.002(11) -0.039(14) -0.001(12)
C19 0.15(2) 0.15(3) 0.32(5) 0.10(3) 0.07(3) 0.07(2)
Zn1A 0.0729 0.0562 0.0528 0.0039 -0.0005 0.0033
Zn1C 0.0729 0.0562 0.0528 -0.0039 -0.0005 -0.0033
Zn2A 0.0827 0.0636 0.0571 -0.0003 -0.0009 -0.0034
Zn2C 0.0827 0.0636 0.0571 0.0003 -0.0009 0.0034
O3C 0.086 0.071 0.061 0.011 0.007 0.007
O4C 0.092 0.088 0.056 0.006 -0.001 0.01
O5A 0.084 0.06 0.058 -0.006 0.002 -0.004
O6A 0.085 0.067 0.057 -0.009 -0.003 -0.006
loop_
_geom_bond_atom_site_label_1
_geom_bond_atom_site_label_2
_geom_bond_site_symmetry_1
_geom_bond_site_symmetry_2
Zn1 O1 1_555 1_555
Zn2 O2 1_555 1_555
O1 C7 1_555 1_555
O2 C7 1_555 1_555
O3 C8 1_555 1_555
O4 C8 1_555 1_555
O5 C9 1_555 1_555
O6 C9 1_555 1_555
C1 C2 1_555 1_555
C2 H1 1_555 1_555
C3 C2 1_555 1_555
C4 C3 1_555 1_555
H2 C4 1_555 1_555
C5 C4 1_555 1_555
C6 C1 1_555 1_555
H3 C6 1_555 1_555
C7 C1 1_555 1_555
C8 C3 1_555 1_555
C9 C5 1_555 1_555
O7 Zn1 1_555 1_555
O8 N1 1_555 1_555
O9 N1 1_555 1_555
N1 O7 1_555 1_555
O10 Zn2 1_555 1_555
N2 C10 1_555 1_555
C10 O10 1_555 1_555
H4 C10 1_555 1_555
C11 N2 1_555 1_555
H5 C11 1_555 1_555
H6 C11 1_555 1_555
C12 C11 1_555 1_555
H7 C12 1_555 1_555
H8 C12 1_555 1_555
H9 C12 1_555 1_555
C13 N2 1_555 1_555
H10 C13 1_555 1_555
H11 C13 1_555 1_555
C14 C13 1_555 1_555
H12 C14 1_555 1_555
H13 C14 1_555 1_555
H14 C14 1_555 1_555
O11 Zn2 1_555 1_555
N3 C15 1_555 1_555
C15 O11 1_555 1_555
H15 C15 1_555 1_555
C16 N3 1_555 1_555
H16 C16 1_555 1_555
H17 C16 1_555 1_555
C17 C16 1_555 1_555
H18 C17 1_555 1_555
H19 C17 1_555 1_555
H20 C17 1_555 1_555
C18 N3 1_555 1_555
H21 C18 1_555 1_555
H22 C18 1_555 1_555
C19 C18 1_555 1_555
H23 C19 1_555 1_555
H24 C19 1_555 1_555
H25 C19 1_555 1_555
O12 Zn2 1_555 1_555
N4 C20 1_555 1_555
C20 O12 1_555 1_555
C21 N4 1_555 1_555
C22 C21 1_555 1_555
C23 N4 1_555 1_555
C24 C23 1_555 1_555
Zn1A O5 1_555 1_555
Zn1C O3 1_555 1_555
Zn2A O6 1_555 1_555
Zn2C O4 1_555 1_555
O3C Zn1 1_555 1_555
O4C Zn2 1_555 1_555
O5A Zn1 1_555 1_555
O6A Zn2 1_555 1_555
C5 C6 1_555 1_555

#END
