
#######################################################################
#
#                 Cambridge Crystallographic Data Centre
#                                CCDC 
#
#######################################################################
#
# If this CIF has been generated from an entry in the Cambridge 
# Structural Database, then it will include bibliographic, chemical, 
# crystal, experimental, refinement or atomic coordinate data resulting 
# from the CCDC's data processing and validation procedures.
#
#######################################################################

data_SENWIT
_chemical_formula_moiety         '(C21 H30 N4 O12 Zn2)n'
_chemical_name_systematic        
catena-[(\m~6~-Benzene-1,3,5-tricarboxylato)-tris(N,N-dimethylacetamide)-nitrato-di-zinc(ii)]
_symmetry_cell_setting           orthorhombic
_symmetry_space_group_name_H-M   'P 21 21 21'
_symmetry_Int_Tables_number      19
_space_group_name_Hall           'P 2ac 2ab'
loop_
_symmetry_equiv_pos_site_id
_symmetry_equiv_pos_as_xyz
1 x,y,z
2 1/2-x,-y,1/2+z
3 -x,1/2+y,1/2-z
4 1/2+x,1/2-y,-z
_cell_length_a                   12.662(3)
_cell_length_b                   14.662(3)
_cell_length_c                   15.434(3)
_cell_angle_alpha                90
_cell_angle_beta                 90
_cell_angle_gamma                90
_cell_volume                     2865.33
_exptl_crystal_colour            colorless
_exptl_crystal_description       rod
_cell_formula_units_Z            4
loop_
_atom_site_label
_atom_site_type_symbol
_atom_site_fract_x
_atom_site_fract_y
_atom_site_fract_z
_atom_site_U_iso_or_equiv
_atom_site_thermal_displace_type
Zn1 Zn 0.51137(3) 0.02411(2) 0.95292(2) 0.0273 Uani
Zn2 Zn 0.70174(3) 0.16900(2) 0.84017(2) 0.0304 Uani
O1 O 0.42916(16) 0.12970(14) 0.91789(15) 0.0324 Uani
O2 O 0.53864(15) 0.17708(16) 0.81289(13) 0.0326 Uani
O3 O 0.44553(17) 0.44998(15) 0.64630(15) 0.0362 Uani
O4 O 0.30058(17) 0.52925(16) 0.68007(16) 0.0426 Uani
O5 O 0.12479(16) 0.46910(14) 0.95996(15) 0.0351 Uani
O6 O 0.15919(16) 0.33973(15) 1.02955(14) 0.0332 Uani
C1 C 0.3931(2) 0.2703(2) 0.8504(2) 0.0264 Uani
C2 C 0.4079(2) 0.3267(2) 0.77920(19) 0.0292 Uani
H1 H 0.4597 0.3114 0.7371 0.0350 Uiso
C3 C 0.3481(2) 0.4052(2) 0.7685(2) 0.0286 Uani
C4 C 0.2718(2) 0.4276(2) 0.8307(2) 0.0293 Uani
H2 H 0.2299 0.4809 0.8236 0.0350 Uiso
C5 C 0.2570(2) 0.3720(2) 0.9031(2) 0.0264 Uani
C6 C 0.3175(2) 0.2926(2) 0.9130(2) 0.0280 Uani
H3 H 0.3072 0.2542 0.9618 0.0340 Uiso
C7 C 0.4597(2) 0.1864(2) 0.86090(19) 0.0285 Uani
C8 C 0.3649(2) 0.4675(2) 0.6928(2) 0.0317 Uani
C9 C 0.1761(2) 0.3952(2) 0.9693(2) 0.0303 Uani
O7 O 0.4060(2) -0.07295(19) 0.98611(18) 0.0529 Uani
O8 O 0.3887(3) 0.0163(2) 1.0956(2) 0.0731 Uani
O9 O 0.2995(3) -0.1081(3) 1.0909(3) 0.0997 Uani
N1 N 0.3630(3) -0.0545(2) 1.0583(3) 0.0598 Uani
O10 O 0.7600(2) 0.1835(2) 0.71491(18) 0.0650 Uani
N2 N 0.8109(3) 0.1966(2) 0.5779(2) 0.0640 Uani
C10 C 0.7363(3) 0.1892(3) 0.6373(3) 0.0497 Uani
C11 C 0.6227(4) 0.1908(4) 0.6095(3) 0.0840 Uani
H4 H 0.5771 0.1846 0.6605 0.1260 Uiso
H5 H 0.6093 0.1401 0.5695 0.1260 Uiso
H6 H 0.6075 0.2487 0.5803 0.1260 Uiso
C12 C 0.7905(6) 0.1945(5) 0.4853(3) 0.1107 Uani
H7 H 0.7284 0.1565 0.4737 0.1660 Uiso
H8 H 0.8519 0.1690 0.4551 0.1660 Uiso
H9 H 0.7774 0.2566 0.4644 0.1660 Uiso
C13 C 0.9217(4) 0.1970(4) 0.6080(4) 0.1010 Uani
H10 H 0.9286 0.2382 0.6577 0.1520 Uiso
H11 H 0.9678 0.2179 0.5610 0.1520 Uiso
H12 H 0.9422 0.1352 0.6253 0.1520 Uiso
O11 O 0.7094(2) 0.30830(17) 0.8522(2) 0.0661 Uani
N3 N 0.6507(7) 0.4445(5) 0.8060(7) 0.0673 Uani
C14 C 0.6610(9) 0.3768(8) 0.8639(8) 0.0530 Uani
C15 C 0.6141(13) 0.3821(9) 0.9516(9) 0.0723 Uani
H13 H 0.5416 0.4053 0.9474 0.1080 Uiso
H14 H 0.6562 0.4234 0.9876 0.1080 Uiso
H15 H 0.6133 0.3213 0.9778 0.1080 Uiso
C16 C 0.5945(19) 0.5284(10) 0.8232(17) 0.0793 Uani
H16 H 0.5558 0.5228 0.8779 0.1190 Uiso
H17 H 0.5445 0.5403 0.7760 0.1190 Uiso
H18 H 0.6449 0.5789 0.8272 0.1190 Uiso
C17 C 0.6972(11) 0.4363(10) 0.7216(10) 0.0747 Uani
H19 H 0.7610 0.3986 0.7252 0.1120 Uiso
H20 H 0.7158 0.4970 0.6999 0.1120 Uiso
H21 H 0.6466 0.4077 0.6820 0.1120 Uiso
O12 O 0.85711(17) 0.14895(17) 0.87917(17) 0.0450 Uani
N4 N 1.0173(4) 0.1212(4) 0.8255(4) 0.0653 Uani
C18 C 0.9430(4) 0.1781(4) 0.8553(4) 0.0457 Uani
C19 C 0.9671(8) 0.2779(5) 0.8654(7) 0.0593 Uani
H22 H 0.9027 0.3104 0.8823 0.0890 Uiso
H23 H 0.9932 0.3023 0.8103 0.0890 Uiso
H24 H 1.0211 0.2860 0.9103 0.0890 Uiso
C20 C 1.1259(5) 0.1472(6) 0.8056(7) 0.0757 Uani
H25 H 1.1325 0.2137 0.8077 0.1130 Uiso
H26 H 1.1444 0.1254 0.7475 0.1130 Uiso
H27 H 1.1737 0.1198 0.8483 0.1130 Uiso
C21 C 0.9905(9) 0.0249(6) 0.8149(9) 0.0810 Uani
H28 H 0.9135 0.0177 0.8153 0.1210 Uiso
H29 H 1.0212 -0.0104 0.8626 0.1210 Uiso
H30 H 1.0187 0.0027 0.7596 0.1210 Uiso
Zn1B Zn 0.48863(3) 0.52411(2) 0.54708(2) 0.0273 Uani
Zn1C Zn 0.01137(3) 0.47589(2) 1.04708(2) 0.0273 Uani
Zn2B Zn 0.29826(3) 0.66900(2) 0.65983(2) 0.0304 Uani
Zn2C Zn 0.20174(3) 0.33100(2) 1.15983(2) 0.0304 Uani
O3B O 0.55447(17) -0.05002(15) 0.85370(15) 0.0362 Uani
O4B O 0.69942(17) 0.02925(16) 0.81993(16) 0.0426 Uani
O5C O 0.62479(16) 0.03090(14) 1.04004(15) 0.0351 Uani
O6C O 0.65919(16) 0.16027(15) 0.97045(14) 0.0332 Uani
N5? N 0.6161(7) 0.4398(6) 0.8775(9) 0.0733 Uani
C22? C 0.6749(9) 0.3818(8) 0.8291(9) 0.0437 Uani
C23? C 0.7082(15) 0.4076(11) 0.7422(9) 0.0700 Uani
H31? H 0.7595 0.4575 0.7458 0.1050 Uiso
H32? H 0.6466 0.4278 0.7088 0.1050 Uiso
H33? H 0.7407 0.3550 0.7135 0.1050 Uiso
C24? C 0.577(2) 0.5277(14) 0.8502(19) 0.0987 Uani
H34? H 0.6098 0.5757 0.8851 0.1460 Uiso
H35? H 0.4999 0.5297 0.8581 0.1460 Uiso
H36? H 0.5937 0.5372 0.7889 0.1460 Uiso
C25? C 0.5930(16) 0.4164(11) 0.9671(11) 0.0940 Uani
H37? H 0.6091 0.3519 0.9770 0.1410 Uiso
H38? H 0.5181 0.4275 0.9790 0.1410 Uiso
H39? H 0.6362 0.4541 1.0058 0.1410 Uiso
N6? N 1.0134(8) 0.1980(8) 0.8178(8) 0.0450 Uani
C26? C 0.9399(9) 0.1302(10) 0.8373(9) 0.0457 Uani
C27? C 0.959(3) 0.0352(18) 0.802(3) 0.0803 Uani
H40? H 0.9859 -0.0040 0.8485 0.1200 Uiso
H41? H 1.0104 0.0379 0.7549 0.1200 Uiso
H42? H 0.8922 0.0100 0.7803 0.1200 Uiso
C28? C 1.1126(13) 0.1793(16) 0.7711(14) 0.0573 Uani
H43? H 1.1139 0.1153 0.7529 0.0860 Uiso
H44? H 1.1727 0.1915 0.8093 0.0860 Uiso
H45? H 1.1170 0.2187 0.7199 0.0860 Uiso
C29? C 0.987(3) 0.2899(13) 0.8458(19) 0.0547 Uani
H46? H 0.9809 0.2913 0.9091 0.0810 Uiso
H47? H 0.9193 0.3081 0.8199 0.0810 Uiso
H48? H 1.0422 0.3322 0.8272 0.0810 Uiso
loop_
_atom_site_aniso_label
_atom_site_aniso_U_11
_atom_site_aniso_U_22
_atom_site_aniso_U_33
_atom_site_aniso_U_23
_atom_site_aniso_U_13
_atom_site_aniso_U_12
Zn1 0.03176(17) 0.02373(16) 0.02649(18) -0.00194(14) 0.00107(13) 0.00148(14)
Zn2 0.03144(18) 0.03024(18) 0.02947(19) -0.00044(15) 0.00404(14) -0.00106(15)
O1 0.0333(11) 0.0272(10) 0.0366(13) 0.0069(9) 0.0035(9) 0.0047(9)
O2 0.0297(10) 0.0428(12) 0.0254(11) -0.0001(10) 0.0006(8) 0.0091(10)
O3 0.0413(11) 0.0358(12) 0.0314(13) 0.0100(9) 0.0034(10) -0.0034(10)
O4 0.0335(11) 0.0378(12) 0.0565(16) 0.0238(11) 0.0001(11) 0.0003(11)
O5 0.0354(11) 0.0329(11) 0.0369(13) -0.0020(11) 0.0024(9) 0.0063(10)
O6 0.0379(11) 0.0346(11) 0.0270(12) 0.0006(9) 0.0032(8) -0.0034(10)
C1 0.0286(13) 0.0261(13) 0.0244(15) 0.0015(12) 0.0006(11) -0.0023(12)
C2 0.0286(13) 0.0301(15) 0.0290(16) 0.0016(13) -0.0016(12) 0.0007(14)
C3 0.0288(14) 0.0270(14) 0.0301(17) 0.0056(12) -0.0003(12) -0.0038(12)
C4 0.0304(14) 0.0255(14) 0.0320(17) 0.0024(12) -0.0027(12) -0.0010(12)
C5 0.0266(13) 0.0267(14) 0.0259(16) -0.0017(12) -0.0009(11) -0.0011(12)
C6 0.0305(15) 0.0293(15) 0.0243(15) 0.0052(11) -0.0018(11) -0.0021(13)
C7 0.0279(14) 0.0311(15) 0.0265(16) -0.0002(12) -0.0005(11) 0.0023(12)
C8 0.0340(15) 0.0312(15) 0.0299(16) 0.0071(13) -0.0038(12) -0.0036(14)
C9 0.0330(15) 0.0329(16) 0.0249(17) -0.0054(12) -0.0019(12) -0.0045(13)
O7 0.0569(15) 0.0468(15) 0.0549(18) -0.0012(13) 0.0093(13) -0.0057(14)
O8 0.082(2) 0.0563(18) 0.081(2) -0.0149(17) 0.0271(18) -0.0064(18)
O9 0.092(2) 0.085(3) 0.122(3) 0.016(2) 0.052(2) -0.035(2)
N1 0.0528(19) 0.0466(19) 0.080(3) 0.0091(19) 0.0225(19) 0.0062(16)
O10 0.0635(17) 0.095(2) 0.0365(16) 0.0109(17) 0.0177(13) 0.0102(18)
N2 0.089(3) 0.056(2) 0.047(2) 0.0060(16) 0.0293(19) 0.021(2)
C10 0.068(2) 0.041(2) 0.040(2) 0.0050(16) 0.0136(18) 0.0065(19)
C11 0.073(3) 0.123(5) 0.056(3) -0.006(3) 0.001(2) -0.012(3)
C12 0.163(6) 0.125(5) 0.044(3) 0.014(3) 0.033(3) 0.055(5)
C13 0.077(3) 0.120(5) 0.106(5) 0.008(4) 0.056(3) 0.013(4)
O11 0.0621(17) 0.0261(13) 0.110(3) 0.0099(14) -0.0014(18) -0.0021(13)
N3 0.068(6) 0.044(5) 0.090(8) 0.006(5) -0.045(6) -0.005(4)
C14 0.049(6) 0.037(6) 0.073(10) -0.001(6) -0.010(6) -0.013(5)
C15 0.084(8) 0.048(6) 0.085(9) -0.012(6) -0.012(7) 0.009(6)
C16 0.091(14) 0.035(6) 0.112(13) -0.018(6) -0.052(10) 0.017(7)
C17 0.059(6) 0.078(9) 0.087(10) 0.037(7) -0.031(7) -0.014(7)
O12 0.0305(11) 0.0487(15) 0.0558(17) -0.0076(12) -0.0031(11) -0.0045(12)
N4 0.039(3) 0.071(4) 0.086(4) -0.029(3) 0.010(2) -0.008(2)
C18 0.035(3) 0.045(3) 0.057(3) -0.014(3) -0.002(2) -0.005(2)
C19 0.052(4) 0.057(4) 0.069(6) -0.015(4) 0.002(4) -0.015(3)
C20 0.043(3) 0.087(6) 0.097(6) -0.022(4) 0.011(4) 0.000(4)
C21 0.070(5) 0.058(4) 0.115(7) -0.033(4) 0.000(5) -0.003(4)
Zn1B 0.03176 0.02373 0.02649 0.00194 0.00107 -0.00148
Zn1C 0.03176 0.02373 0.02649 -0.00194 -0.00107 -0.00148
Zn2B 0.03144 0.03024 0.02947 0.00044 0.00404 0.00106
Zn2C 0.03144 0.03024 0.02947 -0.00044 -0.00404 0.00106
O3B 0.0413 0.0358 0.0314 -0.01 0.0034 0.0034
O4B 0.0335 0.0378 0.0565 -0.0238 0.0001 -0.0003
O5C 0.0354 0.0329 0.0369 -0.002 -0.0024 -0.0063
O6C 0.0379 0.0346 0.027 0.0006 -0.0032 0.0034
N5? 0.058(5) 0.047(6) 0.115(12) -0.027(6) -0.021(6) 0.002(5)
C22? 0.031(5) 0.027(6) 0.073(10) -0.003(6) -0.013(5) -0.008(4)
C23? 0.095(10) 0.058(8) 0.057(8) 0.031(6) -0.036(7) -0.016(8)
C24? 0.062(8) 0.074(12) 0.16(3) -0.033(12) -0.033(12) 0.042(9)
C25? 0.099(11) 0.079(12) 0.104(13) -0.029(11) 0.033(9) -0.005(11)
N6? 0.031(6) 0.051(7) 0.053(7) -0.009(5) 0.007(5) -0.010(5)
C26? 0.038(7) 0.048(8) 0.051(8) -0.013(7) -0.002(6) 0.003(7)
C27? 0.081(14) 0.071(13) 0.089(13) -0.013(9) -0.004(9) 0.009(9)
C28? 0.037(7) 0.070(10) 0.065(9) -0.005(7) 0.010(7) -0.005(7)
C29? 0.064(11) 0.049(9) 0.051(10) -0.005(7) 0.012(8) -0.005(8)
loop_
_geom_bond_atom_site_label_1
_geom_bond_atom_site_label_2
_geom_bond_site_symmetry_1
_geom_bond_site_symmetry_2
Zn1 O1 1_555 1_555
Zn2 O2 1_555 1_555
O1 C7 1_555 1_555
O2 C7 1_555 1_555
O3 C8 1_555 1_555
O4 C8 1_555 1_555
O5 C9 1_555 1_555
O6 C9 1_555 1_555
C1 C2 1_555 1_555
C2 H1 1_555 1_555
C3 C2 1_555 1_555
C4 C3 1_555 1_555
H2 C4 1_555 1_555
C5 C4 1_555 1_555
C6 C1 1_555 1_555
H3 C6 1_555 1_555
C7 C1 1_555 1_555
C8 C3 1_555 1_555
C9 C5 1_555 1_555
O7 Zn1 1_555 1_555
O8 N1 1_555 1_555
O9 N1 1_555 1_555
N1 O7 1_555 1_555
O10 Zn2 1_555 1_555
N2 C10 1_555 1_555
C10 O10 1_555 1_555
C11 C10 1_555 1_555
H4 C11 1_555 1_555
H5 C11 1_555 1_555
H6 C11 1_555 1_555
C12 N2 1_555 1_555
H7 C12 1_555 1_555
H8 C12 1_555 1_555
H9 C12 1_555 1_555
C13 N2 1_555 1_555
H10 C13 1_555 1_555
H11 C13 1_555 1_555
H12 C13 1_555 1_555
O11 Zn2 1_555 1_555
N3 C14 1_555 1_555
C14 O11 1_555 1_555
C15 C14 1_555 1_555
H13 C15 1_555 1_555
H14 C15 1_555 1_555
H15 C15 1_555 1_555
C16 N3 1_555 1_555
H16 C16 1_555 1_555
H17 C16 1_555 1_555
H18 C16 1_555 1_555
C17 N3 1_555 1_555
H19 C17 1_555 1_555
H20 C17 1_555 1_555
H21 C17 1_555 1_555
O12 Zn2 1_555 1_555
N4 C18 1_555 1_555
C18 O12 1_555 1_555
C19 C18 1_555 1_555
H22 C19 1_555 1_555
H23 C19 1_555 1_555
H24 C19 1_555 1_555
C20 N4 1_555 1_555
H25 C20 1_555 1_555
H26 C20 1_555 1_555
H27 C20 1_555 1_555
C21 N4 1_555 1_555
H28 C21 1_555 1_555
H29 C21 1_555 1_555
H30 C21 1_555 1_555
Zn1B O3 1_555 1_555
Zn1C O5 1_555 1_555
Zn2B O4 1_555 1_555
Zn2C O6 1_555 1_555
O3B Zn1 1_555 1_555
O4B Zn2 1_555 1_555
O5C Zn1 1_555 1_555
O6C Zn2 1_555 1_555
C5 C6 1_555 1_555

#END
