
#######################################################################
#
#                 Cambridge Crystallographic Data Centre
#                                CCDC 
#
#######################################################################
#
# If this CIF has been generated from an entry in the Cambridge 
# Structural Database, then it will include bibliographic, chemical, 
# crystal, experimental, refinement or atomic coordinate data resulting 
# from the CCDC's data processing and validation procedures.
#
#######################################################################

data_LUYHOD
_chemical_name_common            'CID-3 dimethylformamide clathrate'
_chemical_formula_moiety         '(C22 H14 N2 O4 Zn1)n,n(C3 H7 N1 O1)'
_chemical_name_systematic        
"catena-((\m~3~-Naphthalene-2,7-dicarboxylato)-(\m~2~-4,4'-bipyridine-N,N')-zinc dimethylformamide clathrate)"
_symmetry_cell_setting           monoclinic
_symmetry_space_group_name_H-M   'C 2/c'
_symmetry_Int_Tables_number      15
_space_group_name_Hall           '-C 2yc'
loop_
_symmetry_equiv_pos_site_id
_symmetry_equiv_pos_as_xyz
1 x,y,z
2 -x,y,1/2-z
3 1/2+x,1/2+y,z
4 1/2-x,1/2+y,1/2-z
5 -x,-y,-z
6 x,-y,1/2+z
7 1/2-x,1/2-y,-z
8 1/2+x,1/2-y,1/2+z
_cell_length_a                   16.14(4)
_cell_length_b                   11.35(3)
_cell_length_c                   24.67(9)
_cell_angle_alpha                90
_cell_angle_beta                 102.11(7)
_cell_angle_gamma                90
_cell_volume                     4418.7
_exptl_crystal_colour            colorless
_exptl_crystal_description       plate
_cell_formula_units_Z            8
loop_
_atom_site_label
_atom_site_type_symbol
_atom_site_fract_x
_atom_site_fract_y
_atom_site_fract_z
Zn1 Zn 0.08543(3) 0.49638(3) 0.201937(18)
C1 C 0.1361(3) 0.4657(4) 0.41976(16)
H1 H 0.0795 0.4911 0.4146
C2 C 0.1490(3) 0.4654(4) 0.52042(17)
H2 H 0.0921 0.4894 0.5155
C3 C 0.1222(3) 0.4796(3) 0.31842(17)
C4 C 0.1721(3) 0.4496(3) 0.37517(15)
C5 C 0.1836(3) 0.4445(3) 0.47385(16)
C6 C 0.1965(3) 0.4514(4) 0.57318(16)
C7 C 0.2677(3) 0.4035(4) 0.48169(17)
C8 C 0.3023(3) 0.3845(4) 0.43440(19)
H3 H 0.3579 0.3557 0.4385
C9 C 0.2555(3) 0.4078(4) 0.38270(17)
H4 H 0.2796 0.3956 0.3516
C10 C 0.2793(3) 0.4101(5) 0.58065(18)
H5 H 0.3114 0.3988 0.6167
C11 C 0.3145(3) 0.3858(5) 0.53611(19)
H6 H 0.3703 0.3570 0.5418
O1 O 0.0452(2) 0.4985(2) 0.31164(14)
O2 O 0.0806(2) 0.4931(2) 0.61486(14)
O3 O 0.1616(2) 0.4826(2) 0.27968(12)
O4 O 0.2065(2) 0.4872(3) 0.66864(13)
N1 N 0.0811(2) 0.3065(3) 0.20159(13)
N2 N 0.0813(2) -0.3151(3) 0.20662(13)
C12 C 0.0809(2) 0.0611(4) 0.20377(15)
C13 C 0.0807(2) -0.0706(4) 0.20490(16)
C14 C 0.1592(3) 0.4779(3) 0.62228(18)
C15 C 0.0348(3) -0.2569(4) 0.16442(18)
H7 H 0.0016 -0.2997 0.1351
C16 C 0.0153(3) 0.2446(4) 0.1744(2)
H8 H -0.0311 0.2860 0.1536
C17 C 0.1513(3) 0.1235(3) 0.23121(18)
H9 H 0.1995 0.0843 0.2510
C18 C 0.1481(3) 0.2463(3) 0.22848(19)
H10 H 0.1959 0.2889 0.2466
C19 C 0.0112(3) 0.1233(4) 0.1749(2)
H11 H -0.0376 0.0836 0.1563
C20 C 0.0335(3) -0.1347(4) 0.16210(19)
H12 H 0.0004 -0.0959 0.1314
C21 C 0.1275(3) -0.1325(3) 0.24995(17)
H13 H 0.1597 -0.0924 0.2806
C22 C 0.1252(3) -0.2539(3) 0.24840(18)
H14 H 0.1568 -0.2953 0.2788
Zn1A Zn -0.08543(3) 0.49638(3) 0.298063(18)
Zn1E Zn 0.08543(3) 0.50362(3) 0.701937(18)
Zn1_2 Zn 0.08543(3) -0.50362(3) 0.201937(18)
O1A O -0.0452(2) 0.4985(2) 0.18836(14)
O2E O 0.0806(2) 0.5069(2) 0.11486(14)
O4E O 0.2065(2) 0.5128(3) 0.16864(13)
N2_2 N 0.0813(2) 0.6849(3) 0.20662(13)
N3 N 0.1266(5) 0.2129(6) 0.0296(3)
C23 C 0.1775(6) 0.2058(6) 0.0813(3)
H15 H 0.1448 0.2247 0.1089
H16 H 0.2240 0.2611 0.0841
H17 H 0.1998 0.1264 0.0876
C24 C 0.1503(7) 0.1908(9) -0.0183(4)
H18 H 0.2076 0.1726 -0.0166
O5 O 0.1046(7) 0.1926(8) -0.0623(4)
C25 C 0.0428(8) 0.2403(13) 0.0253(6)
H19 H 0.0317 0.2528 0.0620
H20 H 0.0080 0.1759 0.0073
H21 H 0.0295 0.3115 0.0035
loop_
_geom_bond_atom_site_label_1
_geom_bond_atom_site_label_2
_geom_bond_site_symmetry_1
_geom_bond_site_symmetry_2
Zn1 O3 1_555 1_555
C1 H1 1_555 1_555
C2 H2 1_555 1_555
C3 C4 1_555 1_555
C4 C1 1_555 1_555
C5 C1 1_555 1_555
C6 C2 1_555 1_555
C7 C5 1_555 1_555
C8 C7 1_555 1_555
H3 C8 1_555 1_555
C9 C4 1_555 1_555
H4 C9 1_555 1_555
C10 C6 1_555 1_555
H5 C10 1_555 1_555
C11 C7 1_555 1_555
H6 C11 1_555 1_555
O1 C3 1_555 1_555
O2 C14 1_555 1_555
O3 C3 1_555 1_555
O4 C14 1_555 1_555
N1 Zn1 1_555 1_555
N2 C15 1_555 1_555
C12 C13 1_555 1_555
C13 C20 1_555 1_555
C14 C6 1_555 1_555
C15 H7 1_555 1_555
C16 N1 1_555 1_555
H8 C16 1_555 1_555
C17 C12 1_555 1_555
H9 C17 1_555 1_555
C18 N1 1_555 1_555
H10 C18 1_555 1_555
C19 C12 1_555 1_555
H11 C19 1_555 1_555
C20 C15 1_555 1_555
H12 C20 1_555 1_555
C21 C13 1_555 1_555
H13 C21 1_555 1_555
C22 N2 1_555 1_555
H14 C22 1_555 1_555
N3 C23 1_555 1_555
C23 H15 1_555 1_555
H16 C23 1_555 1_555
H17 C23 1_555 1_555
C24 N3 1_555 1_555
H18 C24 1_555 1_555
O5 C24 1_555 1_555
C25 N3 1_555 1_555
H19 C25 1_555 1_555
H20 C25 1_555 1_555
H21 C25 1_555 1_555
Zn1A O1 1_555 1_555
Zn1E O2 1_555 1_555
Zn1_2 N2 1_555 1_555
O1A Zn1 1_555 1_555
O2E Zn1 1_555 1_555
O4E Zn1 1_555 1_555
N2_2 Zn1 1_555 1_555
C2 C5 1_555 1_555
C8 C9 1_555 1_555
C10 C11 1_555 1_555
O4 Zn1E 1_555 1_555
C16 C19 1_555 1_555
C17 C18 1_555 1_555
C21 C22 1_555 1_555

#END
