
#######################################################################
#
#                 Cambridge Crystallographic Data Centre
#                                CCDC 
#
#######################################################################
#
# If this CIF has been generated from an entry in the Cambridge 
# Structural Database, then it will include bibliographic, chemical, 
# crystal, experimental, refinement or atomic coordinate data resulting 
# from the CCDC's data processing and validation procedures.
#
#######################################################################

data_XOMCUZ
_chemical_formula_moiety         '(C44 H28 N6 O8 Zn2)n,2(H2 O1)'
_chemical_name_systematic        
"catena-[bis(\m-5-(1,4-dihydropyridin-4-yl)isophthalato)-(\m-1,1'-biphenyl-4,4'-diylbis(1H-imidazole))-di-zinc dihydrate]"
_symmetry_cell_setting           tetragonal
_symmetry_space_group_name_H-M   'P 42/m'
_symmetry_Int_Tables_number      84
_space_group_name_Hall           '-P 4c'
loop_
_symmetry_equiv_pos_site_id
_symmetry_equiv_pos_as_xyz
1 x,y,z
2 -x,-y,z
3 -y,x,1/2+z
4 y,-x,1/2+z
5 -x,-y,-z
6 x,y,-z
7 y,-x,1/2-z
8 -y,x,1/2-z
_cell_length_a                   14.9438(5)
_cell_length_b                   14.9438(5)
_cell_length_c                   10.1290(7)
_cell_angle_alpha                90
_cell_angle_beta                 90
_cell_angle_gamma                90
_cell_volume                     2261.98
_cell_formula_units_Z            2
loop_
_atom_site_label
_atom_site_type_symbol
_atom_site_fract_x
_atom_site_fract_y
_atom_site_fract_z
Zn1 Zn 0.56338(5) 0.15412(5) 1.0000
C1 C 0.3712(5) 0.1246(6) 1.0000
H1 H 0.3820 0.0633 1.0000
C2 C 0.3030(8) 0.2508(8) 1.0000
H2 H 0.2589 0.2948 1.0000
C3 C 0.3909(7) 0.2642(7) 1.0000
H3 H 0.4189 0.3198 1.0000
C4 C 0.2065(7) 0.1151(8) 1.0000
C5 C 0.2030(9) 0.0241(10) 1.0000
H4 H 0.2557 -0.0091 1.0000
C6 C 0.1232(9) -0.0178(11) 1.0000
H5 H 0.1235 -0.0800 1.0000
C7 C 0.0422(8) 0.0239(9) 1.0000
C8 C 0.0486(9) 0.1148(10) 1.0000
H6 H -0.0041 0.1479 1.0000
C9 C 0.1270(8) 0.1597(9) 1.0000
H7 H 0.1267 0.2219 1.0000
C10 C 1.0644(3) 0.4033(3) 1.1187(5)
C11 C 1.1119(4) 0.4230(3) 1.2462(5)
C12 C 0.9344(5) 0.3513(5) 1.0000
C13 C 0.9785(4) 0.3690(3) 1.1184(5)
H8 H 0.9498 0.3577 1.1982
C14 C 1.1076(5) 0.4209(5) 1.0000
H9 H 1.1652 0.4445 1.0000
C15 C 0.8429(5) 0.3141(5) 1.0000
C16 C 0.8186(9) 0.2533(9) 0.8977(14)
H10 H 0.8590 0.2381 0.8317
C17 C 0.7338(9) 0.2176(10) 0.8993(14)
H11 H 0.7164 0.1796 0.8313
N1 N 0.6730(4) 0.2368(5) 1.0000
N2 N 0.4331(4) 0.1845(4) 1.0000
N3 N 0.2895(5) 0.1611(5) 1.0000
O1 O 1.0699(3) 0.4072(3) 1.3525(4)
O2 O 1.1896(3) 0.4525(3) 1.2437(5)
C1A C -0.3712(5) -0.1246(6) 1.0000
H1A H -0.3820 -0.0633 1.0000
C2A C -0.3030(8) -0.2508(8) 1.0000
H2A H -0.2589 -0.2948 1.0000
C3A C -0.3909(7) -0.2642(7) 1.0000
H3A H -0.4189 -0.3198 1.0000
C4A C -0.2065(7) -0.1151(8) 1.0000
C5A C -0.2030(9) -0.0241(10) 1.0000
H4A H -0.2557 0.0091 1.0000
C6A C -0.1232(9) 0.0178(11) 1.0000
H5A H -0.1235 0.0800 1.0000
C7A C -0.0422(8) -0.0239(9) 1.0000
C8A C -0.0486(9) -0.1148(10) 1.0000
H6A H 0.0041 -0.1479 1.0000
C9A C -0.1270(8) -0.1597(9) 1.0000
H7A H -0.1267 -0.2219 1.0000
N2A N -0.4331(4) -0.1845(4) 1.0000
N3A N -0.2895(5) -0.1611(5) 1.0000
C16E C 0.8186(9) 0.2533(9) 1.1023(14)
H10E H 0.8590 0.2381 1.1683
C17E C 0.7338(9) 0.2176(10) 1.1007(14)
H11E H 0.7164 0.1796 1.1687
C10E C 1.0644(3) 0.4033(3) 0.8813(5)
C11E C 1.1119(4) 0.4230(3) 0.7538(5)
C13E C 0.9785(4) 0.3690(3) 0.8816(5)
H8E H 0.9498 0.3577 0.8018
O1E O 1.0699(3) 0.4072(3) 0.6475(4)
O2E O 1.1896(3) 0.4525(3) 0.7563(5)
Zn1A Zn -0.56338(5) -0.15412(5) 1.0000
C10A C -1.0644(3) -0.4033(3) 1.1187(5)
C11A C -1.1119(4) -0.4230(3) 1.2462(5)
C12A C -0.9344(5) -0.3513(5) 1.0000
C13A C -0.9785(4) -0.3690(3) 1.1184(5)
H8A H -0.9498 -0.3577 1.1982
C14A C -1.1076(5) -0.4209(5) 1.0000
H9A H -1.1652 -0.4445 1.0000
C15A C -0.8429(5) -0.3141(5) 1.0000
C16A C -0.8186(9) -0.2533(9) 0.8977(14)
H10A H -0.8590 -0.2381 0.8317
C17A C -0.7338(9) -0.2176(10) 0.8993(14)
H11A H -0.7164 -0.1796 0.8313
N1A N -0.6730(4) -0.2368(5) 1.0000
O1A O -1.0699(3) -0.4072(3) 1.3525(4)
O2A O -1.1896(3) -0.4525(3) 1.2437(5)
C16D C -0.8186(9) -0.2533(9) 1.1023(14)
H10D H -0.8590 -0.2381 1.1683
C17D C -0.7338(9) -0.2176(10) 1.1007(14)
H11D H -0.7164 -0.1796 1.1687
C10D C -1.0644(3) -0.4033(3) 0.8813(5)
C11D C -1.1119(4) -0.4230(3) 0.7538(5)
C13D C -0.9785(4) -0.3690(3) 0.8816(5)
H8D H -0.9498 -0.3577 0.8018
O1D O -1.0699(3) -0.4072(3) 0.6475(4)
O2D O -1.1896(3) -0.4525(3) 0.7563(5)
Zn1B Zn -1.15412(5) -0.43662(5) 0.5000
Zn1B_2 Zn -1.15412(5) -0.43662(5) 1.5000
Zn1C Zn 1.15412(5) 0.43662(5) 0.5000
Zn1C_2 Zn 1.15412(5) 0.43662(5) 1.5000
O1B O 0.5928(3) 0.0699(3) 0.8525(4)
O1C O -0.5928(3) -0.0699(3) 0.8525(4)
O1F O -0.5928(3) -0.0699(3) 1.1475(4)
O1G O 0.5928(3) 0.0699(3) 1.1475(4)
O3 O 0.5132(14) 0.3662(12) 0.645(3)
C18? C 0.6948(8) 0.2938(9) 0.9156(13)
H12? H 0.6525 0.3106 0.8531
C19? C 0.7799(8) 0.3341(8) 0.9098(12)
H13? H 0.7927 0.3749 0.8430
loop_
_geom_bond_atom_site_label_1
_geom_bond_atom_site_label_2
_geom_bond_site_symmetry_1
_geom_bond_site_symmetry_2
Zn1 N1 1_555 1_555
C1 H1 1_555 1_555
C2 H2 1_555 1_555
C3 C2 1_555 1_555
H3 C3 1_555 1_555
C4 C5 1_555 1_555
C5 H4 1_555 1_555
C6 C5 1_555 1_555
H5 C6 1_555 1_555
C7 C6 1_555 1_555
C8 C7 1_555 1_555
H6 C8 1_555 1_555
C9 C4 1_555 1_555
H7 C9 1_555 1_555
C10 C11 1_555 1_555
C11 O1 1_555 1_555
C12 C13 1_555 1_555
C13 C10 1_555 1_555
H8 C13 1_555 1_555
C14 C10 1_555 1_555
H9 C14 1_555 1_555
C15 C12 1_555 1_555
C16 C15 1_555 1_555
H10 C16 1_555 1_555
C17 C16 1_555 1_555
H11 C17 1_555 1_555
N1 C17 1_555 1_555
N2 Zn1 1_555 1_555
N3 C1 1_555 1_555
O1 Zn1C_2 1_555 1_555
O2 C11 1_555 1_555
C1A H1A 1_555 1_555
C2A H2A 1_555 1_555
C3A C2A 1_555 1_555
H3A C3A 1_555 1_555
C4A C5A 1_555 1_555
C5A H4A 1_555 1_555
C6A C5A 1_555 1_555
H5A C6A 1_555 1_555
C7A C7 1_555 1_555
C8A C7A 1_555 1_555
H6A C8A 1_555 1_555
C9A C4A 1_555 1_555
H7A C9A 1_555 1_555
N2A C1A 1_555 1_555
N3A C1A 1_555 1_555
C16E C15 1_555 1_555
H10E C16E 1_555 1_555
C17E N1 1_555 1_555
H11E C17E 1_555 1_555
C10E C14 1_555 1_555
C11E C10E 1_555 1_555
C13E C12 1_555 1_555
H8E C13E 1_555 1_555
O1E C11E 1_555 1_555
O2E C11E 1_555 1_555
Zn1A N2A 1_555 1_555
C10A C11A 1_555 1_555
C11A O1A 1_555 1_555
C12A C13A 1_555 1_555
C13A C10A 1_555 1_555
H8A C13A 1_555 1_555
C14A C10A 1_555 1_555
H9A C14A 1_555 1_555
C15A C12A 1_555 1_555
C16A C15A 1_555 1_555
H10A C16A 1_555 1_555
C17A C16A 1_555 1_555
H11A C17A 1_555 1_555
N1A Zn1A 1_555 1_555
O1A Zn1B_2 1_555 1_555
O2A C11A 1_555 1_555
C16D C15A 1_555 1_555
H10D C16D 1_555 1_555
C17D N1A 1_555 1_555
H11D C17D 1_555 1_555
C10D C14A 1_555 1_555
C11D C10D 1_555 1_555
C13D C12A 1_555 1_555
H8D C13D 1_555 1_555
O1D C11D 1_555 1_555
O2D C11D 1_555 1_555
Zn1B O1D 1_555 1_555
Zn1C O1E 1_555 1_555
O1B Zn1 1_555 1_555
O1C Zn1A 1_555 1_555
O1F Zn1A 1_555 1_555
O1G Zn1 1_555 1_555
C1 N2 1_555 1_555
C2 N3 1_555 1_555
C3 N2 1_555 1_555
C4 N3 1_555 1_555
C8 C9 1_555 1_555
C2A N3A 1_555 1_555
C3A N2A 1_555 1_555
C4A N3A 1_555 1_555
C6A C7A 1_555 1_555
C8A C9A 1_555 1_555
C16E C17E 1_555 1_555
C10E C13E 1_555 1_555
C17A N1A 1_555 1_555
C16D C17D 1_555 1_555
C10D C13D 1_555 1_555

#END
