
#######################################################################
#
#                 Cambridge Crystallographic Data Centre
#                                CCDC 
#
#######################################################################
#
# If this CIF has been generated from an entry in the Cambridge 
# Structural Database, then it will include bibliographic, chemical, 
# crystal, experimental, refinement or atomic coordinate data resulting 
# from the CCDC's data processing and validation procedures.
#
#######################################################################

data_VUMBEM
_chemical_formula_moiety         '(C16 H18 Cu2 N2 O18 P6)n'
_chemical_name_systematic        
'catena-[bis(\m-(5-phosphono-1,3-phenylene)bis[hydrogen (phosphonato)])-(\m-pyrazine)-di-copper]'
_symmetry_cell_setting           monoclinic
_symmetry_space_group_name_H-M   'P 21/c'
_symmetry_Int_Tables_number      14
_space_group_name_Hall           '-P 2ybc'
loop_
_symmetry_equiv_pos_site_id
_symmetry_equiv_pos_as_xyz
1 x,y,z
2 -x,1/2+y,1/2-z
3 -x,-y,-z
4 x,1/2-y,1/2+z
_cell_length_a                   9.08250(10)
_cell_length_b                   18.5934(3)
_cell_length_c                   7.86290(10)
_cell_angle_alpha                90
_cell_angle_beta                 109.3520(10)
_cell_angle_gamma                90
_cell_volume                     1252.82
_exptl_crystal_colour            blue
_exptl_crystal_description       block
_cell_formula_units_Z            2
loop_
_atom_site_label
_atom_site_type_symbol
_atom_site_fract_x
_atom_site_fract_y
_atom_site_fract_z
Cu1 Cu 0.29135(4) 0.39285(2) 0.95565(5)
P1 P -0.40604(8) 0.43840(4) 0.26968(9)
P2 P -0.41316(8) 0.14444(4) 0.32691(10)
P3 P 0.14520(8) 0.29857(4) 0.59360(9)
O1 O -0.5355(2) 0.15608(11) 0.4137(3)
O2 O -0.4867(2) 0.12877(11) 0.1204(3)
O3 O 0.1469(2) 0.34707(11) 0.7483(3)
O4 O 0.2350(2) 0.32639(11) 0.4749(3)
O5 O 0.2051(2) 0.22034(11) 0.6567(3)
O6 O -0.5791(2) 0.42368(11) 0.1936(3)
O7 O -0.3355(2) 0.48470(10) 0.1581(3)
O8 O -0.3657(2) 0.47776(11) 0.4578(3)
O9 O -0.2978(2) 0.08309(11) 0.4057(3)
N1 N 0.1098(3) 0.45011(13) 0.9854(3)
C1 C -0.3018(3) 0.35436(15) 0.3220(4)
C2 C -0.3816(3) 0.28937(15) 0.2992(4)
H1 H -0.4920 0.2888 0.2465
C3 C -0.3008(3) 0.22509(15) 0.3531(4)
C4 C -0.1401(3) 0.35450(15) 0.4027(4)
H2 H -0.0849 0.3987 0.4178
C5 C -0.0580(3) 0.29096(15) 0.4617(4)
C6 C -0.1387(3) 0.22558(16) 0.4352(4)
H3 H -0.0836 0.1818 0.4728
C7 C 0.1005(3) 0.46854(15) 1.1466(4)
H4 H 0.1700 0.4473 1.2529
C8 C 0.0092(3) 0.48182(16) 0.8397(4)
H5 H 0.0133 0.4700 0.7238
N1B N -0.1098(3) 0.54989(13) 1.0146(3)
C7B C -0.1005(3) 0.53146(15) 0.8534(4)
H4B H -0.1700 0.5527 0.7471
C8B C -0.0092(3) 0.51818(16) 1.1603(4)
H5B H -0.0133 0.5300 1.2762
Cu1B Cu -0.29135(4) 0.60715(2) 0.04435(5)
P1B P 0.40604(8) 0.56160(4) 0.73032(9)
P2B P 0.41316(8) 0.85556(4) 0.67309(10)
P3B P -0.14520(8) 0.70143(4) 0.40640(9)
O1B O 0.5355(2) 0.84392(11) 0.5863(3)
O2B O 0.4867(2) 0.87123(11) 0.8796(3)
O3B O -0.1469(2) 0.65293(11) 0.2517(3)
O4B O -0.2350(2) 0.67361(11) 0.5251(3)
O5B O -0.2051(2) 0.77966(11) 0.3433(3)
O6B O 0.5791(2) 0.57632(11) 0.8064(3)
O7B O 0.3355(2) 0.51530(10) 0.8419(3)
O8B O 0.3657(2) 0.52224(11) 0.5422(3)
O9B O 0.2978(2) 0.91691(11) 0.5943(3)
C1B C 0.3018(3) 0.64564(15) 0.6780(4)
C2B C 0.3816(3) 0.71063(15) 0.7008(4)
H1B H 0.4920 0.7112 0.7535
C3B C 0.3008(3) 0.77491(15) 0.6469(4)
C4B C 0.1401(3) 0.64550(15) 0.5973(4)
H2B H 0.0849 0.6013 0.5822
C5B C 0.0580(3) 0.70904(15) 0.5383(4)
C6B C 0.1387(3) 0.77442(16) 0.5648(4)
H3B H 0.0836 0.8182 0.5272
Cu1_2 Cu -0.70865(4) 0.39285(2) -0.04435(5)
Cu1A Cu 0.70865(4) 0.89285(2) 0.54435(5)
Cu1B_2 Cu -0.29135(4) 0.60715(2) 1.04435(5)
Cu1B_3 Cu 0.70865(4) 0.60715(2) 1.04435(5)
Cu1C Cu -0.70865(4) 0.10715(2) 0.45565(5)
O1A O -0.4645(2) 0.65608(11) 0.0863(3)
O1C O 0.4645(2) 0.34392(11) 0.9137(3)
O6_2 O 0.4209(2) 0.42368(11) 1.1936(3)
O6B_2 O -0.4209(2) 0.57632(11) -0.1936(3)
N1B_2 N -0.1098(3) 0.54989(13) 0.0146(3)
loop_
_geom_bond_atom_site_label_1
_geom_bond_atom_site_label_2
_geom_bond_site_symmetry_1
_geom_bond_site_symmetry_2
Cu1 O3 1_555 1_555
P1 O6 1_555 1_555
P2 O1 1_555 1_555
P3 O3 1_555 1_555
O1 Cu1C 1_555 1_555
O2 P2 1_555 1_555
O4 P3 1_555 1_555
O5 P3 1_555 1_555
O6 Cu1_2 1_555 1_555
O7 P1 1_555 1_555
O8 P1 1_555 1_555
O9 P2 1_555 1_555
N1 Cu1 1_555 1_555
C1 P1 1_555 1_555
C2 C1 1_555 1_555
H1 C2 1_555 1_555
C3 P2 1_555 1_555
C4 C1 1_555 1_555
H2 C4 1_555 1_555
C5 P3 1_555 1_555
C6 C3 1_555 1_555
H3 C6 1_555 1_555
C7 N1 1_555 1_555
H4 C7 1_555 1_555
C8 N1 1_555 1_555
H5 C8 1_555 1_555
N1B C7B 1_555 1_555
C7B C8 1_555 1_555
H4B C7B 1_555 1_555
C8B C7 1_555 1_555
H5B C8B 1_555 1_555
Cu1B O7 1_555 1_555
P1B O6B 1_555 1_555
P2B O1B 1_555 1_555
P3B O3B 1_555 1_555
O1B Cu1A 1_555 1_555
O2B P2B 1_555 1_555
O3B Cu1B 1_555 1_555
O4B P3B 1_555 1_555
O5B P3B 1_555 1_555
O6B Cu1B_3 1_555 1_555
O7B Cu1 1_555 1_555
O8B P1B 1_555 1_555
O9B P2B 1_555 1_555
C1B P1B 1_555 1_555
C2B C1B 1_555 1_555
H1B C2B 1_555 1_555
C3B P2B 1_555 1_555
C4B C1B 1_555 1_555
H2B C4B 1_555 1_555
C5B P3B 1_555 1_555
C6B C3B 1_555 1_555
H3B C6B 1_555 1_555
Cu1B_2 N1B 1_555 1_555
O1A Cu1B 1_555 1_555
O1C Cu1 1_555 1_555
O6_2 Cu1 1_555 1_555
O6B_2 Cu1B 1_555 1_555
N1B_2 Cu1B 1_555 1_555
C2 C3 1_555 1_555
C4 C5 1_555 1_555
C5 C6 1_555 1_555
N1B C8B 1_555 1_555
P1B O7B 1_555 1_555
C2B C3B 1_555 1_555
C4B C5B 1_555 1_555
C5B C6B 1_555 1_555

#END
