
#######################################################################
#
#                 Cambridge Crystallographic Data Centre
#                                CCDC 
#
#######################################################################
#
# If this CIF has been generated from an entry in the Cambridge 
# Structural Database, then it will include bibliographic, chemical, 
# crystal, experimental, refinement or atomic coordinate data resulting 
# from the CCDC's data processing and validation procedures.
#
#######################################################################

data_TIJMOQ01
_chemical_formula_moiety         
'(C90 H60 Fe3 N18 S6)n,15n(C1 H2 Cl2),60n(C2 H6 O1),10n(H2 O1)'
_chemical_name_systematic        
"catena-[tetrakis(\m~3~-4,4',4''-Benzene-1,3,5-triyltripyridine)-hexakis(isothiocyanato)-tri-iron(ii) dichloromethane ethanol solvate decahydrate]"
_symmetry_cell_setting           cubic
_symmetry_space_group_name_H-M   'F m -3 m'
_symmetry_Int_Tables_number      225
_space_group_name_Hall           '-F 4 2 3'
loop_
_symmetry_equiv_pos_site_id
_symmetry_equiv_pos_as_xyz
1 x,y,z
2 -x,-y,z
3 -x,y,-z
4 x,-y,-z
5 z,x,y
6 z,-x,-y
7 -z,-x,y
8 -z,x,-y
9 y,z,x
10 -y,z,-x
11 y,-z,-x
12 -y,-z,x
13 y,x,-z
14 -y,-x,-z
15 y,-x,z
16 -y,x,z
17 x,z,-y
18 -x,z,y
19 -x,-z,-y
20 x,-z,y
21 z,y,-x
22 z,-y,x
23 -z,y,x
24 -z,-y,-x
25 x,1/2+y,1/2+z
26 -x,1/2-y,1/2+z
27 -x,1/2+y,1/2-z
28 x,1/2-y,1/2-z
29 z,1/2+x,1/2+y
30 z,1/2-x,1/2-y
31 -z,1/2-x,1/2+y
32 -z,1/2+x,1/2-y
33 y,1/2+z,1/2+x
34 -y,1/2+z,1/2-x
35 y,1/2-z,1/2-x
36 -y,1/2-z,1/2+x
37 y,1/2+x,1/2-z
38 -y,1/2-x,1/2-z
39 y,1/2-x,1/2+z
40 -y,1/2+x,1/2+z
41 x,1/2+z,1/2-y
42 -x,1/2+z,1/2+y
43 -x,1/2-z,1/2-y
44 x,1/2-z,1/2+y
45 z,1/2+y,1/2-x
46 z,1/2-y,1/2+x
47 -z,1/2+y,1/2+x
48 -z,1/2-y,1/2-x
49 1/2+x,y,1/2+z
50 1/2-x,-y,1/2+z
51 1/2-x,y,1/2-z
52 1/2+x,-y,1/2-z
53 1/2+z,x,1/2+y
54 1/2+z,-x,1/2-y
55 1/2-z,-x,1/2+y
56 1/2-z,x,1/2-y
57 1/2+y,z,1/2+x
58 1/2-y,z,1/2-x
59 1/2+y,-z,1/2-x
60 1/2-y,-z,1/2+x
61 1/2+y,x,1/2-z
62 1/2-y,-x,1/2-z
63 1/2+y,-x,1/2+z
64 1/2-y,x,1/2+z
65 1/2+x,z,1/2-y
66 1/2-x,z,1/2+y
67 1/2-x,-z,1/2-y
68 1/2+x,-z,1/2+y
69 1/2+z,y,1/2-x
70 1/2+z,-y,1/2+x
71 1/2-z,y,1/2+x
72 1/2-z,-y,1/2-x
73 1/2+x,1/2+y,z
74 1/2-x,1/2-y,z
75 1/2-x,1/2+y,-z
76 1/2+x,1/2-y,-z
77 1/2+z,1/2+x,y
78 1/2+z,1/2-x,-y
79 1/2-z,1/2-x,y
80 1/2-z,1/2+x,-y
81 1/2+y,1/2+z,x
82 1/2-y,1/2+z,-x
83 1/2+y,1/2-z,-x
84 1/2-y,1/2-z,x
85 1/2+y,1/2+x,-z
86 1/2-y,1/2-x,-z
87 1/2+y,1/2-x,z
88 1/2-y,1/2+x,z
89 1/2+x,1/2+z,-y
90 1/2-x,1/2+z,y
91 1/2-x,1/2-z,-y
92 1/2+x,1/2-z,y
93 1/2+z,1/2+y,-x
94 1/2+z,1/2-y,x
95 1/2-z,1/2+y,x
96 1/2-z,1/2-y,-x
97 -x,-y,-z
98 x,y,-z
99 x,-y,z
100 -x,y,z
101 -z,-x,-y
102 -z,x,y
103 z,x,-y
104 z,-x,y
105 -y,-z,-x
106 y,-z,x
107 -y,z,x
108 y,z,-x
109 -y,-x,z
110 y,x,z
111 -y,x,-z
112 y,-x,-z
113 -x,-z,y
114 x,-z,-y
115 x,z,y
116 -x,z,-y
117 -z,-y,x
118 -z,y,-x
119 z,-y,-x
120 z,y,x
121 -x,1/2-y,1/2-z
122 x,1/2+y,1/2-z
123 x,1/2-y,1/2+z
124 -x,1/2+y,1/2+z
125 -z,1/2-x,1/2-y
126 -z,1/2+x,1/2+y
127 z,1/2+x,1/2-y
128 z,1/2-x,1/2+y
129 -y,1/2-z,1/2-x
130 y,1/2-z,1/2+x
131 -y,1/2+z,1/2+x
132 y,1/2+z,1/2-x
133 -y,1/2-x,1/2+z
134 y,1/2+x,1/2+z
135 -y,1/2+x,1/2-z
136 y,1/2-x,1/2-z
137 -x,1/2-z,1/2+y
138 x,1/2-z,1/2-y
139 x,1/2+z,1/2+y
140 -x,1/2+z,1/2-y
141 -z,1/2-y,1/2+x
142 -z,1/2+y,1/2-x
143 z,1/2-y,1/2-x
144 z,1/2+y,1/2+x
145 1/2-x,-y,1/2-z
146 1/2+x,y,1/2-z
147 1/2+x,-y,1/2+z
148 1/2-x,y,1/2+z
149 1/2-z,-x,1/2-y
150 1/2-z,x,1/2+y
151 1/2+z,x,1/2-y
152 1/2+z,-x,1/2+y
153 1/2-y,-z,1/2-x
154 1/2+y,-z,1/2+x
155 1/2-y,z,1/2+x
156 1/2+y,z,1/2-x
157 1/2-y,-x,1/2+z
158 1/2+y,x,1/2+z
159 1/2-y,x,1/2-z
160 1/2+y,-x,1/2-z
161 1/2-x,-z,1/2+y
162 1/2+x,-z,1/2-y
163 1/2+x,z,1/2+y
164 1/2-x,z,1/2-y
165 1/2-z,-y,1/2+x
166 1/2-z,y,1/2-x
167 1/2+z,-y,1/2-x
168 1/2+z,y,1/2+x
169 1/2-x,1/2-y,-z
170 1/2+x,1/2+y,-z
171 1/2+x,1/2-y,z
172 1/2-x,1/2+y,z
173 1/2-z,1/2-x,-y
174 1/2-z,1/2+x,y
175 1/2+z,1/2+x,-y
176 1/2+z,1/2-x,y
177 1/2-y,1/2-z,-x
178 1/2+y,1/2-z,x
179 1/2-y,1/2+z,x
180 1/2+y,1/2+z,-x
181 1/2-y,1/2-x,z
182 1/2+y,1/2+x,z
183 1/2-y,1/2+x,-z
184 1/2+y,1/2-x,-z
185 1/2-x,1/2-z,y
186 1/2+x,1/2-z,-y
187 1/2+x,1/2+z,y
188 1/2-x,1/2+z,-y
189 1/2-z,1/2-y,x
190 1/2-z,1/2+y,-x
191 1/2+z,1/2-y,-x
192 1/2+z,1/2+y,x
_cell_length_a                   38.6149(2)
_cell_length_b                   38.6149(2)
_cell_length_c                   38.6149(2)
_cell_angle_alpha                90
_cell_angle_beta                 90
_cell_angle_gamma                90
_cell_volume                     57579.1
_exptl_crystal_colour            red
_exptl_crystal_description       block
_cell_formula_units_Z            12
loop_
_atom_site_label
_atom_site_type_symbol
_atom_site_fract_x
_atom_site_fract_y
_atom_site_fract_z
Fe1 Fe 0.2500 0.5000 0.2500
N1 N 0.22161(8) 0.45882(11) 0.22161(8)
C1 C 0.2407(2) 0.4344(2) 0.2040(3)
C2 C 0.2249(2) 0.4067(2) 0.1870(2)
C3 C 0.18843(10) 0.40326(14) 0.18843(10)
C4 C 0.17147(10) 0.37264(14) 0.17147(10)
C5 C 0.14219(10) 0.35781(10) 0.18605(14)
H1 H 0.1322 0.3678 0.2062
N2 N 0.28825(11) 0.5000 0.21175(11)
C6 C 0.3085(3) 0.5000 0.1915(3)
S1 S 0.33759(11) 0.5000 0.16241(11)
N1CA N 0.22161(8) 0.27839(8) 0.04118(11)
C1CA C 0.2040(3) 0.2593(2) 0.0656(2)
C2CA C 0.1870(2) 0.2751(2) 0.0933(2)
C3CA C 0.18843(10) 0.31157(10) 0.09674(14)
C4CA C 0.17147(10) 0.32853(10) 0.12736(14)
C5CA C 0.18605(14) 0.35781(10) 0.14219(10)
H1CA H 0.2062 0.3678 0.1322
N1EC N 0.04118(11) 0.27839(8) 0.22161(8)
C1EC C 0.0656(2) 0.2960(3) 0.2407(2)
C2EC C 0.0933(2) 0.3130(2) 0.2249(2)
C3EC C 0.09674(14) 0.31157(10) 0.18843(10)
C4EC C 0.12736(14) 0.32853(10) 0.17147(10)
C5EC C 0.14219(10) 0.31395(14) 0.14219(10)
H1EC H 0.1322 0.2938 0.1322
C1OD C 0.2040(3) 0.4344(2) 0.2407(2)
C2OD C 0.1870(2) 0.4067(2) 0.2249(2)
C1GE C 0.2407(2) 0.2960(3) 0.0656(2)
C2GE C 0.2249(2) 0.3130(2) 0.0933(2)
C1XF C 0.0656(2) 0.2593(2) 0.2040(3)
C2XF C 0.0933(2) 0.2751(2) 0.1870(2)
N1U N 0.22161(8) 0.54118(11) 0.22161(8)
C1U C 0.2040(3) 0.5656(2) 0.2407(2)
C2U C 0.1870(2) 0.5933(2) 0.2249(2)
C3U C 0.18843(10) 0.59674(14) 0.18843(10)
C4U C 0.17147(10) 0.62736(14) 0.17147(10)
C5U C 0.18605(14) 0.64219(10) 0.14219(10)
H1U H 0.2062 0.6322 0.1322
N2U N 0.21175(11) 0.5000 0.28825(11)
C6U C 0.1915(3) 0.5000 0.3085(3)
S1U S 0.16241(11) 0.5000 0.33759(11)
N1IC N 0.04118(11) 0.72161(8) 0.22161(8)
C1IC C 0.0656(2) 0.7407(2) 0.2040(3)
C2IC C 0.0933(2) 0.7249(2) 0.1870(2)
C3IC C 0.09674(14) 0.68843(10) 0.18843(10)
C4IC C 0.12736(14) 0.67147(10) 0.17147(10)
C5IC C 0.14219(10) 0.64219(10) 0.18605(14)
H1IC H 0.1322 0.6322 0.2062
N1NA N 0.22161(8) 0.72161(8) 0.04118(11)
C1NA C 0.2407(2) 0.7040(3) 0.0656(2)
C2NA C 0.2249(2) 0.6870(2) 0.0933(2)
C3NA C 0.18843(10) 0.68843(10) 0.09674(14)
C4NA C 0.17147(10) 0.67147(10) 0.12736(14)
C5NA C 0.14219(10) 0.68605(14) 0.14219(10)
H1NA H 0.1322 0.7062 0.1322
C1TC C 0.2407(2) 0.5656(2) 0.2040(3)
C2TC C 0.2249(2) 0.5933(2) 0.1870(2)
C1VF C 0.0656(2) 0.7040(3) 0.2407(2)
C2VF C 0.0933(2) 0.6870(2) 0.2249(2)
C1VD C 0.2040(3) 0.7407(2) 0.0656(2)
C2VD C 0.1870(2) 0.7249(2) 0.0933(2)
Fe1CA Fe 0.2500 0.2500 0.0000
Fe1BA Fe 0.2500 0.7500 0.0000
N2NA N 0.28825(11) 0.71175(11) 0.0000
C6NA C 0.3085(3) 0.6915(3) 0.0000
S1NA S 0.33759(11) 0.66241(11) 0.0000
N1QA N 0.22161(8) 0.27839(8) -0.04118(11)
C1QA C 0.2407(2) 0.2960(3) -0.0656(2)
C2QA C 0.2249(2) 0.3130(2) -0.0933(2)
C3QA C 0.18843(10) 0.31157(10) -0.09674(14)
C4QA C 0.17147(10) 0.32853(10) -0.12736(14)
C5QA C 0.14219(10) 0.31395(14) -0.14219(10)
H1QA H 0.1322 0.2938 -0.1322
N2QA N 0.28825(11) 0.28825(11) 0.0000
C6QA C 0.3085(3) 0.3085(3) 0.0000
S1QA S 0.33759(11) 0.33759(11) 0.0000
N1T N 0.22161(8) 0.45882(11) -0.22161(8)
C1T C 0.2040(3) 0.4344(2) -0.2407(2)
C2T C 0.1870(2) 0.4067(2) -0.2249(2)
C3T C 0.18843(10) 0.40326(14) -0.18843(10)
C4T C 0.17147(10) 0.37264(14) -0.17147(10)
C5T C 0.18605(14) 0.35781(10) -0.14219(10)
H1T H 0.2062 0.3678 -0.1322
N1GC N 0.04118(11) 0.27839(8) -0.22161(8)
C1GC C 0.0656(2) 0.2593(2) -0.2040(3)
C2GC C 0.0933(2) 0.2751(2) -0.1870(2)
C3GC C 0.09674(14) 0.31157(10) -0.18843(10)
C4GC C 0.12736(14) 0.32853(10) -0.17147(10)
C5GC C 0.14219(10) 0.35781(10) -0.18605(14)
H1GC H 0.1322 0.3678 -0.2062
C1WD C 0.2040(3) 0.2593(2) -0.0656(2)
C2WD C 0.1870(2) 0.2751(2) -0.0933(2)
C1SC C 0.2407(2) 0.4344(2) -0.2040(3)
C2SC C 0.2249(2) 0.4067(2) -0.1870(2)
C1TF C 0.0656(2) 0.2960(3) -0.2407(2)
C2TF C 0.0933(2) 0.3130(2) -0.2249(2)
N1XA N 0.27839(8) 0.45882(11) 0.27839(8)
C1XA C 0.2593(2) 0.4344(2) 0.2960(3)
C2XA C 0.2751(2) 0.4067(2) 0.3130(2)
C3XA C 0.31157(10) 0.40326(14) 0.31157(10)
C4XA C 0.32853(10) 0.37264(14) 0.32853(10)
C5XA C 0.35781(10) 0.35781(10) 0.31395(14)
H1XA H 0.3678 0.3678 0.2938
N1ZB N 0.27839(8) 0.27839(8) 0.45882(11)
C1ZB C 0.2960(3) 0.2593(2) 0.4344(2)
C2ZB C 0.3130(2) 0.2751(2) 0.4067(2)
C3ZB C 0.31157(10) 0.31157(10) 0.40326(14)
C4ZB C 0.32853(10) 0.32853(10) 0.37264(14)
C5ZB C 0.31395(14) 0.35781(10) 0.35781(10)
H1ZB H 0.2938 0.3678 0.3678
N1HA N 0.45882(11) 0.27839(8) 0.27839(8)
C1HA C 0.4344(2) 0.2960(3) 0.2593(2)
C2HA C 0.4067(2) 0.3130(2) 0.2751(2)
C3HA C 0.40326(14) 0.31157(10) 0.31157(10)
C4HA C 0.37264(14) 0.32853(10) 0.32853(10)
C5HA C 0.35781(10) 0.31395(14) 0.35781(10)
H1HA H 0.3678 0.2938 0.3678
C1IF C 0.2960(3) 0.4344(2) 0.2593(2)
C2IF C 0.3130(2) 0.4067(2) 0.2751(2)
C1BG C 0.2593(2) 0.2960(3) 0.4344(2)
C2BG C 0.2751(2) 0.3130(2) 0.4067(2)
C1EE C 0.4344(2) 0.2593(2) 0.2960(3)
C2EE C 0.4067(2) 0.2751(2) 0.3130(2)
N2CA N 0.21175(11) 0.21175(11) 0.0000
C6CA C 0.1915(3) 0.1915(3) 0.0000
S1CA S 0.16241(11) 0.16241(11) 0.0000
N2BA N 0.21175(11) 0.78825(11) 0.0000
C6BA C 0.1915(3) 0.8085(3) 0.0000
S1BA S 0.16241(11) 0.83759(11) 0.0000
Fe1C Fe 0.2500 0.5000 -0.2500
Fe1D Fe 0.2500 0.2500 0.5000
Fe1H Fe 0.5000 0.2500 0.2500
Fe1DB Fe 0.0000 0.2500 -0.2500
Fe1EB Fe 0.0000 0.2500 0.2500
Fe1FB Fe 0.0000 0.7500 0.2500
N1BA N 0.22161(8) 0.72161(8) -0.04118(11)
N1BB N 0.27839(8) 0.77839(8) -0.04118(11)
N1CB N 0.27839(8) 0.22161(8) 0.04118(11)
N1MB N 0.27839(8) 0.22161(8) -0.04118(11)
N1NB N 0.27839(8) 0.77839(8) 0.04118(11)
N1SB N 0.27839(8) 0.54118(11) 0.27839(8)
C7? C 0.1703(2) 0.4284(2) 0.2052(2)
C8? C 0.1871(2) 0.4552(2) 0.2217(2)
loop_
_geom_bond_atom_site_label_1
_geom_bond_atom_site_label_2
_geom_bond_site_symmetry_1
_geom_bond_site_symmetry_2
Fe1 N1 1_555 1_555
N1 C1 1_555 1_555
C1 C2 1_555 1_555
C2 C3 1_555 1_555
C3 C4 1_555 1_555
C4 C5 1_555 1_555
C5 H1 1_555 1_555
N2 Fe1 1_555 1_555
C6 N2 1_555 1_555
S1 C6 1_555 1_555
N1CA C1CA 1_555 1_555
C1CA C2CA 1_555 1_555
C2CA C3CA 1_555 1_555
C3CA C4CA 1_555 1_555
C4CA C5CA 1_555 1_555
C5CA C4 1_555 1_555
H1CA C5CA 1_555 1_555
N1EC C1EC 1_555 1_555
C1EC C2EC 1_555 1_555
C2EC C3EC 1_555 1_555
C3EC C4EC 1_555 1_555
C4EC C5 1_555 1_555
C5EC C4CA 1_555 1_555
H1EC C5EC 1_555 1_555
C1OD N1 1_555 1_555
C2OD C3 1_555 1_555
C1GE N1CA 1_555 1_555
C2GE C3CA 1_555 1_555
C1XF N1EC 1_555 1_555
C2XF C3EC 1_555 1_555
N1U Fe1 1_555 1_555
C1U N1U 1_555 1_555
C2U C1U 1_555 1_555
C3U C2U 1_555 1_555
C4U C3U 1_555 1_555
C5U C4U 1_555 1_555
H1U C5U 1_555 1_555
N2U Fe1 1_555 1_555
C6U N2U 1_555 1_555
S1U C6U 1_555 1_555
N1IC C1IC 1_555 1_555
C1IC C2IC 1_555 1_555
C2IC C3IC 1_555 1_555
C3IC C4IC 1_555 1_555
C4IC C5IC 1_555 1_555
C5IC C4U 1_555 1_555
H1IC C5IC 1_555 1_555
N1NA C1NA 1_555 1_555
C1NA C2NA 1_555 1_555
C2NA C3NA 1_555 1_555
C3NA C4NA 1_555 1_555
C4NA C5U 1_555 1_555
C5NA C4IC 1_555 1_555
H1NA C5NA 1_555 1_555
C1TC N1U 1_555 1_555
C2TC C3U 1_555 1_555
C1VF N1IC 1_555 1_555
C2VF C3IC 1_555 1_555
C1VD N1NA 1_555 1_555
C2VD C3NA 1_555 1_555
Fe1CA N1CA 1_555 1_555
Fe1BA N1NA 1_555 1_555
N2NA Fe1BA 1_555 1_555
C6NA N2NA 1_555 1_555
S1NA C6NA 1_555 1_555
N1QA Fe1CA 1_555 1_555
C1QA N1QA 1_555 1_555
C2QA C1QA 1_555 1_555
C3QA C2QA 1_555 1_555
C4QA C3QA 1_555 1_555
C5QA C4QA 1_555 1_555
H1QA C5QA 1_555 1_555
N2QA Fe1CA 1_555 1_555
C6QA N2QA 1_555 1_555
S1QA C6QA 1_555 1_555
N1T C1T 1_555 1_555
C1T C2T 1_555 1_555
C2T C3T 1_555 1_555
C3T C4T 1_555 1_555
C4T C5T 1_555 1_555
C5T C4QA 1_555 1_555
H1T C5T 1_555 1_555
N1GC C1GC 1_555 1_555
C1GC C2GC 1_555 1_555
C2GC C3GC 1_555 1_555
C3GC C4GC 1_555 1_555
C4GC C5QA 1_555 1_555
C5GC C4T 1_555 1_555
H1GC C5GC 1_555 1_555
C1WD N1QA 1_555 1_555
C2WD C3QA 1_555 1_555
C1SC N1T 1_555 1_555
C2SC C3T 1_555 1_555
C1TF N1GC 1_555 1_555
C2TF C3GC 1_555 1_555
N1XA Fe1 1_555 1_555
C1XA N1XA 1_555 1_555
C2XA C1XA 1_555 1_555
C3XA C2XA 1_555 1_555
C4XA C3XA 1_555 1_555
C5XA C4XA 1_555 1_555
H1XA C5XA 1_555 1_555
N1ZB C1ZB 1_555 1_555
C1ZB C2ZB 1_555 1_555
C2ZB C3ZB 1_555 1_555
C3ZB C4ZB 1_555 1_555
C4ZB C5ZB 1_555 1_555
C5ZB C4XA 1_555 1_555
H1ZB C5ZB 1_555 1_555
N1HA C1HA 1_555 1_555
C1HA C2HA 1_555 1_555
C2HA C3HA 1_555 1_555
C3HA C4HA 1_555 1_555
C4HA C5XA 1_555 1_555
C5HA C4ZB 1_555 1_555
H1HA C5HA 1_555 1_555
C1IF N1XA 1_555 1_555
C2IF C3XA 1_555 1_555
C1BG N1ZB 1_555 1_555
C2BG C3ZB 1_555 1_555
C1EE N1HA 1_555 1_555
C2EE C3HA 1_555 1_555
N2CA Fe1CA 1_555 1_555
C6CA N2CA 1_555 1_555
S1CA C6CA 1_555 1_555
N2BA Fe1BA 1_555 1_555
C6BA N2BA 1_555 1_555
S1BA C6BA 1_555 1_555
Fe1C N1T 1_555 1_555
Fe1D N1ZB 1_555 1_555
Fe1H N1HA 1_555 1_555
Fe1DB N1GC 1_555 1_555
Fe1EB N1EC 1_555 1_555
Fe1FB N1IC 1_555 1_555
N1BA Fe1BA 1_555 1_555
N1BB Fe1BA 1_555 1_555
N1CB Fe1CA 1_555 1_555
N1MB Fe1CA 1_555 1_555
N1NB Fe1BA 1_555 1_555
N1SB Fe1 1_555 1_555
C4EC C5EC 1_555 1_555
C1OD C2OD 1_555 1_555
C1GE C2GE 1_555 1_555
C1XF C2XF 1_555 1_555
C4NA C5NA 1_555 1_555
C1TC C2TC 1_555 1_555
C1VF C2VF 1_555 1_555
C1VD C2VD 1_555 1_555
C4GC C5GC 1_555 1_555
C1WD C2WD 1_555 1_555
C1SC C2SC 1_555 1_555
C1TF C2TF 1_555 1_555
C4HA C5HA 1_555 1_555
C1IF C2IF 1_555 1_555
C1BG C2BG 1_555 1_555
C1EE C2EE 1_555 1_555

#END
