
#######################################################################
#
#                 Cambridge Crystallographic Data Centre
#                                CCDC 
#
#######################################################################
#
# If this CIF has been generated from an entry in the Cambridge 
# Structural Database, then it will include bibliographic, chemical, 
# crystal, experimental, refinement or atomic coordinate data resulting 
# from the CCDC's data processing and validation procedures.
#
#######################################################################

data_DUMFEY
_chemical_formula_moiety         '(C8 H8 F6 N4 Ni1 Si1)n,2n(H2 O1)'
_chemical_name_systematic        
'catena-((\m~2~-Hexafluorosilicato)-bis(\m~2~-pyrazine)-nickel dihydrate)'
_symmetry_cell_setting           tetragonal
_symmetry_space_group_name_H-M   'P 4/m m m'
_symmetry_Int_Tables_number      123
_space_group_name_Hall           '-P 4 2'
loop_
_symmetry_equiv_pos_site_id
_symmetry_equiv_pos_as_xyz
1 x,y,z
2 -y,x,z
3 -x,-y,z
4 y,-x,z
5 x,-y,-z
6 -y,-x,-z
7 -x,y,-z
8 y,x,-z
9 -x,-y,-z
10 y,-x,-z
11 x,y,-z
12 -y,x,-z
13 -x,y,z
14 y,x,z
15 x,-y,z
16 -y,-x,z
_cell_length_a                   7.0148(4)
_cell_length_b                   7.0148(4)
_cell_length_c                   7.5655(7)
_cell_angle_alpha                90
_cell_angle_beta                 90
_cell_angle_gamma                90
_cell_volume                     372.279
_exptl_crystal_colour            blue
_cell_formula_units_Z            1
loop_
_atom_site_label
_atom_site_type_symbol
_atom_site_fract_x
_atom_site_fract_y
_atom_site_fract_z
_atom_site_U_iso_or_equiv
_atom_site_thermal_displace_type
N1 N 0.50000 0.2091(6) 0.50000 0.0570 Uiso
C1 C 0.50000 0.0924(2) 0.36118(18) 0.0570 Uiso
H1 H 0.50000 0.16000 0.26000 0.0861 Uiso
Ni1 Ni 0.50000 0.50000 0.50000 0.0380 Uiso
F1 F 0.50000 0.50000 0.2081(17) 0.0443 Uiso
F2 F 0.3374(3) 0.3374(3) 0.00000 0.0443 Uiso
Si1 Si 0.50000 0.50000 0.00000 0.0317 Uiso
N1B N 0.50000 -0.2091(6) 0.50000 0.0570 Uiso
C1B C 0.50000 -0.0924(2) 0.36118(18) 0.0570 Uiso
H1B H 0.50000 -0.16000 0.26000 0.0861 Uiso
C1H C 0.50000 -0.0924(2) 0.63882(18) 0.0570 Uiso
H1H H 0.50000 -0.16000 0.74000 0.0861 Uiso
C1J C 0.50000 0.0924(2) 0.63882(18) 0.0570 Uiso
H1J H 0.50000 0.16000 0.74000 0.0861 Uiso
F2A F 0.6626(3) 0.3374(3) 0.00000 0.0443 Uiso
F2B F 0.6626(3) 0.6626(3) 0.00000 0.0443 Uiso
F2C F 0.3374(3) 0.6626(3) 0.00000 0.0443 Uiso
F1H F 0.50000 0.50000 -0.2081(17) 0.0443 Uiso
N1A N -0.2091(6) 0.50000 0.50000 0.0570 Uiso
C1A C -0.0924(2) 0.50000 0.36118(18) 0.0570 Uiso
H1A H -0.16000 0.50000 0.26000 0.0861 Uiso
N1C N 0.2091(6) 0.50000 0.50000 0.0570 Uiso
C1C C 0.0924(2) 0.50000 0.36118(18) 0.0570 Uiso
H1C H 0.16000 0.50000 0.26000 0.0861 Uiso
C1I C 0.0924(2) 0.50000 0.63882(18) 0.0570 Uiso
H1I H 0.16000 0.50000 0.74000 0.0861 Uiso
C1K C -0.0924(2) 0.50000 0.63882(18) 0.0570 Uiso
H1K H -0.16000 0.50000 0.74000 0.0861 Uiso
N1A_2 N 0.7909(6) 0.50000 0.50000 0.0570 Uiso
N1B_2 N 0.50000 0.7909(6) 0.50000 0.0570 Uiso
Ni1_2 Ni -0.50000 0.50000 0.50000 0.0380 Uiso
Ni1_3 Ni 0.50000 -0.50000 0.50000 0.0380 Uiso
Ni1_4 Ni 0.50000 0.50000 -0.50000 0.0380 Uiso
F1H_2 F 0.50000 0.50000 0.7919(17) 0.0443 Uiso
O1 O 0.00000 0.00000 0.00000 0.0760 Uiso
O2 O 0.00000 0.00000 0.50000 0.0760 Uiso
loop_
_geom_bond_atom_site_label_1
_geom_bond_atom_site_label_2
_geom_bond_site_symmetry_1
_geom_bond_site_symmetry_2
N1 C1 1_555 1_555
C1 H1 1_555 1_555
Ni1 N1 1_555 1_555
F1 Ni1 1_555 1_555
F2 Si1 1_555 1_555
Si1 F1 1_555 1_555
N1B C1B 1_555 1_555
C1B C1 1_555 1_555
H1B C1B 1_555 1_555
C1H N1B 1_555 1_555
H1H C1H 1_555 1_555
C1J N1 1_555 1_555
H1J C1J 1_555 1_555
F2A Si1 1_555 1_555
F2B Si1 1_555 1_555
F2C Si1 1_555 1_555
F1H Si1 1_555 1_555
N1A C1A 1_555 1_555
C1A H1A 1_555 1_555
N1C Ni1 1_555 1_555
C1C C1A 1_555 1_555
H1C C1C 1_555 1_555
C1I N1C 1_555 1_555
H1I C1I 1_555 1_555
C1K N1A 1_555 1_555
H1K C1K 1_555 1_555
N1A_2 Ni1 1_555 1_555
N1B_2 Ni1 1_555 1_555
Ni1_2 N1A 1_555 1_555
Ni1_3 N1B 1_555 1_555
Ni1_4 F1H 1_555 1_555
F1H_2 Ni1 1_555 1_555
C1H C1J 1_555 1_555
N1C C1C 1_555 1_555
C1I C1K 1_555 1_555

#END
