
#######################################################################
#
#                 Cambridge Crystallographic Data Centre
#                                CCDC 
#
#######################################################################
#
# If this CIF has been generated from an entry in the Cambridge 
# Structural Database, then it will include bibliographic, chemical, 
# crystal, experimental, refinement or atomic coordinate data resulting 
# from the CCDC's data processing and validation procedures.
#
#######################################################################

data_CAYBAH01
_chemical_formula_moiety         '(C12 H12 Cu3 N18)n'
_chemical_name_systematic        
catena-[hexakis(\m~3~-1,2,3-Triazolato)-tri-copper(ii)]
_symmetry_cell_setting           cubic
_symmetry_space_group_name_H-M   'F d -3 m'
_symmetry_Int_Tables_number      227
_space_group_name_Hall           '-F 4vw 2vw 3'
loop_
_symmetry_equiv_pos_site_id
_symmetry_equiv_pos_as_xyz
1 x,y,z
2 3/4-x,1/4-y,1/2+z
3 1/4-x,1/2+y,3/4-z
4 1/2+x,3/4-y,1/4-z
5 z,x,y
6 1/2+z,3/4-x,1/4-y
7 3/4-z,1/4-x,1/2+y
8 1/4-z,1/2+x,3/4-y
9 y,z,x
10 1/4-y,1/2+z,3/4-x
11 1/2+y,3/4-z,1/4-x
12 3/4-y,1/4-z,1/2+x
13 3/4+y,1/4+x,1/2-z
14 -y,-x,-z
15 1/4+y,1/2-x,3/4+z
16 1/2-y,3/4+x,1/4+z
17 3/4+x,1/4+z,1/2-y
18 1/2-x,3/4+z,1/4+y
19 -x,-z,-y
20 1/4+x,1/2-z,3/4+y
21 3/4+z,1/4+y,1/2-x
22 1/4+z,1/2-y,3/4+x
23 1/2-z,3/4+y,1/4+x
24 -z,-y,-x
25 x,1/2+y,1/2+z
26 3/4-x,3/4-y,z
27 1/4-x,y,1/4-z
28 1/2+x,1/4-y,3/4-z
29 z,1/2+x,1/2+y
30 1/2+z,1/4-x,3/4-y
31 3/4-z,3/4-x,y
32 1/4-z,x,1/4-y
33 y,1/2+z,1/2+x
34 1/4-y,z,1/4-x
35 1/2+y,1/4-z,3/4-x
36 3/4-y,3/4-z,x
37 3/4+y,3/4+x,-z
38 -y,1/2-x,1/2-z
39 1/4+y,-x,1/4+z
40 1/2-y,1/4+x,3/4+z
41 3/4+x,3/4+z,-y
42 1/2-x,1/4+z,3/4+y
43 -x,1/2-z,1/2-y
44 1/4+x,-z,1/4+y
45 3/4+z,3/4+y,-x
46 1/4+z,-y,1/4+x
47 1/2-z,1/4+y,3/4+x
48 -z,1/2-y,1/2-x
49 1/2+x,y,1/2+z
50 1/4-x,1/4-y,z
51 3/4-x,1/2+y,1/4-z
52 x,3/4-y,3/4-z
53 1/2+z,x,1/2+y
54 z,3/4-x,3/4-y
55 1/4-z,1/4-x,y
56 3/4-z,1/2+x,1/4-y
57 1/2+y,z,1/2+x
58 3/4-y,1/2+z,1/4-x
59 y,3/4-z,3/4-x
60 1/4-y,1/4-z,x
61 1/4+y,1/4+x,-z
62 1/2-y,-x,1/2-z
63 3/4+y,1/2-x,1/4+z
64 -y,3/4+x,3/4+z
65 1/4+x,1/4+z,-y
66 -x,3/4+z,3/4+y
67 1/2-x,-z,1/2-y
68 3/4+x,1/2-z,1/4+y
69 1/4+z,1/4+y,-x
70 3/4+z,1/2-y,1/4+x
71 -z,3/4+y,3/4+x
72 1/2-z,-y,1/2-x
73 1/2+x,1/2+y,z
74 1/4-x,3/4-y,1/2+z
75 3/4-x,y,3/4-z
76 x,1/4-y,1/4-z
77 1/2+z,1/2+x,y
78 z,1/4-x,1/4-y
79 1/4-z,3/4-x,1/2+y
80 3/4-z,x,3/4-y
81 1/2+y,1/2+z,x
82 3/4-y,z,3/4-x
83 y,1/4-z,1/4-x
84 1/4-y,3/4-z,1/2+x
85 1/4+y,3/4+x,1/2-z
86 1/2-y,1/2-x,-z
87 3/4+y,-x,3/4+z
88 -y,1/4+x,1/4+z
89 1/4+x,3/4+z,1/2-y
90 -x,1/4+z,1/4+y
91 1/2-x,1/2-z,-y
92 3/4+x,-z,3/4+y
93 1/4+z,3/4+y,1/2-x
94 3/4+z,-y,3/4+x
95 -z,1/4+y,1/4+x
96 1/2-z,1/2-y,-x
97 -x,-y,-z
98 1/4+x,3/4+y,1/2-z
99 3/4+x,1/2-y,1/4+z
100 1/2-x,1/4+y,3/4+z
101 -z,-x,-y
102 1/2-z,1/4+x,3/4+y
103 1/4+z,3/4+x,1/2-y
104 3/4+z,1/2-x,1/4+y
105 -y,-z,-x
106 3/4+y,1/2-z,1/4+x
107 1/2-y,1/4+z,3/4+x
108 1/4+y,3/4+z,1/2-x
109 1/4-y,3/4-x,1/2+z
110 y,x,z
111 3/4-y,1/2+x,1/4-z
112 1/2+y,1/4-x,3/4-z
113 1/4-x,3/4-z,1/2+y
114 1/2+x,1/4-z,3/4-y
115 x,z,y
116 3/4-x,1/2+z,1/4-y
117 1/4-z,3/4-y,1/2+x
118 3/4-z,1/2+y,1/4-x
119 1/2+z,1/4-y,3/4-x
120 z,y,x
121 -x,1/2-y,1/2-z
122 1/4+x,1/4+y,-z
123 3/4+x,-y,3/4+z
124 1/2-x,3/4+y,1/4+z
125 -z,1/2-x,1/2-y
126 1/2-z,3/4+x,1/4+y
127 1/4+z,1/4+x,-y
128 3/4+z,-x,3/4+y
129 -y,1/2-z,1/2-x
130 3/4+y,-z,3/4+x
131 1/2-y,3/4+z,1/4+x
132 1/4+y,1/4+z,-x
133 1/4-y,1/4-x,z
134 y,1/2+x,1/2+z
135 3/4-y,x,3/4-z
136 1/2+y,3/4-x,1/4-z
137 1/4-x,1/4-z,y
138 1/2+x,3/4-z,1/4-y
139 x,1/2+z,1/2+y
140 3/4-x,z,3/4-y
141 1/4-z,1/4-y,x
142 3/4-z,y,3/4-x
143 1/2+z,3/4-y,1/4-x
144 z,1/2+y,1/2+x
145 1/2-x,-y,1/2-z
146 3/4+x,3/4+y,-z
147 1/4+x,1/2-y,3/4+z
148 -x,1/4+y,1/4+z
149 1/2-z,-x,1/2-y
150 -z,1/4+x,1/4+y
151 3/4+z,3/4+x,-y
152 1/4+z,1/2-x,3/4+y
153 1/2-y,-z,1/2-x
154 1/4+y,1/2-z,3/4+x
155 -y,1/4+z,1/4+x
156 3/4+y,3/4+z,-x
157 3/4-y,3/4-x,z
158 1/2+y,x,1/2+z
159 1/4-y,1/2+x,3/4-z
160 y,1/4-x,1/4-z
161 3/4-x,3/4-z,y
162 x,1/4-z,1/4-y
163 1/2+x,z,1/2+y
164 1/4-x,1/2+z,3/4-y
165 3/4-z,3/4-y,x
166 1/4-z,1/2+y,3/4-x
167 z,1/4-y,1/4-x
168 1/2+z,y,1/2+x
169 1/2-x,1/2-y,-z
170 3/4+x,1/4+y,1/2-z
171 1/4+x,-y,1/4+z
172 -x,3/4+y,3/4+z
173 1/2-z,1/2-x,-y
174 -z,3/4+x,3/4+y
175 3/4+z,1/4+x,1/2-y
176 1/4+z,-x,1/4+y
177 1/2-y,1/2-z,-x
178 1/4+y,-z,1/4+x
179 -y,3/4+z,3/4+x
180 3/4+y,1/4+z,1/2-x
181 3/4-y,1/4-x,1/2+z
182 1/2+y,1/2+x,z
183 1/4-y,x,1/4-z
184 y,3/4-x,3/4-z
185 3/4-x,1/4-z,1/2+y
186 x,3/4-z,3/4-y
187 1/2+x,1/2+z,y
188 1/4-x,z,1/4-y
189 3/4-z,1/4-y,1/2+x
190 1/4-z,y,1/4-x
191 z,3/4-y,3/4-x
192 1/2+z,1/2+y,x
_cell_length_a                   17.4416(15)
_cell_length_b                   17.4416(15)
_cell_length_c                   17.4416(15)
_cell_angle_alpha                90
_cell_angle_beta                 90
_cell_angle_gamma                90
_cell_volume                     5305.9
_exptl_crystal_colour            blue
_exptl_crystal_description       powder
_cell_formula_units_Z            8
loop_
_atom_site_label
_atom_site_type_symbol
_atom_site_fract_x
_atom_site_fract_y
_atom_site_fract_z
_atom_site_U_iso_or_equiv
_atom_site_thermal_displace_type
C1 C 0.0977(3) 0.3758(4) 0.0977(3) 0.0470 Uiso
Cu1 Cu 0.00000 0.50000 0.00000 0.0560 Uiso
Cu2 Cu 0.125 0.625 0.125 0.0470 Uiso
N1 N 0.08042(10) 0.4489(3) 0.08042(10) 0.0660 Uiso
N2 N 0.125 0.4922(5) 0.125 0.0390 Uiso
H1 H 0.075616 0.332552 0.075616 0.0380 Uiso
C1Z C 0.1523(3) 0.3758(4) 0.1523(3) 0.0470 Uiso
C1G C 0.1523(3) 0.5977(3) 0.3742(4) 0.0470 Uiso
C1AB C 0.0977(3) 0.6523(3) 0.3742(4) 0.0470 Uiso
C1J C -0.1242(4) 0.6523(3) 0.1523(3) 0.0470 Uiso
C1BC C -0.1242(4) 0.5977(3) 0.0977(3) 0.0470 Uiso
C1BA C 0.0977(3) 0.5977(3) -0.1242(4) 0.0470 Uiso
C1ZB C 0.1523(3) 0.6523(3) -0.1242(4) 0.0470 Uiso
C1IA C 0.3742(4) 0.6523(3) 0.0977(3) 0.0470 Uiso
C1EB C 0.3742(4) 0.5977(3) 0.1523(3) 0.0470 Uiso
C1WA C 0.1523(3) 0.8742(4) 0.0977(3) 0.0470 Uiso
C1WB C 0.0977(3) 0.8742(4) 0.1523(3) 0.0470 Uiso
Cu1G Cu 0.25000 0.50000 0.25000 0.0560 Uiso
Cu1J Cu 0.00000 0.75000 0.25000 0.0560 Uiso
Cu1IA Cu 0.25000 0.75000 0.00000 0.0560 Uiso
N1Z N 0.16958(10) 0.4489(3) 0.16958(10) 0.0660 Uiso
N1G N 0.16958(10) 0.58042(10) 0.3011(3) 0.0660 Uiso
N1AB N 0.08042(10) 0.66958(10) 0.3011(3) 0.0660 Uiso
N1J N -0.0511(3) 0.66958(10) 0.16958(10) 0.0660 Uiso
N1BC N -0.0511(3) 0.58042(10) 0.08042(10) 0.0660 Uiso
N1BA N 0.08042(10) 0.58042(10) -0.0511(3) 0.0660 Uiso
N1ZB N 0.16958(10) 0.66958(10) -0.0511(3) 0.0660 Uiso
N1IA N 0.3011(3) 0.66958(10) 0.08042(10) 0.0660 Uiso
N1EB N 0.3011(3) 0.58042(10) 0.16958(10) 0.0660 Uiso
N1WA N 0.16958(10) 0.8011(3) 0.08042(10) 0.0660 Uiso
N1WB N 0.08042(10) 0.8011(3) 0.16958(10) 0.0660 Uiso
N1W N -0.08042(10) 0.5511(3) -0.08042(10) 0.0660 Uiso
N1PA N -0.08042(10) 0.41958(10) 0.0511(3) 0.0660 Uiso
N1GC N 0.0511(3) 0.41958(10) -0.08042(10) 0.0660 Uiso
N1SA N 0.33042(10) 0.5511(3) 0.33042(10) 0.0660 Uiso
N1S N 0.33042(10) 0.41958(10) 0.1989(3) 0.0660 Uiso
N1JB N 0.1989(3) 0.41958(10) 0.33042(10) 0.0660 Uiso
N2G N 0.125 0.625 0.2578(5) 0.0390 Uiso
N2J N -0.0078(5) 0.625 0.125 0.0390 Uiso
N2BA N 0.125 0.625 -0.0078(5) 0.0390 Uiso
N2IA N 0.2578(5) 0.625 0.125 0.0390 Uiso
N2WA N 0.125 0.7578(5) 0.125 0.0390 Uiso
H1Z H 0.174384 0.332552 0.174384 0.0380 Uiso
H1G H 0.174384 0.575616 0.417448 0.0380 Uiso
H1AB H 0.075616 0.674384 0.417448 0.0380 Uiso
H1J H -0.167448 0.674384 0.174384 0.0380 Uiso
H1BC H -0.167448 0.575616 0.075616 0.0380 Uiso
H1BA H 0.075616 0.575616 -0.167448 0.0380 Uiso
H1ZB H 0.174384 0.674384 -0.167448 0.0380 Uiso
H1IA H 0.417448 0.674384 0.075616 0.0380 Uiso
H1EB H 0.417448 0.575616 0.174384 0.0380 Uiso
H1WA H 0.174384 0.917448 0.075616 0.0380 Uiso
H1WB H 0.075616 0.917448 0.174384 0.0380 Uiso
loop_
_geom_bond_atom_site_label_1
_geom_bond_atom_site_label_2
_geom_bond_site_symmetry_1
_geom_bond_site_symmetry_2
C1 N1 1_555 1_555
Cu1 N1 1_555 1_555
Cu2 N2 1_555 1_555
N1 N2 1_555 1_555
N2 N1Z 1_555 1_555
H1 C1 1_555 1_555
C1Z C1 1_555 1_555
C1G C1AB 1_555 1_555
C1AB N1AB 1_555 1_555
C1J C1BC 1_555 1_555
C1BC N1BC 1_555 1_555
C1BA C1ZB 1_555 1_555
C1ZB N1ZB 1_555 1_555
C1IA C1EB 1_555 1_555
C1EB N1EB 1_555 1_555
C1WA C1WB 1_555 1_555
C1WB N1WB 1_555 1_555
Cu1G N1Z 1_555 1_555
Cu1J N1AB 1_555 1_555
Cu1IA N1ZB 1_555 1_555
N1Z C1Z 1_555 1_555
N1G C1G 1_555 1_555
N1AB N2G 1_555 1_555
N1J C1J 1_555 1_555
N1BC Cu1 1_555 1_555
N1BA Cu1 1_555 1_555
N1ZB N2BA 1_555 1_555
N1IA C1IA 1_555 1_555
N1EB Cu1G 1_555 1_555
N1WA C1WA 1_555 1_555
N1WB Cu1J 1_555 1_555
N1W Cu1 1_555 1_555
N1PA Cu1 1_555 1_555
N1GC Cu1 1_555 1_555
N1SA Cu1G 1_555 1_555
N1S Cu1G 1_555 1_555
N1JB Cu1G 1_555 1_555
N2G Cu2 1_555 1_555
N2J Cu2 1_555 1_555
N2BA Cu2 1_555 1_555
N2IA Cu2 1_555 1_555
N2WA Cu2 1_555 1_555
H1Z C1Z 1_555 1_555
H1G C1G 1_555 1_555
H1AB C1AB 1_555 1_555
H1J C1J 1_555 1_555
H1BC C1BC 1_555 1_555
H1BA C1BA 1_555 1_555
H1ZB C1ZB 1_555 1_555
H1IA C1IA 1_555 1_555
H1EB C1EB 1_555 1_555
H1WA C1WA 1_555 1_555
H1WB C1WB 1_555 1_555
C1BA N1BA 1_555 1_555
Cu1G N1G 1_555 1_555
Cu1J N1J 1_555 1_555
Cu1IA N1IA 1_555 1_555
Cu1IA N1WA 1_555 1_555
N1G N2G 1_555 1_555
N1J N2J 1_555 1_555
N1BC N2J 1_555 1_555
N1BA N2BA 1_555 1_555
N1IA N2IA 1_555 1_555
N1EB N2IA 1_555 1_555
N1WA N2WA 1_555 1_555
N1WB N2WA 1_555 1_555

#END
