
#######################################################################
#
#                 Cambridge Crystallographic Data Centre
#                                CCDC 
#
#######################################################################
#
# If this CIF has been generated from an entry in the Cambridge 
# Structural Database, then it will include bibliographic, chemical, 
# crystal, experimental, refinement or atomic coordinate data resulting 
# from the CCDC's data processing and validation procedures.
#
#######################################################################

data_BEYSAB
_chemical_name_common            bio-MOF-13
_chemical_formula_moiety         '(C9 H11 Co1 N5 O2)n,n(H2 O1)'
_chemical_name_systematic        
'catena-((\m~3~-adeninato)-(\m~2~-butyrato)-cobalt(ii) monohydrate)'
_symmetry_cell_setting           tetragonal
_symmetry_space_group_name_H-M   'I 41/a'
_symmetry_Int_Tables_number      88
_space_group_name_Hall           '-I 4ad'
loop_
_symmetry_equiv_pos_site_id
_symmetry_equiv_pos_as_xyz
1 x,y,z
2 1/2-x,-y,1/2+z
3 3/4-y,1/4+x,1/4+z
4 3/4+y,3/4-x,3/4+z
5 1/2+x,1/2+y,1/2+z
6 -x,1/2-y,z
7 1/4-y,3/4+x,3/4+z
8 1/4+y,1/4-x,1/4+z
9 -x,-y,-z
10 1/2+x,y,1/2-z
11 1/4+y,3/4-x,3/4-z
12 1/4-y,1/4+x,1/4-z
13 1/2-x,1/2-y,1/2-z
14 x,1/2+y,-z
15 3/4+y,1/4-x,1/4-z
16 3/4-y,3/4+x,3/4-z
_cell_length_a                   15.7869(10)
_cell_length_b                   15.7869(10)
_cell_length_c                   22.328(3)
_cell_angle_alpha                90
_cell_angle_beta                 90
_cell_angle_gamma                90
_cell_volume                     5564.72
_exptl_crystal_colour            'dark purple'
_exptl_crystal_description       block
_cell_formula_units_Z            16
loop_
_atom_site_label
_atom_site_type_symbol
_atom_site_fract_x
_atom_site_fract_y
_atom_site_fract_z
_atom_site_U_iso_or_equiv
_atom_site_thermal_displace_type
O1 O 0.57645(19) 0.60941(18) 0.99967(12) 0.0645 Uani
Co1 Co 0.54068(2) 0.51702(3) 1.058996(17) 0.0391 Uani
O2 O 0.51485(17) 0.59241(16) 0.91219(13) 0.0600 Uani
N1 N 0.1556(3) 0.6911(4) 1.04426(19) 0.0943 Uani
H1 H 0.156(4) 0.715(4) 1.0784(16) 0.1130 Uiso
H2 H 0.125(3) 0.709(4) 1.014(2) 0.1130 Uiso
N2 N 0.2201(2) 0.6181(3) 0.96757(17) 0.0897 Uani
N3 N 0.35814(17) 0.5559(2) 0.97471(12) 0.0493 Uani
N4 N 0.42500(16) 0.57831(17) 1.07059(11) 0.0409 Uani
N5 N 0.31875(17) 0.65060(17) 1.11658(11) 0.0412 Uani
C1 C 0.3964(2) 0.6177(2) 1.12026(14) 0.0460 Uani
H3 H 0.4288 0.6217 1.1549 0.0550 Uiso
C2 C 0.29500(19) 0.6309(2) 1.05872(13) 0.0413 Uani
C3 C 0.2227(2) 0.6482(3) 1.02432(19) 0.0670 Uani
C4 C 0.2867(3) 0.5745(4) 0.94650(19) 0.0773 Uani
H4 H 0.2821 0.5551 0.9073 0.0930 Uiso
C5 C 0.36015(18) 0.58682(19) 1.03150(13) 0.0384 Uani
C6 C 0.5651(2) 0.6299(2) 0.94670(16) 0.0490 Uani
C7 C 0.6147(3) 0.7046(3) 0.9235(3) 0.0787 Uani
H5 H 0.5818 0.7555 0.9308 0.0940 Uiso
H6 H 0.6664 0.7093 0.9467 0.0940 Uiso
C8 C 0.6364(12) 0.7028(11) 0.8627(8) 0.1670 Uiso
H7 H 0.5835 0.7077 0.8410 0.2000 Uiso
H8 H 0.6673 0.7549 0.8553 0.2000 Uiso
C9 C 0.6773(14) 0.6457(12) 0.8368(10) 0.2000 Uiso
H9 H 0.6818 0.6588 0.7950 0.3000 Uiso
H10 H 0.6486 0.5926 0.8417 0.3000 Uiso
H11 H 0.7330 0.6419 0.8539 0.3000 Uiso
Co1H Co 0.45932(2) 0.48298(3) 0.941004(17) 0.0391 Uani
Co1N Co 0.26702(3) 0.70932(2) 1.191004(17) 0.0391 Uani
O2H O 0.48515(17) 0.40759(16) 1.08781(13) 0.0600 Uani
N3H N 0.64186(17) 0.4441(2) 1.02529(12) 0.0493 Uani
N5K N 0.59940(17) 0.56875(17) 1.13342(11) 0.0412 Uani
O3 O 0.974(3) 0.674(2) 0.901(2) 0.5000 Uiso
H12? H 0.5912 0.7215 0.8851 0.0940 Uiso
H13? H 0.6071 0.7516 0.9510 0.0940 Uiso
C10? C 0.7003(12) 0.6922(15) 0.9219(12) 0.1670 Uiso
H14? H 0.7175 0.7177 0.8843 0.2000 Uiso
H15? H 0.7218 0.7296 0.9528 0.2000 Uiso
C11? C 0.7462(14) 0.6275(16) 0.9261(15) 0.2000 Uiso
H16? H 0.8045 0.6444 0.9293 0.3000 Uiso
H17? H 0.7390 0.5930 0.8911 0.3000 Uiso
H18? H 0.7303 0.5958 0.9610 0.3000 Uiso
O4? O 0.9886(9) 0.7084(7) 0.9838(6) 0.1330 Uiso
loop_
_atom_site_aniso_label
_atom_site_aniso_U_11
_atom_site_aniso_U_22
_atom_site_aniso_U_33
_atom_site_aniso_U_23
_atom_site_aniso_U_13
_atom_site_aniso_U_12
O1 0.0776(19) 0.0680(17) 0.0480(14) 0.0013(12) 0.0056(12) -0.0076(14)
Co1 0.0371(3) 0.0467(3) 0.0335(3) -0.01380(15) -0.00300(14) 0.00148(15)
O2 0.0571(14) 0.0521(14) 0.0708(18) -0.0061(12) -0.0119(12) -0.0083(11)
N1 0.058(2) 0.161(4) 0.064(2) -0.039(3) -0.0114(18) 0.050(3)
N2 0.0532(19) 0.156(4) 0.060(2) -0.043(2) -0.0183(16) 0.041(2)
N3 0.0390(13) 0.0696(18) 0.0392(13) -0.0191(13) -0.0044(10) 0.0075(12)
N4 0.0414(13) 0.0470(14) 0.0343(12) -0.0121(10) 0.0009(10) 0.0062(10)
N5 0.0425(13) 0.0475(13) 0.0337(12) -0.0065(10) 0.0071(10) 0.0016(10)
C1 0.0482(17) 0.0551(18) 0.0347(15) -0.0117(13) 0.0026(12) 0.0083(14)
C2 0.0385(15) 0.0499(17) 0.0356(14) -0.0083(12) 0.0038(11) 0.0026(12)
C3 0.0459(18) 0.101(3) 0.054(2) -0.020(2) -0.0042(16) 0.0198(19)
C4 0.055(2) 0.126(4) 0.051(2) -0.038(2) -0.0116(17) 0.026(2)
C5 0.0364(13) 0.0416(14) 0.0371(14) -0.0088(11) 0.0046(11) -0.0007(11)
C6 0.0524(19) 0.0412(16) 0.0535(19) -0.0012(13) 0.0040(14) -0.0034(14)
C7 0.083(3) 0.069(3) 0.084(3) 0.012(2) 0.001(3) -0.027(2)
Co1H 0.0371 0.0467 0.0335 -0.0138 -0.003 0.00148
Co1N 0.0467 0.0371 0.0335 -0.003 0.0138 -0.00148
O2H 0.0571 0.0521 0.0708 -0.0061 -0.0119 -0.0083
N3H 0.039 0.0696 0.0392 -0.0191 -0.0044 0.0075
N5K 0.0475 0.0425 0.0337 -0.0071 -0.0065 -0.0016
loop_
_geom_bond_atom_site_label_1
_geom_bond_atom_site_label_2
_geom_bond_site_symmetry_1
_geom_bond_site_symmetry_2
O1 Co1 1_555 1_555
Co1 N4 1_555 1_555
O2 C6 1_555 1_555
N1 H1 1_555 1_555
H2 N1 1_555 1_555
N2 C3 1_555 1_555
N3 C4 1_555 1_555
N4 C1 1_555 1_555
N5 C1 1_555 1_555
C1 H3 1_555 1_555
C2 N5 1_555 1_555
C3 N1 1_555 1_555
C4 N2 1_555 1_555
H4 C4 1_555 1_555
C5 N3 1_555 1_555
C6 O1 1_555 1_555
C7 C6 1_555 1_555
H5 C7 1_555 1_555
H6 C7 1_555 1_555
C8 C7 1_555 1_555
H7 C8 1_555 1_555
H8 C8 1_555 1_555
C9 C8 1_555 1_555
H9 C9 1_555 1_555
H10 C9 1_555 1_555
H11 C9 1_555 1_555
Co1H O2 1_555 1_555
Co1N N5 1_555 1_555
O2H Co1 1_555 1_555
N3H Co1 1_555 1_555
N5K Co1 1_555 1_555
N3 Co1H 1_555 1_555
N4 C5 1_555 1_555
C2 C3 1_555 1_555
C2 C5 1_555 1_555

#END
