
#######################################################################
#
#                 Cambridge Crystallographic Data Centre
#                                CCDC 
#
#######################################################################
#
# If this CIF has been generated from an entry in the Cambridge 
# Structural Database, then it will include bibliographic, chemical, 
# crystal, experimental, refinement or atomic coordinate data resulting 
# from the CCDC's data processing and validation procedures.
#
#######################################################################

data_BEYSEF
_chemical_name_common            bio-MOF-12
_chemical_formula_moiety         '(C8 H9 Co1 N5 O2)n,n(C3 H7 N1 O1)'
_chemical_name_systematic        
'catena-((\m~3~-adeninato)-(\m~2~-propionato)-cobalt(ii) N,N-dimethylformamide solvate)'
_symmetry_cell_setting           tetragonal
_symmetry_space_group_name_H-M   'I 41/a'
_symmetry_Int_Tables_number      88
_space_group_name_Hall           '-I 4ad'
loop_
_symmetry_equiv_pos_site_id
_symmetry_equiv_pos_as_xyz
1 x,y,z
2 1/2-x,-y,1/2+z
3 3/4-y,1/4+x,1/4+z
4 3/4+y,3/4-x,3/4+z
5 1/2+x,1/2+y,1/2+z
6 -x,1/2-y,z
7 1/4-y,3/4+x,3/4+z
8 1/4+y,1/4-x,1/4+z
9 -x,-y,-z
10 1/2+x,y,1/2-z
11 1/4+y,3/4-x,3/4-z
12 1/4-y,1/4+x,1/4-z
13 1/2-x,1/2-y,1/2-z
14 x,1/2+y,-z
15 3/4+y,1/4-x,1/4-z
16 3/4-y,3/4+x,3/4-z
_cell_length_a                   17.243(3)
_cell_length_b                   17.243(3)
_cell_length_c                   20.157(6)
_cell_angle_alpha                90
_cell_angle_beta                 90
_cell_angle_gamma                90
_cell_volume                     5993.1
_exptl_crystal_description       block
_cell_formula_units_Z            16
loop_
_atom_site_label
_atom_site_type_symbol
_atom_site_fract_x
_atom_site_fract_y
_atom_site_fract_z
_atom_site_U_iso_or_equiv
_atom_site_thermal_displace_type
Co1 Co 0.03761(2) 0.46924(2) 0.060409(18) 0.0276 Uani
C1 C 0.11616(16) 0.34439(16) 0.13443(14) 0.0322 Uani
H1 H 0.1017 0.3131 0.0989 0.0390 Uiso
C2 C 0.12675(16) 0.44150(15) 0.19877(13) 0.0286 Uani
C3 C 0.12740(17) 0.51174(17) 0.23400(15) 0.0355 Uani
C4 C 0.05496(17) 0.38656(17) -0.07007(16) 0.0356 Uani
C5 C 0.0895(2) 0.32221(19) -0.11028(17) 0.0527 Uani
H2 H 0.1325 0.3430 -0.1357 0.0630 Uiso
H3 H 0.0508 0.3043 -0.1417 0.0630 Uiso
C6 C 0.1182(2) 0.2534(2) -0.0712(2) 0.0710 Uani
H4 H 0.1393 0.2155 -0.1010 0.1070 Uiso
H5 H 0.0758 0.2309 -0.0470 0.1070 Uiso
H6 H 0.1576 0.2699 -0.0407 0.1070 Uiso
C7 C 0.16975(15) 0.38061(15) 0.22415(13) 0.0274 Uani
C8 C 0.21001(19) 0.45287(17) 0.30908(16) 0.0428 Uani
H7 H 0.2395 0.4586 0.3474 0.0510 Uiso
N1 N 0.09196(13) 0.41756(13) 0.13986(11) 0.0291 Uani
N2 N 0.08829(16) 0.57536(14) 0.21591(14) 0.0498 Uani
H8 H 0.0911 0.6167 0.2396 0.0600 Uiso
H9 H 0.0603 0.5749 0.1806 0.0600 Uiso
N3 N 0.17077(16) 0.51505(14) 0.29003(13) 0.0444 Uani
N4 N 0.16279(13) 0.31820(13) 0.18323(11) 0.0303 Uani
N5 N 0.21280(14) 0.38340(13) 0.28063(12) 0.0320 Uani
O1 O 0.07272(12) 0.39095(12) -0.01009(10) 0.0430 Uani
O2 O 0.01097(12) 0.43375(12) -0.09970(11) 0.0437 Uani
Co1B Co 0.28076(2) 0.28761(2) 0.310409(18) 0.0276 Uani
Co1H Co -0.03761(2) 0.53076(2) -0.060409(18) 0.0276 Uani
Co1N Co 0.21924(2) 0.21239(2) 0.189591(18) 0.0276 Uani
N4K N -0.06820(13) 0.41279(13) 0.06677(11) 0.0303 Uani
N5C N 0.13340(13) 0.53720(14) 0.03063(12) 0.0320 Uani
O2H O -0.01097(12) 0.56625(12) 0.09970(11) 0.0437 Uani
O3 O 0.1056(2) 0.72953(19) 0.2787(2) 0.1087 Uani
N6 N 0.1342(2) 0.8549(2) 0.29902(17) 0.0703 Uani
C9 C 0.0876(3) 0.7957(3) 0.2914(2) 0.0840 Uani
H10 H 0.0349 0.8056 0.2964 0.1010 Uiso
C10 C 0.2160(3) 0.8433(3) 0.2936(3) 0.1293 Uani
H11 H 0.2262 0.7903 0.2819 0.1940 Uiso
H12 H 0.2402 0.8550 0.3352 0.1940 Uiso
H13 H 0.2364 0.8768 0.2598 0.1940 Uiso
C11 C 0.1078(4) 0.9314(3) 0.3149(3) 0.1310 Uani
H14 H 0.0522 0.9319 0.3167 0.1960 Uiso
H15 H 0.1252 0.9671 0.2815 0.1960 Uiso
H16 H 0.1284 0.9466 0.3572 0.1960 Uiso
loop_
_atom_site_aniso_label
_atom_site_aniso_U_11
_atom_site_aniso_U_22
_atom_site_aniso_U_33
_atom_site_aniso_U_23
_atom_site_aniso_U_13
_atom_site_aniso_U_12
Co1 0.0247(2) 0.0291(2) 0.0290(2) 0.00800(16) -0.00282(16) -0.00118(16)
C1 0.0366(17) 0.0302(15) 0.0297(15) 0.0017(12) -0.0075(12) 0.0009(13)
C2 0.0308(15) 0.0266(14) 0.0285(15) 0.0032(11) -0.0007(12) -0.0006(12)
C3 0.0389(17) 0.0314(16) 0.0362(17) 0.0002(13) -0.0027(13) 0.0033(13)
C4 0.0308(16) 0.0320(16) 0.0439(19) 0.0003(14) 0.0039(14) -0.0013(13)
C5 0.063(2) 0.049(2) 0.046(2) -0.0075(16) 0.0008(18) 0.0169(18)
C6 0.080(3) 0.047(2) 0.086(3) -0.003(2) -0.007(2) 0.027(2)
C7 0.0272(14) 0.0254(14) 0.0297(15) 0.0035(11) -0.0019(12) 0.0010(11)
C8 0.055(2) 0.0356(17) 0.0378(17) -0.0065(14) -0.0144(16) 0.0075(15)
N1 0.0306(13) 0.0285(12) 0.0283(12) 0.0037(10) -0.0062(10) -0.0003(10)
N2 0.066(2) 0.0302(14) 0.0533(17) -0.0051(12) -0.0206(15) 0.0189(14)
N3 0.0606(18) 0.0316(14) 0.0409(16) -0.0078(12) -0.0174(13) 0.0110(13)
N4 0.0340(13) 0.0272(12) 0.0298(12) 0.0000(10) -0.0092(11) 0.0035(10)
N5 0.0355(14) 0.0271(13) 0.0335(13) -0.0031(10) -0.0082(11) 0.0033(10)
O1 0.0453(13) 0.0442(13) 0.0394(13) -0.0036(10) 0.0013(10) 0.0040(10)
O2 0.0404(13) 0.0334(12) 0.0572(15) 0.0005(10) -0.0070(11) 0.0105(10)
Co1B 0.0291 0.0247 0.029 -0.00282 -0.008 0.00118
Co1H 0.0247 0.0291 0.029 0.008 -0.00282 -0.00118
Co1N 0.0291 0.0247 0.029 -0.00282 -0.008 0.00118
N4K 0.0272 0.034 0.0298 0.0092 0 -0.0035
N5C 0.0271 0.0355 0.0335 0.0082 -0.0031 -0.0033
O2H 0.0404 0.0334 0.0572 0.0005 -0.007 0.0105
O3 0.123(3) 0.057(2) 0.146(3) -0.027(2) -0.007(2) -0.002(2)
N6 0.073(2) 0.061(2) 0.077(2) -0.0113(18) -0.0088(19) -0.0079(19)
C9 0.078(3) 0.077(3) 0.097(4) -0.011(3) -0.007(3) -0.011(3)
C10 0.079(4) 0.123(5) 0.186(7) -0.057(5) 0.011(4) -0.024(3)
C11 0.168(6) 0.063(3) 0.162(6) -0.030(4) -0.058(5) 0.023(4)
loop_
_geom_bond_atom_site_label_1
_geom_bond_atom_site_label_2
_geom_bond_site_symmetry_1
_geom_bond_site_symmetry_2
Co1 N1 1_555 1_555
C1 H1 1_555 1_555
C2 C3 1_555 1_555
C3 N2 1_555 1_555
C4 C5 1_555 1_555
C5 H2 1_555 1_555
H3 C5 1_555 1_555
C6 C5 1_555 1_555
H4 C6 1_555 1_555
H5 C6 1_555 1_555
H6 C6 1_555 1_555
C7 C2 1_555 1_555
C8 H7 1_555 1_555
N1 C1 1_555 1_555
N2 H8 1_555 1_555
H9 N2 1_555 1_555
N3 C3 1_555 1_555
N4 C1 1_555 1_555
N5 C7 1_555 1_555
O1 Co1 1_555 1_555
O2 C4 1_555 1_555
O3 C9 1_555 1_555
N6 C9 1_555 1_555
C9 H10 1_555 1_555
C10 N6 1_555 1_555
H11 C10 1_555 1_555
H12 C10 1_555 1_555
H13 C10 1_555 1_555
C11 N6 1_555 1_555
H14 C11 1_555 1_555
H15 C11 1_555 1_555
H16 C11 1_555 1_555
Co1B N5 1_555 1_555
Co1H O2 1_555 1_555
Co1N N4 1_555 1_555
N4K Co1 1_555 1_555
N5C Co1 1_555 1_555
O2H Co1 1_555 1_555
C2 N1 1_555 1_555
C4 O1 1_555 1_555
C7 N4 1_555 1_555
C8 N3 1_555 1_555
C8 N5 1_555 1_555

#END
