
#######################################################################
#
#                 Cambridge Crystallographic Data Centre
#                                CCDC 
#
#######################################################################
#
# If this CIF has been generated from an entry in the Cambridge 
# Structural Database, then it will include bibliographic, chemical, 
# crystal, experimental, refinement or atomic coordinate data resulting 
# from the CCDC's data processing and validation procedures.
#
#######################################################################

data_YAQXUL
_chemical_formula_moiety         '(C24 H18 Cu2 N4 O21 P3 V4)n,n(H2 O1)'
_chemical_name_systematic        
'catena-(tris(\m~4~-phosphato)-tetrakis(\m~3~-oxo)-bis(1,10-phenanthroline)-aqua-tetraoxo-di-copper-tetra-vanadium monohydrate)'
_symmetry_cell_setting           triclinic
_symmetry_space_group_name_H-M   'P -1'
_symmetry_Int_Tables_number      2
_space_group_name_Hall           '-P 1'
loop_
_symmetry_equiv_pos_site_id
_symmetry_equiv_pos_as_xyz
1 x,y,z
2 -x,-y,-z
_cell_length_a                   7.4114(4)
_cell_length_b                   11.5597(6)
_cell_length_c                   20.5406(11)
_cell_angle_alpha                87.343(4)
_cell_angle_beta                 82.433(5)
_cell_angle_gamma                73.090(5)
_cell_volume                     1668.98
_exptl_crystal_colour            green
_exptl_crystal_description       needle
_cell_formula_units_Z            2
loop_
_atom_site_label
_atom_site_type_symbol
_atom_site_fract_x
_atom_site_fract_y
_atom_site_fract_z
Cu1 Cu 0.11064(7) 1.43763(4) 0.13728(2)
Cu2 Cu 0.54588(7) 1.51405(4) 0.33142(2)
V1 V -0.11005(9) 1.87294(6) 0.31796(3)
V2 V 0.06396(9) 1.05405(6) 0.31921(3)
V3 V 0.19349(9) 1.87860(6) 0.18821(3)
V4 V -0.15221(9) 1.05297(6) 0.18775(3)
P1 P -0.12045(14) 1.29809(9) 0.24532(5)
P2 P 0.12836(14) 1.62867(9) 0.24303(5)
P3 P -0.50307(14) 1.96536(9) 0.25387(5)
O1 O -0.5667(4) 1.8851(2) 0.20969(14)
O2 O -0.1723(3) 2.0377(2) 0.30705(13)
O3 O 0.6294(4) 1.6409(3) 0.28064(15)
O4 O -0.0181(4) 1.7006(2) 0.29673(13)
O5 O -0.3652(4) 1.8786(2) 0.29623(14)
O6 O -0.0258(4) 1.2225(2) 0.30246(13)
O7 O 0.1313(4) 1.8850(2) 0.30399(13)
O8 O 0.2446(4) 1.7064(2) 0.20652(13)
O9 O 0.0340(4) 1.3244(2) 0.19569(13)
O10 O -0.2280(4) 1.2232(2) 0.21259(13)
O11 O -0.0648(4) 1.8884(2) 0.19931(13)
O12 O 0.0936(4) 1.0445(2) 0.20236(13)
N1 N 0.4726(4) 1.3816(3) 0.38514(16)
O13 O -0.1452(4) 1.0676(3) 0.11004(13)
N2 N 0.2064(5) 1.3077(3) 0.06849(16)
O14 O 0.2441(4) 1.8741(3) 0.11056(14)
O15 O 0.0322(4) 1.5710(2) 0.19914(13)
O16 O 0.0545(4) 1.0545(2) 0.39708(14)
N3 N 0.1736(5) 1.5408(3) 0.06190(16)
O17 O -0.1484(4) 1.8589(3) 0.39587(13)
O18 O 0.2732(4) 1.5241(3) 0.27845(13)
C1 C 0.1455(6) 1.5231(4) 0.5597(2)
H1 H 0.0751 1.5559 0.6001
C2 C 0.3177(6) 1.1588(4) -0.0416(2)
H2 H 0.3528 1.1074 -0.0788
O19 O -0.2674(4) 1.4120(2) 0.27081(13)
N4 N 0.3857(5) 1.6174(3) 0.40493(16)
C3 C 0.3193(5) 1.5506(4) 0.4531(2)
C4 C 0.2749(6) 1.1138(4) 0.0196(2)
H3 H 0.2837 1.0304 0.0251
C5 C 0.3434(6) 1.7367(4) 0.4131(2)
H4 H 0.3891 1.7839 0.3794
C6 C 0.2633(6) 1.6562(4) -0.0546(2)
H5 H 0.2961 1.6963 -0.0938
C7 C 0.1546(6) 1.6583(4) 0.0608(2)
H6 H 0.1107 1.7024 0.1005
O20 O -0.6726(4) 2.0455(3) 0.29771(14)
C8 C 0.2369(5) 1.4782(4) 0.00491(19)
O21 O -0.4096(4) 2.0496(3) 0.21091(14)
C9 C 0.2923(6) 1.3492(4) 0.4887(2)
C10 C 0.2515(5) 1.3526(4) 0.0078(2)
C11 C 0.3620(5) 1.4249(4) 0.44216(19)
C12 C 0.1973(6) 1.7202(4) 0.0029(2)
H7 H 0.1810 1.8048 0.0034
C13 C 0.1692(6) 1.7266(4) 0.5189(2)
H8 H 0.0972 1.7644 0.5580
C14 C 0.3091(6) 1.2823(4) -0.0488(2)
C15 C 0.2183(6) 1.1907(4) 0.0740(2)
H9 H 0.1877 1.1583 0.1160
C16 C 0.5103(6) 1.2655(4) 0.3714(2)
H10 H 0.5864 1.2354 0.3314
C17 C 0.2819(6) 1.5327(4) -0.0554(2)
C18 C 0.4412(6) 1.1861(4) 0.4139(2)
H11 H 0.4678 1.1037 0.4023
C19 C 0.2096(6) 1.6013(4) 0.5114(2)
C20 C 0.1842(6) 1.4034(4) 0.5484(2)
H12 H 0.1388 1.3540 0.5809
C21 C 0.2339(6) 1.7945(4) 0.4697(2)
H13 H 0.2048 1.8796 0.4739
C22 C 0.3334(6) 1.2279(4) 0.4732(2)
H14 H 0.2883 1.1741 0.5028
C23 C 0.3398(6) 1.4588(4) -0.1130(2)
H15 H 0.3712 1.4939 -0.1541
C24 C 0.3506(6) 1.3394(4) -0.1097(2)
H16 H 0.3863 1.2930 -0.1488
H17 H 0.743(7) 1.599(5) 0.261(2)
H18 H 0.627(7) 1.718(4) 0.291(3)
Cu2_2 Cu -0.45412(7) 1.51405(4) 0.33142(2)
V2_2 V 0.06396(9) 2.05405(6) 0.31921(3)
V2_3 V -0.93604(9) 2.05405(6) 0.31921(3)
V3_2 V -0.80651(9) 1.87860(6) 0.18821(3)
V3_3 V 0.19349(9) 0.87860(6) 0.18821(3)
V4_2 V -0.15221(9) 2.05297(6) 0.18775(3)
O1_2 O 0.4333(4) 1.8851(2) 0.20969(14)
O2_2 O -0.1723(3) 1.0377(2) 0.30705(13)
O7_2 O 0.1313(4) 0.8850(2) 0.30399(13)
O11_2 O -0.0648(4) 0.8884(2) 0.19931(13)
O12_2 O 0.0936(4) 2.0445(2) 0.20236(13)
O19_2 O 0.7326(4) 1.4120(2) 0.27081(13)
O20_2 O 0.3274(4) 1.0455(3) 0.29771(14)
O21_2 O -0.4096(4) 1.0496(3) 0.21091(14)
O22 O 0.3913(4) 1.3285(3) 0.21086(15)
loop_
_geom_bond_atom_site_label_1
_geom_bond_atom_site_label_2
_geom_bond_site_symmetry_1
_geom_bond_site_symmetry_2
Cu1 O9 1_555 1_555
Cu2 O3 1_555 1_555
V1 O2 1_555 1_555
V2 O6 1_555 1_555
V3 O7 1_555 1_555
V4 O10 1_555 1_555
P1 O6 1_555 1_555
P2 O4 1_555 1_555
P3 O1 1_555 1_555
O1 V3_2 1_555 1_555
O2 V2_2 1_555 1_555
O3 H17 1_555 1_555
O4 V1 1_555 1_555
O5 V1 1_555 1_555
O7 V1 1_555 1_555
O8 V3 1_555 1_555
O9 P1 1_555 1_555
O10 P1 1_555 1_555
O11 V1 1_555 1_555
O12 V2 1_555 1_555
N1 Cu2 1_555 1_555
O13 V4 1_555 1_555
N2 Cu1 1_555 1_555
O14 V3 1_555 1_555
O15 Cu1 1_555 1_555
O16 V2 1_555 1_555
N3 Cu1 1_555 1_555
O17 V1 1_555 1_555
O18 Cu2 1_555 1_555
C1 H1 1_555 1_555
C2 H2 1_555 1_555
O19 P1 1_555 1_555
N4 Cu2 1_555 1_555
C3 N4 1_555 1_555
C4 C2 1_555 1_555
H3 C4 1_555 1_555
C5 N4 1_555 1_555
H4 C5 1_555 1_555
C6 H5 1_555 1_555
C7 N3 1_555 1_555
H6 C7 1_555 1_555
O20 P3 1_555 1_555
C8 N3 1_555 1_555
O21 P3 1_555 1_555
C9 C11 1_555 1_555
C10 N2 1_555 1_555
C11 N1 1_555 1_555
C12 C6 1_555 1_555
H7 C12 1_555 1_555
C13 H8 1_555 1_555
C14 C2 1_555 1_555
C15 N2 1_555 1_555
H9 C15 1_555 1_555
C16 N1 1_555 1_555
H10 C16 1_555 1_555
C17 C6 1_555 1_555
C18 C16 1_555 1_555
H11 C18 1_555 1_555
C19 C1 1_555 1_555
C20 C1 1_555 1_555
H12 C20 1_555 1_555
C21 C5 1_555 1_555
H13 C21 1_555 1_555
C22 C9 1_555 1_555
H14 C22 1_555 1_555
C23 C17 1_555 1_555
H15 C23 1_555 1_555
C24 C14 1_555 1_555
H16 C24 1_555 1_555
H18 O3 1_555 1_555
Cu2_2 O19 1_555 1_555
V2_2 O7 1_555 1_555
V2_3 O20 1_555 1_555
V3_3 O12 1_555 1_555
V4_2 O2 1_555 1_555
O1_2 V3 1_555 1_555
O2_2 V2 1_555 1_555
O7_2 V2 1_555 1_555
O11_2 V4 1_555 1_555
O12_2 V3 1_555 1_555
O19_2 Cu2 1_555 1_555
O20_2 V2 1_555 1_555
O21_2 V4 1_555 1_555
V3 O11 1_555 1_555
V4 O12 1_555 1_555
V4 O2_2 1_555 1_555
P2 O8 1_555 1_555
P2 O15 1_555 1_555
P2 O18 1_555 1_555
P3 O5 1_555 1_555
O11 V4_2 1_555 1_555
C3 C11 1_555 1_555
C3 C19 1_555 1_555
C4 C15 1_555 1_555
C7 C12 1_555 1_555
C8 C10 1_555 1_555
C8 C17 1_555 1_555
O21 V4_2 1_555 1_555
C9 C20 1_555 1_555
C10 C14 1_555 1_555
C13 C19 1_555 1_555
C13 C21 1_555 1_555
C18 C22 1_555 1_555
C23 C24 1_555 1_555
V2_2 O12_2 1_555 1_555
V3_3 O7_2 1_555 1_555
V3_3 O11_2 1_555 1_555
V4_2 O12_2 1_555 1_555

#END
