
#######################################################################
#
#                 Cambridge Crystallographic Data Centre
#                                CCDC 
#
#######################################################################
#
# If this CIF has been generated from an entry in the Cambridge 
# Structural Database, then it will include bibliographic, chemical, 
# crystal, experimental, refinement or atomic coordinate data resulting 
# from the CCDC's data processing and validation procedures.
#
#######################################################################

data_XUVMOQ10
_chemical_formula_moiety         '(C32 H24 N2 O8 Rh2)n'
_chemical_name_systematic        
catena-(tetrakis(\m~2~-benzoato)-(\m~2~-pyrazine)-di-rhodium(ii))
_symmetry_cell_setting           monoclinic
_symmetry_space_group_name_H-M   'C 2/c'
_symmetry_Int_Tables_number      15
_space_group_name_Hall           '-C 2yc'
loop_
_symmetry_equiv_pos_site_id
_symmetry_equiv_pos_as_xyz
1 x,y,z
2 -x,y,1/2-z
3 1/2+x,1/2+y,z
4 1/2-x,1/2+y,1/2-z
5 -x,-y,-z
6 x,-y,1/2+z
7 1/2-x,1/2-y,-z
8 1/2+x,1/2-y,1/2+z
_cell_length_a                   17.713(11)
_cell_length_b                   9.623(6)
_cell_length_c                   19.575(12)
_cell_angle_alpha                90
_cell_angle_beta                 98.249(10)
_cell_angle_gamma                90
_cell_volume                     3302.08
_exptl_crystal_colour            red
_exptl_crystal_description       plate
_cell_formula_units_Z            4
loop_
_atom_site_label
_atom_site_type_symbol
_atom_site_fract_x
_atom_site_fract_y
_atom_site_fract_z
C1 C -0.1376(3) 0.7306(6) 0.2857(3)
C2 C -0.2132(4) 0.7327(6) 0.3103(3)
C3 C -0.2439(4) 0.8566(7) 0.3308(3)
H1 H -0.2181 0.9418 0.3259
C4 C -0.3119(4) 0.8569(8) 0.3584(4)
H2 H -0.3328 0.9417 0.3721
C5 C -0.3490(4) 0.7324(7) 0.3656(4)
H3 H -0.3941 0.7318 0.3865
C6 C -0.3215(4) 0.6081(7) 0.3428(3)
H4 H -0.3487 0.5239 0.3461
C7 C -0.2531(4) 0.6086(7) 0.3150(3)
H5 H -0.2336 0.5244 0.2992
C8 C -0.0592(4) 0.7287(6) 0.1199(3)
C9 C -0.0991(4) 0.7257(7) 0.0470(3)
C10 C -0.1032(4) 0.6017(8) 0.0100(4)
H6 H -0.0788 0.5207 0.0302
C11 C -0.1433(4) 0.5965(8) -0.0568(4)
H7 H -0.1466 0.5122 -0.0823
C12 C -0.1784(5) 0.7165(9) -0.0855(4)
H8 H -0.2056 0.7133 -0.1310
C13 C -0.1748(5) 0.8371(10) -0.0503(4)
H9 H -0.1997 0.9177 -0.0706
C14 C -0.1339(5) 0.8430(8) 0.0167(4)
H10 H -0.1302 0.9284 0.0414
C15 C 0.0380(4) 1.3042(6) 0.2081(3)
H11 H 0.0660 1.3516 0.1773
C16 C 0.0381(3) 1.1603(6) 0.2077(3)
H12 H 0.0658 1.1129 0.1767
N1 N 0.0000 1.3805(8) 0.2500
N2 N 0.0000 1.0851(7) 0.2500
O1 O -0.1066(2) 0.8490(4) 0.2781(2)
O2 O -0.1079(2) 0.6147(4) 0.2753(2)
O3 O -0.0429(3) 0.6119(4) 0.1477(2)
O4 O -0.0476(3) 0.8465(5) 0.1487(2)
Rh1 Rh 0.0000 0.85583(7) 0.2500
Rh2 Rh 0.0000 0.60552(6) 0.2500
C1A C 0.1376(3) 0.7306(6) 0.2143(3)
C2A C 0.2132(4) 0.7327(6) 0.1897(3)
C3A C 0.2439(4) 0.8566(7) 0.1692(3)
H1A H 0.2181 0.9418 0.1741
C4A C 0.3119(4) 0.8569(8) 0.1416(4)
H2A H 0.3328 0.9417 0.1279
C5A C 0.3490(4) 0.7324(7) 0.1344(4)
H3A H 0.3941 0.7318 0.1135
C6A C 0.3215(4) 0.6081(7) 0.1572(3)
H4A H 0.3487 0.5239 0.1539
C7A C 0.2531(4) 0.6086(7) 0.1850(3)
H5A H 0.2336 0.5244 0.2008
C8A C 0.0592(4) 0.7287(6) 0.3801(3)
C9A C 0.0991(4) 0.7257(7) 0.4530(3)
C10A C 0.1032(4) 0.6017(8) 0.4900(4)
H6A H 0.0788 0.5207 0.4698
C11A C 0.1433(4) 0.5965(8) 0.5568(4)
H7A H 0.1466 0.5122 0.5823
C12A C 0.1784(5) 0.7165(9) 0.5855(4)
H8A H 0.2056 0.7133 0.6310
C13A C 0.1748(5) 0.8371(10) 0.5503(4)
H9A H 0.1997 0.9177 0.5706
C14A C 0.1339(5) 0.8430(8) 0.4833(4)
H10A H 0.1302 0.9284 0.4586
C15A C -0.0380(4) 1.3042(6) 0.2919(3)
H11A H -0.0660 1.3516 0.3227
C16A C -0.0381(3) 1.1603(6) 0.2923(3)
H12A H -0.0658 1.1129 0.3233
N1_2 N 0.0000 0.3805(8) 0.2500
O1A O 0.1066(2) 0.8490(4) 0.2219(2)
O2A O 0.1079(2) 0.6147(4) 0.2247(2)
O3A O 0.0429(3) 0.6119(4) 0.3523(2)
O4A O 0.0476(3) 0.8465(5) 0.3513(2)
Rh2_2 Rh 0.0000 1.60552(6) 0.2500
loop_
_geom_bond_atom_site_label_1
_geom_bond_atom_site_label_2
_geom_bond_site_symmetry_1
_geom_bond_site_symmetry_2
C1 C2 1_555 1_555
C2 C3 1_555 1_555
C3 H1 1_555 1_555
C4 C3 1_555 1_555
H2 C4 1_555 1_555
C5 C4 1_555 1_555
H3 C5 1_555 1_555
C6 C5 1_555 1_555
H4 C6 1_555 1_555
C7 C2 1_555 1_555
H5 C7 1_555 1_555
C8 C9 1_555 1_555
C9 C10 1_555 1_555
C10 H6 1_555 1_555
C11 C10 1_555 1_555
H7 C11 1_555 1_555
C12 C11 1_555 1_555
H8 C12 1_555 1_555
C13 C12 1_555 1_555
H9 C13 1_555 1_555
C14 C9 1_555 1_555
H10 C14 1_555 1_555
C15 H11 1_555 1_555
C16 C15 1_555 1_555
H12 C16 1_555 1_555
N1 C15 1_555 1_555
N2 C16 1_555 1_555
O1 C1 1_555 1_555
O2 C1 1_555 1_555
O3 C8 1_555 1_555
O4 C8 1_555 1_555
Rh1 N2 1_555 1_555
Rh2 O2 1_555 1_555
C1A C2A 1_555 1_555
C2A C3A 1_555 1_555
C3A H1A 1_555 1_555
C4A C3A 1_555 1_555
H2A C4A 1_555 1_555
C5A C4A 1_555 1_555
H3A C5A 1_555 1_555
C6A C5A 1_555 1_555
H4A C6A 1_555 1_555
C7A C2A 1_555 1_555
H5A C7A 1_555 1_555
C8A C9A 1_555 1_555
C9A C10A 1_555 1_555
C10A H6A 1_555 1_555
C11A C10A 1_555 1_555
H7A C11A 1_555 1_555
C12A C11A 1_555 1_555
H8A C12A 1_555 1_555
C13A C12A 1_555 1_555
H9A C13A 1_555 1_555
C14A C9A 1_555 1_555
H10A C14A 1_555 1_555
C15A N1 1_555 1_555
H11A C15A 1_555 1_555
C16A N2 1_555 1_555
H12A C16A 1_555 1_555
N1_2 Rh2 1_555 1_555
O1A Rh1 1_555 1_555
O2A Rh2 1_555 1_555
O3A Rh2 1_555 1_555
O4A Rh1 1_555 1_555
Rh2_2 N1 1_555 1_555
C6 C7 1_555 1_555
C13 C14 1_555 1_555
O1 Rh1 1_555 1_555
O3 Rh2 1_555 1_555
O4 Rh1 1_555 1_555
Rh1 Rh2 1_555 1_555
C1A O1A 1_555 1_555
C1A O2A 1_555 1_555
C6A C7A 1_555 1_555
C8A O3A 1_555 1_555
C8A O4A 1_555 1_555
C13A C14A 1_555 1_555
C15A C16A 1_555 1_555

#END
