
#######################################################################
#
#                 Cambridge Crystallographic Data Centre
#                                CCDC 
#
#######################################################################
#
# If this CIF has been generated from an entry in the Cambridge 
# Structural Database, then it will include bibliographic, chemical, 
# crystal, experimental, refinement or atomic coordinate data resulting 
# from the CCDC's data processing and validation procedures.
#
#######################################################################

data_PURTAY
_chemical_formula_moiety         '(C3 H4 Cu2 N12 O1)n'
_chemical_name_systematic        
catena-(bis(\m~3~-Tetrazolato)-(\m~2~-hydroxo)-(\m~2~-tetrazolato)-di-copper(ii))
_symmetry_cell_setting           orthorhombic
_symmetry_space_group_name_H-M   'P n m a'
_symmetry_Int_Tables_number      62
_space_group_name_Hall           '-P 2ac 2n'
loop_
_symmetry_equiv_pos_site_id
_symmetry_equiv_pos_as_xyz
1 x,y,z
2 1/2-x,-y,1/2+z
3 1/2+x,1/2-y,1/2-z
4 -x,1/2+y,-z
5 -x,-y,-z
6 1/2+x,y,1/2-z
7 1/2-x,1/2+y,1/2+z
8 x,1/2-y,z
_cell_length_a                   9.55130(10)
_cell_length_b                   14.0864(2)
_cell_length_c                   7.55280(10)
_cell_angle_alpha                90
_cell_angle_beta                 90
_cell_angle_gamma                90
_cell_volume                     1016.18
_exptl_crystal_colour            'dark blue'
_exptl_crystal_description       block
_cell_formula_units_Z            4
loop_
_atom_site_label
_atom_site_type_symbol
_atom_site_fract_x
_atom_site_fract_y
_atom_site_fract_z
_atom_site_U_iso_or_equiv
_atom_site_thermal_displace_type
Cu1 Cu 0.39551(8) 0.12963(5) 0.49412(9) 0.0096 Uani
N1 N 0.3485(5) 0.0125(3) 0.6311(6) 0.0113 Uani
N2 N 0.5973(4) 0.0753(3) 0.3845(6) 0.0160 Uani
N3 N 0.6727(5) 0.1316(3) 0.2831(7) 0.0233 Uani
N4 N 0.2738(4) 0.0811(3) 0.2963(6) 0.0123 Uani
N5 N 0.4326(5) 0.2021(3) 0.7214(6) 0.0129 Uani
C1 C 0.4495(6) 0.1740(4) 0.8867(7) 0.0247 Uani
H1 H 0.4543 0.1110 0.9234 0.0370 Uiso
N6 N 0.4587(9) 0.2500 0.9940(9) 0.0253 Uani
O1 O 0.4112(5) 0.2500 0.3837(7) 0.0097 Uani
H2 H 0.4164 0.2500 0.2702 0.0110 Uiso
C2 C 0.2426(5) 0.0076(3) 0.7418(6) 0.0113 Uani
H3 H 0.1874 0.0587 0.7767 0.0140 Uiso
Cu1G Cu 0.39551(8) 0.37037(5) 0.49412(9) 0.0096 Uani
Cu1D Cu 0.60449(8) -0.12963(5) 0.50588(9) 0.0096 Uani
Cu1E Cu 0.89551(8) 0.12963(5) 0.00588(9) 0.0096 Uani
Cu1A Cu 0.10449(8) -0.12963(5) 0.99412(9) 0.0096 Uani
Cu1C Cu 0.60449(8) -0.37037(5) 0.50588(9) 0.0096 Uani
N1D N 0.6515(5) -0.0125(3) 0.3689(6) 0.0113 Uani
N2D N 0.4027(4) -0.0753(3) 0.6155(6) 0.0160 Uani
N3E N 0.1727(5) 0.1316(3) 0.2169(7) 0.0233 Uani
N3D N 0.3273(5) -0.1316(3) 0.7169(7) 0.0233 Uani
N4E N 0.7738(4) 0.0811(3) 0.2037(6) 0.0123 Uani
N4A N 0.2262(4) -0.0811(3) 0.7963(6) 0.0123 Uani
N4D N 0.7262(4) -0.0811(3) 0.7037(6) 0.0123 Uani
N5G N 0.4326(5) 0.2979(3) 0.7214(6) 0.0129 Uani
N5D N 0.5674(5) -0.2021(3) 0.2786(6) 0.0129 Uani
C1G C 0.4495(6) 0.3260(4) 0.8867(7) 0.0247 Uani
O1C O 0.5888(5) -0.2500 0.6163(7) 0.0097 Uani
H2C H 0.5836 -0.2500 0.7298 0.0110 Uiso
C2A C 0.2574(5) -0.0076(3) 0.2418(6) 0.0113 Uani
C2D C 0.7574(5) -0.0076(3) 0.2582(6) 0.0113 Uani
H3D H 0.8126 -0.0587 0.2233 0.0140 Uiso
N7? N 0.4495(6) 0.1740(4) 0.8867(7) 0.0247 Uani
loop_
_atom_site_aniso_label
_atom_site_aniso_U_11
_atom_site_aniso_U_22
_atom_site_aniso_U_33
_atom_site_aniso_U_23
_atom_site_aniso_U_13
_atom_site_aniso_U_12
Cu1 0.0115(5) 0.0079(5) 0.0093(5) 0.0007(3) -0.0001(3) -0.0008(3)
N1 0.0144 0.0082 0.0113 -0.0026 0.0028 0.0008
N2 0.012(2) 0.013(2) 0.023(3) 0.006(2) 0.0017(19) -0.0027(19)
N3 0.019(2) 0.023(3) 0.028(3) 0.006(2) 0.004(2) 0.000(2)
N4 0.013 0.011 0.013 -0.0001 -0.001 -0.0006
N5 0.020(2) 0.0096(19) 0.009(2) 0.0010(18) 0.0001(19) -0.0035(19)
C1 0.043(3) 0.020(3) 0.011(2) -0.001(2) -0.002(3) 0.003(3)
N6 0.034(5) 0.027(4) 0.015(4) 0.000 -0.001(3) 0.000
O1 0.014(3) 0.009(2) 0.006(2) 0.000 0.000(2) 0.000
C2 0.0144 0.0082 0.0113 -0.0026 0.0028 0.0008
Cu1G 0.0115 0.0079 0.0093 -0.0007 -0.0001 0.0008
Cu1D 0.0115 0.0079 0.0093 0.0007 -0.0001 -0.0008
Cu1E 0.0115 0.0079 0.0093 -0.0007 0.0001 -0.0008
Cu1A 0.0115 0.0079 0.0093 -0.0007 0.0001 -0.0008
Cu1C 0.0115 0.0079 0.0093 -0.0007 -0.0001 0.0008
N1D 0.0144(15) 0.0082(16) 0.0113(15) -0.0026(14) 0.0028(13) 0.0008(14)
N2D 0.012 0.013 0.023 0.006 0.0017 -0.0027
N3E 0.019 0.023 0.028 -0.006 -0.004 0
N3D 0.019 0.023 0.028 0.006 0.004 0
N4E 0.013(2) 0.011(2) 0.013(2) 0.0001(17) 0.0010(19) -0.0006(19)
N4A 0.013 0.011 0.013 0.0001 0.001 -0.0006
N4D 0.013 0.011 0.013 -0.0001 -0.001 -0.0006
N5G 0.02 0.0096 0.009 -0.001 0.0001 0.0035
N5D 0.02 0.0096 0.009 0.001 0.0001 -0.0035
C1G 0.043 0.02 0.011 0.001 -0.002 -0.003
O1C 0.014 0.009 0.006 0 0 0
C2A 0.0144 0.0082 0.0113 0.0026 -0.0028 0.0008
C2D 0.0144(15) 0.0082(16) 0.0113(15) -0.0026(14) 0.0028(13) 0.0008(14)
N7? 0.043(3) 0.020(3) 0.011(2) -0.001(2) -0.002(3) 0.003(3)
loop_
_geom_bond_atom_site_label_1
_geom_bond_atom_site_label_2
_geom_bond_site_symmetry_1
_geom_bond_site_symmetry_2
Cu1 N1 1_555 1_555
N1 C2 1_555 1_555
N2 Cu1 1_555 1_555
N3 N2 1_555 1_555
N4 Cu1 1_555 1_555
N5 Cu1 1_555 1_555
C1 N5 1_555 1_555
H1 C1 1_555 1_555
N6 C1 1_555 1_555
O1 Cu1 1_555 1_555
H2 O1 1_555 1_555
C2 H3 1_555 1_555
Cu1G O1 1_555 1_555
Cu1D N1D 1_555 1_555
Cu1E N4E 1_555 1_555
Cu1A N4A 1_555 1_555
Cu1C O1C 1_555 1_555
N1D N2 1_555 1_555
N2D N1 1_555 1_555
N3E N4 1_555 1_555
N3D N2D 1_555 1_555
N4E N3 1_555 1_555
N4A C2 1_555 1_555
N4D Cu1D 1_555 1_555
N5G N5 1_555 1_555
N5D Cu1D 1_555 1_555
C1G N6 1_555 1_555
O1C Cu1D 1_555 1_555
H2C O1C 1_555 1_555
C2A N4 1_555 1_555
C2D N1D 1_555 1_555
H3D C2D 1_555 1_555
Cu1G N5G 1_555 1_555
Cu1D N2D 1_555 1_555
N3D N4A 1_555 1_555
N4E C2D 1_555 1_555
N5G C1G 1_555 1_555

#END
