
#######################################################################
#
#                 Cambridge Crystallographic Data Centre
#                                CCDC 
#
#######################################################################
#
# If this CIF has been generated from an entry in the Cambridge 
# Structural Database, then it will include bibliographic, chemical, 
# crystal, experimental, refinement or atomic coordinate data resulting 
# from the CCDC's data processing and validation procedures.
#
#######################################################################

data_AHAPUV
_chemical_formula_moiety         '(C58 H30 N4 O12 Zn2)n,n(C3 H7 N1 O1)'
_chemical_name_systematic        
"catena-((\m~8~-4,4',4'',4'''-Benzene-1,2,4,5-tetrayltetrabenzoato)-(\m~2~-N,N'-bis(4-pyridyl)-1,4,5,8-naphthalenetetracarboxydi-imide)-di-zinc(ii) dimethylformamide solvate)"
_symmetry_cell_setting           orthorhombic
_symmetry_space_group_name_H-M   'I m m a'
_symmetry_Int_Tables_number      74
_space_group_name_Hall           '-I 2b 2'
loop_
_symmetry_equiv_pos_site_id
_symmetry_equiv_pos_as_xyz
1 x,y,z
2 -x,1/2-y,z
3 -x,1/2+y,-z
4 x,-y,-z
5 1/2+x,1/2+y,1/2+z
6 1/2-x,-y,1/2+z
7 1/2-x,y,1/2-z
8 1/2+x,1/2-y,1/2-z
9 -x,-y,-z
10 x,1/2+y,-z
11 x,1/2-y,z
12 -x,y,z
13 1/2-x,1/2-y,1/2-z
14 1/2+x,y,1/2-z
15 1/2+x,-y,1/2+z
16 1/2-x,1/2+y,1/2+z
_cell_length_a                   22.898(13)
_cell_length_b                   15.668(9)
_cell_length_c                   22.389(12)
_cell_angle_alpha                90
_cell_angle_beta                 90
_cell_angle_gamma                90
_cell_volume                     8032.41
_exptl_crystal_colour            yellow
_exptl_crystal_description       block
_cell_formula_units_Z            4
loop_
_atom_site_label
_atom_site_type_symbol
_atom_site_fract_x
_atom_site_fract_y
_atom_site_fract_z
C1 C -0.42364(19) -0.1314(3) -0.72594(19)
C2 C -0.38377(19) -0.0547(3) -0.72755(19)
C3 C -0.3531(2) -0.0364(3) -0.7786(2)
H1 H -0.3557 -0.0745 -0.8115
C4 C -0.3184(2) 0.0358(3) -0.7838(2)
H2 H -0.2978 0.0469 -0.8198
C5 C -0.31401(18) 0.0923(2) -0.7355(2)
C6 C -0.34591(19) 0.0742(3) -0.6839(2)
H3 H -0.3444 0.1128 -0.6513
C7 C -0.38005(18) 0.0007(3) -0.6794(2)
H4 H -0.4006 -0.0113 -0.6435
C8 C -0.27877(19) 0.1717(2) -0.7415(2)
C9 C -0.3073(3) 0.2500 -0.7326(3)
H5 H -0.3470 0.2500 -0.7203
C10 C -0.5475(4) -0.2500 0.0906(3)
H6 H -0.5839 -0.2500 0.1109
C11 C -0.5468(4) -0.2500 0.0280(3)
H7 H -0.5830 -0.2500 0.0072
C12 C -0.5000 -0.2500 -0.0020(4)
C13 C -0.5000 -0.3304(5) -0.0955(3)
C14 C -0.5000 -0.3252(5) -0.1611(3)
C15 C -0.5000 -0.4057(4) -0.1927(3)
H8 H -0.5000 -0.4582 -0.1716
C16 C -0.5000 -0.4045(5) -0.2555(3)
H9 H -0.5000 -0.4571 -0.2765
C17 C -0.5000 -0.2500 -0.2556(4)
C18 C -0.5000 -0.2500 -0.1921(4)
C19 C -0.5000 -0.3311(4) -0.2868(2)
C20 C -0.5000 -0.3303(4) -0.3522(3)
C21 C -0.5000 -0.2500 -0.4454(4)
C22 C -0.5458(4) -0.2879(5) -0.4749(3)
C23 C -0.5427(4) -0.2859(5) -0.5378(3)
N1 N -0.5000 -0.2500 0.1210(3)
N2 N -0.5000 -0.2500 -0.0677(3)
N3 N -0.5000 -0.2500 -0.3819(3)
N4 N -0.5000 -0.2500 -0.5682(3)
O1 O -0.4392(3) -0.1612(3) -0.77331(16)
O2 O -0.43839(13) -0.15821(17) -0.67517(12)
O3 O -0.5000 -0.3932(3) -0.0670(2)
O4 O -0.5000 -0.3959(3) -0.38204(17)
Zn1 Zn -0.5000 -0.2500 -0.65889(3)
Zn2 Zn -0.5000 -0.2500 0.21018(4)
C1J C -0.42364(19) 0.6314(3) -0.72594(19)
C1L C -0.07636(19) 0.6314(3) -0.77406(19)
C1F C -0.07636(19) -0.1314(3) -0.77406(19)
C2J C -0.38377(19) 0.5547(3) -0.72755(19)
C2L C -0.11623(19) 0.5547(3) -0.77245(19)
C2F C -0.11623(19) -0.0547(3) -0.77245(19)
C3J C -0.3531(2) 0.5364(3) -0.7786(2)
C3L C -0.1469(2) 0.5364(3) -0.7214(2)
C3F C -0.1469(2) -0.0364(3) -0.7214(2)
H1J H -0.3557 0.5745 -0.8115
H1L H -0.1443 0.5745 -0.6885
H1F H -0.1443 -0.0745 -0.6885
C4J C -0.3184(2) 0.4642(3) -0.7838(2)
C4L C -0.1816(2) 0.4642(3) -0.7162(2)
C4F C -0.1816(2) 0.0358(3) -0.7162(2)
H2J H -0.2978 0.4531 -0.8198
H2L H -0.2022 0.4531 -0.6802
H2F H -0.2022 0.0469 -0.6802
C5J C -0.31401(18) 0.4077(2) -0.7355(2)
C5L C -0.18599(18) 0.4077(2) -0.7645(2)
C5F C -0.18599(18) 0.0923(2) -0.7645(2)
C6J C -0.34591(19) 0.4258(3) -0.6839(2)
C6L C -0.15409(19) 0.4258(3) -0.8161(2)
C6F C -0.15409(19) 0.0742(3) -0.8161(2)
H3J H -0.3444 0.3872 -0.6513
H3L H -0.1556 0.3872 -0.8487
H3F H -0.1556 0.1128 -0.8487
C7J C -0.38005(18) 0.4993(3) -0.6794(2)
C7L C -0.11995(18) 0.4993(3) -0.8206(2)
C7F C -0.11995(18) 0.0007(3) -0.8206(2)
H4J H -0.4006 0.5113 -0.6435
H4L H -0.0994 0.5113 -0.8565
H4F H -0.0994 -0.0113 -0.8565
C8J C -0.27877(19) 0.3283(2) -0.7415(2)
C8L C -0.22123(19) 0.3283(2) -0.7585(2)
C8F C -0.22123(19) 0.1717(2) -0.7585(2)
C9F C -0.1927(3) 0.2500 -0.7674(3)
H5F H -0.1530 0.2500 -0.7797
C10A C -0.4525(4) -0.2500 0.0906(3)
H6A H -0.4161 -0.2500 0.1109
C11A C -0.4532(4) -0.2500 0.0280(3)
H7A H -0.4170 -0.2500 0.0072
C13A C -0.5000 -0.1696(5) -0.0955(3)
C14A C -0.5000 -0.1748(5) -0.1611(3)
C15A C -0.5000 -0.0943(4) -0.1927(3)
H8A H -0.5000 -0.0418 -0.1716
C16A C -0.5000 -0.0955(5) -0.2555(3)
H9A H -0.5000 -0.0429 -0.2765
C19A C -0.5000 -0.1689(4) -0.2868(2)
C20A C -0.5000 -0.1697(4) -0.3522(3)
C22J C -0.5458(4) -0.2121(5) -0.4749(3)
C22A C -0.4542(4) -0.2121(5) -0.4749(3)
C22K C -0.4542(4) -0.2879(5) -0.4749(3)
C23K C -0.4573(4) -0.2859(5) -0.5378(3)
C23J C -0.5427(4) -0.2141(5) -0.5378(3)
C23A C -0.4573(4) -0.2141(5) -0.5378(3)
O1J O -0.4392(3) 0.6612(3) -0.77331(16)
O1L O -0.0608(3) 0.6612(3) -0.72669(16)
O1F O -0.0608(3) -0.1612(3) -0.72669(16)
O1_2 O -0.4392(3) -0.1612(3) 0.22669(16)
O1A O -0.5608(3) -0.3388(3) 0.22669(16)
O1J_2 O -0.4392(3) -0.3388(3) 0.22669(16)
O1K O -0.5608(3) -0.1612(3) 0.22669(16)
O2J O -0.43839(13) 0.65821(17) -0.67517(12)
O2L O -0.06161(13) 0.65821(17) -0.82483(12)
O2F O -0.06161(13) -0.15821(17) -0.82483(12)
O2K O -0.56161(13) -0.15821(17) -0.67517(12)
O2J_2 O -0.43839(13) -0.34179(17) -0.67517(12)
O2A O -0.56161(13) -0.34179(17) -0.67517(12)
O3A O -0.5000 -0.1068(3) -0.0670(2)
O4A O -0.5000 -0.1041(3) -0.38204(17)
Zn1_2 Zn -0.5000 0.7500 -0.65889(3)
Zn1F Zn 0.0000 0.7500 -0.84111(3)
Zn1F_2 Zn 0.0000 -0.2500 -0.84111(3)
Zn2_2 Zn -0.5000 -0.2500 -0.78982(4)
Zn2_3 Zn -0.5000 0.7500 -0.78982(4)
Zn2F Zn 0.0000 0.7500 -0.71018(4)
Zn2F_2 Zn 0.0000 -0.2500 -0.71018(4)
loop_
_geom_bond_atom_site_label_1
_geom_bond_atom_site_label_2
_geom_bond_site_symmetry_1
_geom_bond_site_symmetry_2
C1 C2 1_555 1_555
C2 C3 1_555 1_555
C3 H1 1_555 1_555
C4 C3 1_555 1_555
H2 C4 1_555 1_555
C5 C4 1_555 1_555
C6 C5 1_555 1_555
H3 C6 1_555 1_555
C7 C2 1_555 1_555
H4 C7 1_555 1_555
C8 C5 1_555 1_555
C9 C8 1_555 1_555
H5 C9 1_555 1_555
C10 H6 1_555 1_555
C11 C10 1_555 1_555
H7 C11 1_555 1_555
C12 C11 1_555 1_555
C13 C14 1_555 1_555
C14 C15 1_555 1_555
C15 H8 1_555 1_555
C16 C15 1_555 1_555
H9 C16 1_555 1_555
C17 C18 1_555 1_555
C18 C14 1_555 1_555
C19 C16 1_555 1_555
C20 C19 1_555 1_555
C21 C22 1_555 1_555
C22 C23 1_555 1_555
C23 N4 1_555 1_555
N1 C10 1_555 1_555
N2 C12 1_555 1_555
N3 C20 1_555 1_555
N4 Zn1 1_555 1_555
O1 C1 1_555 1_555
O2 C1 1_555 1_555
O3 C13 1_555 1_555
O4 C20 1_555 1_555
Zn1 O2 1_555 1_555
Zn2 N1 1_555 1_555
C1J C2J 1_555 1_555
C1L C2L 1_555 1_555
C1F C2F 1_555 1_555
C2J C3J 1_555 1_555
C2L C3L 1_555 1_555
C2F C3F 1_555 1_555
C3J H1J 1_555 1_555
C3L H1L 1_555 1_555
C3F H1F 1_555 1_555
C4J C3J 1_555 1_555
C4L C3L 1_555 1_555
C4F C3F 1_555 1_555
H2J C4J 1_555 1_555
H2L C4L 1_555 1_555
H2F C4F 1_555 1_555
C5J C4J 1_555 1_555
C5L C4L 1_555 1_555
C5F C4F 1_555 1_555
C6J C5J 1_555 1_555
C6L C5L 1_555 1_555
C6F C5F 1_555 1_555
H3J C6J 1_555 1_555
H3L C6L 1_555 1_555
H3F C6F 1_555 1_555
C7J C2J 1_555 1_555
C7L C2L 1_555 1_555
C7F C2F 1_555 1_555
H4J C7J 1_555 1_555
H4L C7L 1_555 1_555
H4F C7F 1_555 1_555
C8J C9 1_555 1_555
C8L C5L 1_555 1_555
C8F C8 1_555 1_555
C9F C8L 1_555 1_555
H5F C9F 1_555 1_555
C10A N1 1_555 1_555
H6A C10A 1_555 1_555
C11A C12 1_555 1_555
H7A C11A 1_555 1_555
C13A N2 1_555 1_555
C14A C18 1_555 1_555
C15A C14A 1_555 1_555
H8A C15A 1_555 1_555
C16A C15A 1_555 1_555
H9A C16A 1_555 1_555
C19A C17 1_555 1_555
C20A N3 1_555 1_555
C22J C21 1_555 1_555
C22A C21 1_555 1_555
C22K C21 1_555 1_555
C23K N4 1_555 1_555
C23J C23 1_555 1_555
C23A N4 1_555 1_555
O1J C1J 1_555 1_555
O1L C1L 1_555 1_555
O1F C1F 1_555 1_555
O1_2 Zn2 1_555 1_555
O1A Zn2 1_555 1_555
O1J_2 Zn2 1_555 1_555
O1K Zn2 1_555 1_555
O2J C1J 1_555 1_555
O2L C1L 1_555 1_555
O2F C1F 1_555 1_555
O2K Zn1 1_555 1_555
O2J_2 Zn1 1_555 1_555
O2A Zn1 1_555 1_555
O3A C13A 1_555 1_555
O4A C20A 1_555 1_555
Zn1_2 O2J 1_555 1_555
Zn1F O2L 1_555 1_555
Zn1F_2 O2F 1_555 1_555
Zn2_2 O1 1_555 1_555
Zn2_3 O1J 1_555 1_555
Zn2F O1L 1_555 1_555
Zn2F_2 O1F 1_555 1_555
C6 C7 1_555 1_555
C13 N2 1_555 1_555
C17 C19 1_555 1_555
C21 N3 1_555 1_555
C22 C22J 1_555 1_555
N4 C23J 1_555 1_555
C5J C8J 1_555 1_555
C5F C8F 1_555 1_555
C6J C7J 1_555 1_555
C6L C7L 1_555 1_555
C6F C7F 1_555 1_555
C8J C8L 1_555 1_555
C8F C9F 1_555 1_555
C10A C11A 1_555 1_555
C13A C14A 1_555 1_555
C16A C19A 1_555 1_555
C19A C20A 1_555 1_555
C22J C23J 1_555 1_555
C22A C22K 1_555 1_555
C22A C23A 1_555 1_555
C22K C23K 1_555 1_555
C23K C23A 1_555 1_555

#END
