
#######################################################################
#
#                 Cambridge Crystallographic Data Centre
#                                CCDC 
#
#######################################################################
#
# If this CIF has been generated from an entry in the Cambridge 
# Structural Database, then it will include bibliographic, chemical, 
# crystal, experimental, refinement or atomic coordinate data resulting 
# from the CCDC's data processing and validation procedures.
#
#######################################################################

data_GEBCAT
_chemical_formula_moiety         '(C12 H14 Co3 K1 O16)n,0.9n(C1 O2)'
_chemical_name_systematic        
'catena-(bis(\m~8~-citrato)-diaqua-tri-cobalt-potassium carbon dioxide)'
_symmetry_cell_setting           tetragonal
_symmetry_space_group_name_H-M   'I -4 2 d'
_symmetry_Int_Tables_number      122
_space_group_name_Hall           'I -4 2bw'
loop_
_symmetry_equiv_pos_site_id
_symmetry_equiv_pos_as_xyz
1 x,y,z
2 y,-x,-z
3 -x,-y,z
4 -y,x,-z
5 1/2-x,y,3/4-z
6 y,1/2+x,1/4+z
7 1/2+x,-y,3/4-z
8 -y,1/2-x,1/4+z
9 1/2+x,1/2+y,1/2+z
10 1/2+y,1/2-x,1/2-z
11 1/2-x,1/2-y,1/2+z
12 1/2-y,1/2+x,1/2-z
13 -x,1/2+y,1/4-z
14 1/2+y,x,3/4+z
15 x,1/2-y,1/4-z
16 1/2-y,-x,3/4+z
_cell_length_a                   13.1927(30)
_cell_length_b                   13.1927(30)
_cell_length_c                   30.066(16)
_cell_angle_alpha                90
_cell_angle_beta                 90
_cell_angle_gamma                90
_cell_volume                     5232.91
_cell_formula_units_Z            8
loop_
_atom_site_label
_atom_site_type_symbol
_atom_site_fract_x
_atom_site_fract_y
_atom_site_fract_z
_atom_site_U_iso_or_equiv
_atom_site_thermal_displace_type
Co1 Co -0.10466 0.45052 0.29033 0.0168 Uiso
C1 C -0.31751 0.41711 0.26335 0.0204 Uiso
C2 C -0.26873 0.35614 0.22676 0.0213 Uiso
H1 H -0.323 0.3288 0.2079 0.0400 Uiso
H2 H -0.232 0.2977 0.2395 0.0400 Uiso
C3 C -0.19231 0.41968 0.19799 0.0176 Uiso
C4 C -0.16647 0.3501 0.1579 0.0208 Uiso
H3 H -0.1445 0.2828 0.1687 0.0400 Uiso
H4 H -0.2291 0.3399 0.1407 0.0400 Uiso
C5 C -0.08368 0.39241 0.12808 0.0186 Uiso
C6 C -0.24479 0.51904 0.18203 0.0232 Uiso
O1 O -0.26331 0.46093 0.29238 0.0213 Uiso
O2 O -0.4168 0.41947 0.2646 0.0313 Uiso
O3 O -0.31153 0.63118 0.08322 0.1208 Uiso
O4 O 0.00928 0.39037 0.14098 0.0208 Uiso
O5 O -0.11053 0.42896 0.09111 0.0232 Uiso
O6 O -0.19942 0.60537 0.18834 0.0242 Uiso
O7 O -0.33358 0.51122 0.16489 0.0418 Uiso
O8 O -0.09973 0.4452 0.22133 0.0185 Uiso
H5 H -0.35568 0.67401 0.09946 0.0400 Uiso
H6 H -0.36119 0.59034 0.07157 0.0400 Uiso
H7 H -0.35791 0.56091 0.15362 0.0400 Uiso
K1 K -0.16459 0.75000 0.125 0.0264 Uiso
Co2 Co -0.50000 0.50000 0.30787 0.0218 Uiso
Co1M Co -0.04948 0.89534 0.04033 0.0168 Uiso
Co1K Co 0.04948 0.39534 0.20967 0.0168 Uiso
Co1I Co -0.04948 0.60466 0.20967 0.0168 Uiso
Co1N Co -0.10466 1.04948 -0.04033 0.0168 Uiso
Co1L Co 0.10466 0.95052 -0.04033 0.0168 Uiso
C1M C -0.08289 0.68249 0.01335 0.0204 Uiso
C2M C -0.14386 0.73127 -0.02324 0.0213 Uiso
H1M H -0.1712 0.677 -0.0421 0.0400 Uiso
H2M H -0.2023 0.768 -0.0105 0.0400 Uiso
C3M C -0.08032 0.80769 -0.05201 0.0176 Uiso
C4M C -0.1499 0.83353 -0.0921 0.0208 Uiso
H3M H -0.2172 0.8555 -0.0813 0.0400 Uiso
H4M H -0.1601 0.7709 -0.1093 0.0400 Uiso
C5M C -0.10759 0.91632 -0.12192 0.0186 Uiso
C6M C 0.01904 0.75521 -0.06797 0.0232 Uiso
O1M O -0.03907 0.73669 0.04238 0.0213 Uiso
O1I O -0.03907 0.76331 0.20762 0.0213 Uiso
O2M O -0.08053 0.5832 0.0146 0.0313 Uiso
O2B O -0.5832 0.58053 0.2646 0.0313 Uiso
O3N O -0.31153 0.86882 0.16678 0.1208 Uiso
O4M O -0.10963 1.00928 -0.10902 0.0208 Uiso
O4I O -0.10963 0.49072 0.35902 0.0208 Uiso
O4B O -0.00928 0.60963 0.14098 0.0208 Uiso
O4L O -0.00928 0.89037 0.10902 0.0208 Uiso
O5M O -0.07104 0.88947 -0.15889 0.0232 Uiso
O5E O -0.57104 0.38947 0.34111 0.0232 Uiso
O5G O -0.42896 0.61053 0.34111 0.0232 Uiso
O6M O 0.10537 0.80058 -0.06166 0.0242 Uiso
O6K O -0.10537 0.30058 0.31166 0.0242 Uiso
O6N O -0.19942 0.89463 0.06166 0.0242 Uiso
O7M O 0.01122 0.66642 -0.08511 0.0418 Uiso
O8M O -0.0548 0.90027 -0.02867 0.0185 Uiso
O8K O 0.0548 0.40027 0.27867 0.0185 Uiso
O8I O -0.0548 0.59973 0.27867 0.0185 Uiso
O8N O -0.09973 1.0548 0.02867 0.0185 Uiso
O8L O 0.09973 0.9452 0.02867 0.0185 Uiso
H5N H -0.35568 0.82599 0.15054 0.0400 Uiso
H6N H -0.36119 0.90966 0.17843 0.0400 Uiso
H7M H 0.06091 0.64209 -0.09638 0.0400 Uiso
K1E K -0.25000 0.33541 0.375 0.0264 Uiso
K1B K 0.16459 0.25000 0.125 0.0264 Uiso
K1A K -0.25000 1.16459 -0.125 0.0264 Uiso
K1C K 0.25000 0.83541 -0.125 0.0264 Uiso
Co2M Co 0.00000 0.50000 0.05787 0.0218 Uiso
Co2H Co 0.00000 1.00000 -0.19213 0.0218 Uiso
C7 C 0.54288 0.3621 0.06351 0.4467 Uiso
O9 O 0.58078 0.42513 0.08404 0.4467 Uiso
O10 O 0.50499 0.29907 0.04298 0.4467 Uiso
loop_
_geom_bond_atom_site_label_1
_geom_bond_atom_site_label_2
_geom_bond_site_symmetry_1
_geom_bond_site_symmetry_2
Co1 O1 1_555 1_555
C1 C2 1_555 1_555
C2 H1 1_555 1_555
H2 C2 1_555 1_555
C3 C2 1_555 1_555
C4 C3 1_555 1_555
H3 C4 1_555 1_555
H4 C4 1_555 1_555
C5 C4 1_555 1_555
C6 C3 1_555 1_555
O1 C1 1_555 1_555
O2 C1 1_555 1_555
O3 H5 1_555 1_555
O4 C5 1_555 1_555
O5 C5 1_555 1_555
O6 C6 1_555 1_555
O7 C6 1_555 1_555
O8 Co1 1_555 1_555
H6 O3 1_555 1_555
H7 O7 1_555 1_555
K1 O3 1_555 1_555
Co2 O2 1_555 1_555
C7 O9 1_555 1_555
O10 C7 1_555 1_555
Co1M O1M 1_555 1_555
Co1K O4 1_555 1_555
Co1I O6 1_555 1_555
Co1N O4M 1_555 1_555
Co1L O6M 1_555 1_555
C1M C2M 1_555 1_555
C2M H1M 1_555 1_555
H2M C2M 1_555 1_555
C3M C2M 1_555 1_555
C4M C3M 1_555 1_555
H3M C4M 1_555 1_555
H4M C4M 1_555 1_555
C5M C4M 1_555 1_555
C6M C3M 1_555 1_555
O1M K1 1_555 1_555
O1I K1 1_555 1_555
O2M C1M 1_555 1_555
O2B Co2 1_555 1_555
O3N K1 1_555 1_555
O4M C5M 1_555 1_555
O4I Co1 1_555 1_555
O4B K1 1_555 1_555
O4L K1 1_555 1_555
O5M C5M 1_555 1_555
O5E Co2 1_555 1_555
O5G Co2 1_555 1_555
O6M C6M 1_555 1_555
O6K Co1 1_555 1_555
O6N K1 1_555 1_555
O7M C6M 1_555 1_555
O8M Co1M 1_555 1_555
O8K Co1 1_555 1_555
O8I Co1 1_555 1_555
O8N Co1M 1_555 1_555
O8L Co1M 1_555 1_555
H5N O3N 1_555 1_555
H6N O3N 1_555 1_555
H7M O7M 1_555 1_555
K1E O1 1_555 1_555
K1B O4 1_555 1_555
K1A O4M 1_555 1_555
K1C O6M 1_555 1_555
Co2M O5 1_555 1_555
Co2H O5M 1_555 1_555
C3 O8 1_555 1_555
O6 K1 1_555 1_555
O8 Co1K 1_555 1_555
O8 Co1I 1_555 1_555
Co1M O4L 1_555 1_555
Co1M O6N 1_555 1_555
Co1K O8K 1_555 1_555
Co1I O1I 1_555 1_555
Co1I O4B 1_555 1_555
Co1I O8I 1_555 1_555
Co1N O8M 1_555 1_555
Co1N O8N 1_555 1_555
Co1L O8M 1_555 1_555
Co1L O8L 1_555 1_555
C1M O1M 1_555 1_555
C3M O8M 1_555 1_555
O2M Co2M 1_555 1_555
O4I K1E 1_555 1_555
O6K K1E 1_555 1_555

#END
