
#######################################################################
#
#                 Cambridge Crystallographic Data Centre
#                                CCDC 
#
#######################################################################
#
# If this CIF has been generated from an entry in the Cambridge 
# Structural Database, then it will include bibliographic, chemical, 
# crystal, experimental, refinement or atomic coordinate data resulting 
# from the CCDC's data processing and validation procedures.
#
#######################################################################

data_IYIHUU
_chemical_formula_moiety         '(C50 H26 Br2 N2 O8 Zn2)n,6n(C3 H7 N1 O1)'
_chemical_name_systematic        
"catena-((\m~8~-1,2,4,5-tetrakis(4-carboxylatophenyl)-3,6-dibromobenzene)-(\m~2~-4,4'-ethene-1,2-diylbis(3-ethynylpyridine))-di-zinc N,N-dimethylformamide solvate)"
_symmetry_cell_setting           monoclinic
_symmetry_space_group_name_H-M   'P 2/m'
_symmetry_Int_Tables_number      10
_space_group_name_Hall           '-P 2y'
loop_
_symmetry_equiv_pos_site_id
_symmetry_equiv_pos_as_xyz
1 x,y,z
2 -x,y,-z
3 -x,-y,-z
4 x,-y,z
_cell_length_a                   11.106(2)
_cell_length_b                   15.916(2)
_cell_length_c                   16.224(3)
_cell_angle_alpha                90
_cell_angle_beta                 101.594(15)
_cell_angle_gamma                90
_cell_volume                     2809.29
_exptl_crystal_colour            yellow
_exptl_crystal_description       plate
_cell_formula_units_Z            1
loop_
_atom_site_label
_atom_site_type_symbol
_atom_site_fract_x
_atom_site_fract_y
_atom_site_fract_z
Br1 Br 0.79289(12) 0.0000 0.49640(12)
Zn1 Zn 0.97304(11) 0.5000 0.40740(8)
O1 O 0.8523(5) 0.4096(3) 0.4261(4)
O2 O 0.8931(5) 0.4102(3) 0.5649(4)
N1 N 0.9478(16) 0.5000 0.2879(7)
C1 C 0.8448(7) 0.3833(4) 0.4957(5)
C2 C 0.7606(6) 0.3055(4) 0.4961(5)
C3 C 0.7091(8) 0.2671(5) 0.4222(5)
H1 H 0.7207 0.2902 0.3703
C4 C 0.6406(9) 0.1951(5) 0.4224(6)
H2 H 0.5998 0.1708 0.3708
C5 C 0.6312(6) 0.1581(3) 0.4986(5)
C6 C 0.6840(8) 0.1977(4) 0.5721(5)
H3 H 0.6739 0.1742 0.6241
C7 C 0.7498(8) 0.2687(5) 0.5726(5)
H4 H 0.7886 0.2936 0.6244
C8 C 0.5599(6) 0.0775(4) 0.4969(5)
C9 C 0.6219(10) 0.0000 0.4968(8)
C10 C 1.055(3) 0.5000 0.2523(11)
H5 H 1.1321 0.5000 0.2899
C11 C 1.054(2) 0.5000 0.1644(10)
H6 H 1.1311 0.5000 0.1469
C12 C 0.9474(19) 0.5000 0.1034(10)
C13 C 0.841(2) 0.5000 0.1370(9)
C14 C 0.846(3) 0.5000 0.2246(9)
H7 H 0.7688 0.5000 0.2418
C15 C 0.933(3) 0.5000 0.0156(11)
H8 H 0.8556 0.5000 -0.0219
C16 C 0.726(3) 0.5000 0.083(3)
C17 C 0.620(4) 0.5000 0.046(6)
Br1A Br 0.20711(12) 0.0000 0.50360(12)
Zn1A Zn 0.02696(11) 0.5000 0.59260(8)
Zn1A_2 Zn 1.02696(11) 0.5000 0.59260(8)
Zn1_2 Zn -0.02696(11) 0.5000 0.40740(8)
Zn1A_3 Zn 0.02696(11) -0.5000 0.59260(8)
Zn1_3 Zn -0.02696(11) -0.5000 0.40740(8)
Zn1_4 Zn 0.97304(11) -0.5000 0.40740(8)
Zn1A_4 Zn 1.02696(11) -0.5000 0.59260(8)
Zn1A_5 Zn 1.02696(11) 0.5000 -0.40740(8)
O1A O 0.1477(5) 0.4096(3) 0.5739(4)
O1B O 0.1477(5) -0.4096(3) 0.5739(4)
O1C O 0.8523(5) -0.4096(3) 0.4261(4)
O1C_2 O 0.8523(5) 0.5904(3) 0.4261(4)
O1B_2 O 0.1477(5) 0.5904(3) 0.5739(4)
O2A O 0.1069(5) 0.4102(3) 0.4351(4)
O2B O 0.1069(5) -0.4102(3) 0.4351(4)
O2C O 0.8931(5) -0.4102(3) 0.5649(4)
O2A_2 O 1.1069(5) 0.4102(3) 0.4351(4)
O2B_2 O 1.1069(5) 0.5898(3) 0.4351(4)
O2_2 O -0.1069(5) 0.4102(3) 0.5649(4)
O2C_2 O -0.1069(5) 0.5898(3) 0.5649(4)
N1A N 1.0522(16) 0.5000 -0.2879(7)
N1A_2 N 0.0522(16) 0.5000 0.7121(7)
C1A C 0.1552(7) 0.3833(4) 0.5043(5)
C1B C 0.1552(7) -0.3833(4) 0.5043(5)
C1C C 0.8448(7) -0.3833(4) 0.4957(5)
C2A C 0.2394(6) 0.3055(4) 0.5039(5)
C2B C 0.2394(6) -0.3055(4) 0.5039(5)
C2C C 0.7606(6) -0.3055(4) 0.4961(5)
C3A C 0.2909(8) 0.2671(5) 0.5778(5)
C3B C 0.2909(8) -0.2671(5) 0.5778(5)
C3C C 0.7091(8) -0.2671(5) 0.4222(5)
H1A H 0.2793 0.2902 0.6297
H1B H 0.2793 -0.2902 0.6297
H1C H 0.7207 -0.2902 0.3703
C4A C 0.3594(9) 0.1951(5) 0.5776(6)
C4B C 0.3594(9) -0.1951(5) 0.5776(6)
C4C C 0.6406(9) -0.1951(5) 0.4224(6)
H2A H 0.4002 0.1708 0.6292
H2B H 0.4002 -0.1708 0.6292
H2C H 0.5998 -0.1708 0.3708
C5A C 0.3688(6) 0.1581(3) 0.5014(5)
C5B C 0.3688(6) -0.1581(3) 0.5014(5)
C5C C 0.6312(6) -0.1581(3) 0.4986(5)
C6A C 0.3160(8) 0.1977(4) 0.4279(5)
C6B C 0.3160(8) -0.1977(4) 0.4279(5)
C6C C 0.6840(8) -0.1977(4) 0.5721(5)
H3A H 0.3261 0.1742 0.3759
H3B H 0.3261 -0.1742 0.3759
H3C H 0.6739 -0.1742 0.6241
C7A C 0.2502(8) 0.2687(5) 0.4274(5)
C7B C 0.2502(8) -0.2687(5) 0.4274(5)
C7C C 0.7498(8) -0.2687(5) 0.5726(5)
H4A H 0.2114 0.2936 0.3756
H4B H 0.2114 -0.2936 0.3756
H4C H 0.7886 -0.2936 0.6244
C8A C 0.4401(6) 0.0775(4) 0.5031(5)
C8B C 0.4401(6) -0.0775(4) 0.5031(5)
C8C C 0.5599(6) -0.0775(4) 0.4969(5)
C9A C 0.3781(10) 0.0000 0.5032(8)
C10A C 0.945(3) 0.5000 -0.2523(11)
H5A H 0.8679 0.5000 -0.2899
C11A C 0.946(2) 0.5000 -0.1644(10)
H6A H 0.8689 0.5000 -0.1469
C12A C 1.0526(19) 0.5000 -0.1034(10)
C13A C 1.159(2) 0.5000 -0.1370(9)
C14A C 1.154(3) 0.5000 -0.2246(9)
H7A H 1.2312 0.5000 -0.2418
C15A C 1.067(3) 0.5000 -0.0156(11)
H8A H 1.1444 0.5000 0.0219
C16A C 1.274(3) 0.5000 -0.083(3)
C17A C 1.380(4) 0.5000 -0.046(6)
loop_
_geom_bond_atom_site_label_1
_geom_bond_atom_site_label_2
_geom_bond_site_symmetry_1
_geom_bond_site_symmetry_2
Br1 C9 1_555 1_555
Zn1 O1 1_555 1_555
O1 C1 1_555 1_555
O2 C1 1_555 1_555
N1 Zn1 1_555 1_555
C1 C2 1_555 1_555
C2 C3 1_555 1_555
C3 H1 1_555 1_555
C4 C3 1_555 1_555
H2 C4 1_555 1_555
C5 C4 1_555 1_555
C6 C5 1_555 1_555
H3 C6 1_555 1_555
C7 C2 1_555 1_555
H4 C7 1_555 1_555
C8 C5 1_555 1_555
C9 C8 1_555 1_555
C10 N1 1_555 1_555
H5 C10 1_555 1_555
C11 C10 1_555 1_555
H6 C11 1_555 1_555
C12 C11 1_555 1_555
C13 C12 1_555 1_555
C14 N1 1_555 1_555
H7 C14 1_555 1_555
C15 C12 1_555 1_555
H8 C15 1_555 1_555
C16 C13 1_555 1_555
C17 C16 1_555 1_555
Br1A C9A 1_555 1_555
Zn1A O1A 1_555 1_555
Zn1A_2 O2 1_555 1_555
Zn1_2 O2A 1_555 1_555
Zn1A_3 O1B 1_555 1_555
Zn1_3 O2B 1_555 1_555
Zn1_4 O1C 1_555 1_555
Zn1A_4 O2C 1_555 1_555
Zn1A_5 N1A 1_555 1_555
O1A C1A 1_555 1_555
O1B C1B 1_555 1_555
O1C C1C 1_555 1_555
O1C_2 Zn1 1_555 1_555
O1B_2 Zn1A 1_555 1_555
O2A C1A 1_555 1_555
O2B C1B 1_555 1_555
O2C C1C 1_555 1_555
O2A_2 Zn1 1_555 1_555
O2B_2 Zn1 1_555 1_555
O2_2 Zn1A 1_555 1_555
O2C_2 Zn1A 1_555 1_555
N1A C10A 1_555 1_555
N1A_2 Zn1A 1_555 1_555
C1A C2A 1_555 1_555
C1B C2B 1_555 1_555
C1C C2C 1_555 1_555
C2A C3A 1_555 1_555
C2B C3B 1_555 1_555
C2C C3C 1_555 1_555
C3A H1A 1_555 1_555
C3B H1B 1_555 1_555
C3C H1C 1_555 1_555
C4A C3A 1_555 1_555
C4B C3B 1_555 1_555
C4C C3C 1_555 1_555
H2A C4A 1_555 1_555
H2B C4B 1_555 1_555
H2C C4C 1_555 1_555
C5A C4A 1_555 1_555
C5B C4B 1_555 1_555
C5C C4C 1_555 1_555
C6A C5A 1_555 1_555
C6B C5B 1_555 1_555
C6C C5C 1_555 1_555
H3A C6A 1_555 1_555
H3B C6B 1_555 1_555
H3C C6C 1_555 1_555
C7A C2A 1_555 1_555
C7B C2B 1_555 1_555
C7C C2C 1_555 1_555
H4A C7A 1_555 1_555
H4B C7B 1_555 1_555
H4C C7C 1_555 1_555
C8A C8 1_555 1_555
C8B C5B 1_555 1_555
C8C C9 1_555 1_555
C9A C8A 1_555 1_555
C10A H5A 1_555 1_555
C11A C10A 1_555 1_555
H6A C11A 1_555 1_555
C12A C11A 1_555 1_555
C13A C12A 1_555 1_555
C14A N1A 1_555 1_555
H7A C14A 1_555 1_555
C15A C15 1_555 1_555
H8A C15A 1_555 1_555
C16A C13A 1_555 1_555
C17A C16A 1_555 1_555
C6 C7 1_555 1_555
C13 C14 1_555 1_555
C5A C8A 1_555 1_555
C5C C8C 1_555 1_555
C6A C7A 1_555 1_555
C6B C7B 1_555 1_555
C6C C7C 1_555 1_555
C8B C8C 1_555 1_555
C8B C9A 1_555 1_555
C12A C15A 1_555 1_555
C13A C14A 1_555 1_555

#END
