
#######################################################################
#
#                 Cambridge Crystallographic Data Centre
#                                CCDC 
#
#######################################################################
#
# If this CIF has been generated from an entry in the Cambridge 
# Structural Database, then it will include bibliographic, chemical, 
# crystal, experimental, refinement or atomic coordinate data resulting 
# from the CCDC's data processing and validation procedures.
#
#######################################################################

data_VOBTEN
_chemical_formula_moiety         '(C19 H15 Cu1 N1 O5)n'
_chemical_name_systematic        
catena-[(\m-3,3'-ethyne-1,2-diyldibenzoato)-(N,N-dimethylformamide)-copper]
_symmetry_cell_setting           monoclinic
_symmetry_space_group_name_H-M   'C 2'
_symmetry_Int_Tables_number      5
_space_group_name_Hall           'C 2y'
loop_
_symmetry_equiv_pos_site_id
_symmetry_equiv_pos_as_xyz
1 x,y,z
2 -x,y,-z
3 1/2+x,1/2+y,z
4 1/2-x,1/2+y,-z
_cell_length_a                   10.163(2)
_cell_length_b                   18.655(4)
_cell_length_c                   11.349(2)
_cell_angle_alpha                90
_cell_angle_beta                 94.25(3)
_cell_angle_gamma                90
_cell_volume                     2145.75
_exptl_crystal_colour            green
_exptl_crystal_description       block
_cell_formula_units_Z            4
loop_
_atom_site_label
_atom_site_type_symbol
_atom_site_fract_x
_atom_site_fract_y
_atom_site_fract_z
Cu1 Cu 0.42547(8) 0.4815(3) 0.09030(7)
O1 O 0.1795(12) 0.9070(7) -1.0047(13)
O2 O 0.3234(14) 0.5542(7) 0.0011(13)
O3 O 0.0496(13) 0.9080(7) -0.8499(13)
O4 O 0.4504(14) 0.5554(8) -0.1512(14)
C1 C 0.1531(16) 0.8816(9) -0.9022(15)
C2 C 0.213(2) 0.8093(12) -0.7308(19)
C3 C 0.3611(17) 0.5721(10) -0.094(2)
C4 C 0.2325(16) 0.8281(9) -0.8463(14)
C5 C 0.297(2) 0.6496(13) -0.280(2)
C6 C 0.167(3) 0.6614(15) -0.108(2)
C7 C 0.263(2) 0.7342(15) -0.446(2)
C8 C 0.211(3) 0.7196(16) -0.310(3)
C9 C 0.276(2) 0.7573(12) -0.666(2)
C10 C 0.141(3) 0.7593(17) -0.230(3)
C11 C 0.278(2) 0.6337(15) -0.163(3)
C12 C 0.264(3) 0.7583(19) -0.511(4)
C13 C 0.115(5) 0.738(3) -0.121(4)
O5 O 0.3121(9) 0.4809(13) 0.2425(6)
C14 C 0.415(3) 0.7469(18) -0.694(3)
C15 C 0.441(3) 0.7702(17) -0.811(3)
C16 C 0.319(2) 0.7904(14) -0.916(2)
N1 N 0.074(5) 0.492(3) 0.276(4)
C17 C -0.045(5) 0.458(3) 0.261(4)
C18 C 0.066(5) 0.558(3) 0.327(5)
C19 C 0.188(3) 0.466(4) 0.235(4)
Cu1A Cu 0.57453(8) 0.4815(3) -0.09030(7)
Cu1B Cu -0.07453(8) 0.9815(3) -0.90970(7)
Cu1C Cu 0.07453(8) 0.9815(3) -1.09030(7)
O1C O 0.3205(12) 0.4070(7) 0.0047(13)
O3B O 0.5496(13) 0.4080(7) 0.1501(13)
O4A O 0.5496(14) 0.5554(8) 0.1512(14)
N2? N 0.406(3) 0.496(3) 0.457(3)
C20? C 0.290(6) 0.502(9) 0.507(9)
C21? C 0.401(3) 0.485(8) 0.337(3)
C22? C 0.474(4) 0.451(2) 0.534(4)
C23? C 0.225(2) 0.7130(17) -0.461(2)
C24? C 0.108(3) 0.7355(18) -0.272(3)
C25? C 0.271(2) 0.7212(14) -0.576(2)
C26? C 0.087(3) 0.7166(18) -0.156(3)
C27? C 0.349(3) 0.706(2) -0.732(3)
C28? C 0.360(3) 0.7196(16) -0.855(2)
C29? C 0.212(6) 0.691(3) -0.348(6)
loop_
_geom_bond_atom_site_label_1
_geom_bond_atom_site_label_2
_geom_bond_site_symmetry_1
_geom_bond_site_symmetry_2
Cu1 O2 1_555 1_555
O1 C1 1_555 1_555
O2 C3 1_555 1_555
O3 C1 1_555 1_555
O4 C3 1_555 1_555
C1 C4 1_555 1_555
C2 C4 1_555 1_555
C3 C11 1_555 1_555
C4 C16 1_555 1_555
C5 C8 1_555 1_555
C6 C11 1_555 1_555
C7 C8 1_555 1_555
C8 C10 1_555 1_555
C9 C2 1_555 1_555
C10 C13 1_555 1_555
C11 C5 1_555 1_555
C12 C7 1_555 1_555
C13 C6 1_555 1_555
O5 Cu1 1_555 1_555
C14 C9 1_555 1_555
C15 C14 1_555 1_555
C16 C15 1_555 1_555
N1 C17 1_555 1_555
C18 N1 1_555 1_555
C19 O5 1_555 1_555
Cu1A O4 1_555 1_555
Cu1B O3 1_555 1_555
Cu1C O1 1_555 1_555
O1C Cu1 1_555 1_555
O3B Cu1 1_555 1_555
O4A Cu1 1_555 1_555
C9 C12 1_555 1_555
N1 C19 1_555 1_555

#END
