
#######################################################################
#
#                 Cambridge Crystallographic Data Centre
#                                CCDC 
#
#######################################################################
#
# If this CIF has been generated from an entry in the Cambridge 
# Structural Database, then it will include bibliographic, chemical, 
# crystal, experimental, refinement or atomic coordinate data resulting 
# from the CCDC's data processing and validation procedures.
#
#######################################################################

data_MUKRAN
_chemical_formula_moiety         
'(C24 H18 Cu2 O12)n,x(C2 H3 N1),x(C3 H7 N1 O1),x(H2 O1)'
_chemical_name_systematic        
"catena-[(\m-2',5'-dimethoxy-1,1':4',1''-terphenyl-3,3'',5,5''-tetracarboxylato)-diaqua-di-copper acetonitrile N,N-dimethylformamide solvate hydrate]"
_symmetry_cell_setting           rhombohedral
_symmetry_space_group_name_H-M   'R -3 m'
_symmetry_Int_Tables_number      166
_space_group_name_Hall           '-R 3 2"'
loop_
_symmetry_equiv_pos_site_id
_symmetry_equiv_pos_as_xyz
1 x,y,z
2 -y,x-y,z
3 -x+y,-x,z
4 y,x,-z
5 -x,-x+y,-z
6 x-y,-y,-z
7 2/3+x,1/3+y,1/3+z
8 2/3-y,1/3+x-y,1/3+z
9 2/3-x+y,1/3-x,1/3+z
10 2/3+y,1/3+x,1/3-z
11 2/3-x,1/3-x+y,1/3-z
12 2/3+x-y,1/3-y,1/3-z
13 1/3+x,2/3+y,2/3+z
14 1/3-y,2/3+x-y,2/3+z
15 1/3-x+y,2/3-x,2/3+z
16 1/3+y,2/3+x,2/3-z
17 1/3-x,2/3-x+y,2/3-z
18 1/3+x-y,2/3-y,2/3-z
19 -x,-y,-z
20 y,-x+y,-z
21 x-y,x,-z
22 -y,-x,z
23 x,x-y,z
24 -x+y,y,z
25 1/3-x,2/3-y,2/3-z
26 1/3+y,2/3-x+y,2/3-z
27 1/3+x-y,2/3+x,2/3-z
28 1/3-y,2/3-x,2/3+z
29 1/3+x,2/3+x-y,2/3+z
30 1/3-x+y,2/3+y,2/3+z
31 2/3-x,1/3-y,1/3-z
32 2/3+y,1/3-x+y,1/3-z
33 2/3+x-y,1/3+x,1/3-z
34 2/3-y,1/3-x,1/3+z
35 2/3+x,1/3+x-y,1/3+z
36 2/3-x+y,1/3+y,1/3+z
_cell_length_a                   18.5396(11)
_cell_length_b                   18.5396(11)
_cell_length_c                   38.826(4)
_cell_angle_alpha                90
_cell_angle_beta                 90
_cell_angle_gamma                120
_cell_volume                     11557.2
_exptl_crystal_colour            blue
_exptl_crystal_description       block
_cell_formula_units_Z            9
loop_
_atom_site_label
_atom_site_type_symbol
_atom_site_fract_x
_atom_site_fract_y
_atom_site_fract_z
_atom_site_U_iso_or_equiv
_atom_site_thermal_displace_type
Cu1 Cu 0.04785(4) 0.52393(2) 0.02758(2) 0.0397 Uani
O1 O 0.10961(17) 0.4808(2) 0.00283(7) 0.0580 Uani
O2 O 0.02923(18) 0.4407(2) -0.04461(7) 0.0610 Uani
O3 O 0.1254(3) 0.56271(17) 0.07315(14) 0.1023 Uani
O4 O 0.2915(7) 0.4231(7) -0.2148(2) 0.1464 Uani
C1 C 0.0916(2) 0.4527(3) -0.02729(10) 0.0500 Uani
C2 C 0.1506(3) 0.4304(3) -0.04478(10) 0.0520 Uani
C3 C 0.2225(2) 0.4451(4) -0.02795(15) 0.0533 Uani
H1 H 0.2324 0.4648 -0.0054 0.0640 Uiso
C4 C 0.1359(3) 0.4002(3) -0.07773(11) 0.0636 Uani
H2 H 0.0868 0.3892 -0.0887 0.0770 Uiso
C5 C 0.2279(8) 0.3748(10) -0.1904(3) 0.1004 Uani
C6 C 0.1928(2) 0.3856(5) -0.09516(17) 0.0650 Uani
C7 C 0.1794(3) 0.3589(5) -0.13231(18) 0.0721 Uani
C8 C 0.2427(6) 0.4021(8) -0.1556(2) 0.0770 Uani
C9 C 0.3686(15) 0.4751(16) -0.2037(7) 0.3100 Uani
H3 H 0.4040 0.5028 -0.2230 0.4650 Uiso
H4 H 0.3678 0.5156 -0.1886 0.4650 Uiso
H5 H 0.3894 0.4442 -0.1915 0.4650 Uiso
O1Q O -0.03786(26) 0.1859(2) -0.33616(7) 0.0580 Uani
O2Q O -0.07814(27) 0.2260(2) -0.28872(7) 0.0610 Uani
O4Q O 0.2017(10) 0.2436(7) -0.1185(2) 0.1464 Uani
C1Q C -0.0278(4) 0.2140(3) -0.30604(10) 0.0500 Uani
C2Q C 0.0535(4) 0.2363(3) -0.28855(10) 0.0520 Uani
C3Q C 0.1107(4) 0.2216(4) -0.30538(15) 0.0533 Uani
H1Q H 0.1009 0.2019 -0.3279 0.0640 Uiso
C4Q C 0.0690(4) 0.2665(3) -0.25560(11) 0.0636 Uani
H2Q H 0.0309 0.2775 -0.2446 0.0770 Uiso
C5Q C 0.1864(13) 0.2919(10) -0.1429(3) 0.1004 Uani
C6Q C 0.1405(5) 0.2811(5) -0.23817(17) 0.0650 Uani
C7Q C 0.1538(6) 0.3078(5) -0.20102(18) 0.0721 Uani
C8Q C 0.1739(10) 0.2646(8) -0.1777(2) 0.0770 Uani
C9Q C 0.2268(22) 0.1916(16) -0.1296(7) 0.3100 Uani
H3Q H 0.2345 0.1639 -0.1103 0.4650 Uiso
H4Q H 0.1855 0.1511 -0.1447 0.4650 Uiso
H5Q H 0.2785 0.2225 -0.1418 0.4650 Uiso
O1W O 0.37119(26) 0.4808(2) 0.00283(7) 0.0580 Uani
O2W O 0.41147(27) 0.4407(2) -0.04461(7) 0.0610 Uani
O4W O 0.1316(10) 0.4231(7) -0.2148(2) 0.1464 Uani
C1W C 0.3611(4) 0.4527(3) -0.02729(10) 0.0500 Uani
C2W C 0.2798(4) 0.4304(3) -0.04478(10) 0.0520 Uani
C4W C 0.2643(4) 0.4002(3) -0.07773(11) 0.0636 Uani
H2W H 0.3024 0.3892 -0.0887 0.0770 Uiso
C5W C 0.1469(13) 0.3748(10) -0.1904(3) 0.1004 Uani
C8W C 0.1594(10) 0.4021(8) -0.1556(2) 0.0770 Uani
C9W C 0.1065(22) 0.4751(16) -0.2037(7) 0.3100 Uani
H3W H 0.0988 0.5028 -0.2230 0.4650 Uiso
H4W H 0.1478 0.5156 -0.1886 0.4650 Uiso
H5W H 0.0548 0.4442 -0.1915 0.4650 Uiso
O1X O 0.22372(17) 0.1859(2) -0.33616(7) 0.0580 Uani
O2X O 0.30410(18) 0.2260(2) -0.28872(7) 0.0610 Uani
O4X O 0.0418(7) 0.2436(7) -0.1185(2) 0.1464 Uani
C1X C 0.2417(2) 0.2140(3) -0.30604(10) 0.0500 Uani
C2X C 0.1827(3) 0.2363(3) -0.28855(10) 0.0520 Uani
C4X C 0.1974(3) 0.2665(3) -0.25560(11) 0.0636 Uani
H2X H 0.2465 0.2775 -0.2446 0.0770 Uiso
C5X C 0.1054(8) 0.2919(10) -0.1429(3) 0.1004 Uani
C8X C 0.0906(6) 0.2646(8) -0.1777(2) 0.0770 Uani
C9X C -0.0353(15) 0.1916(16) -0.1296(7) 0.3100 Uani
H3X H -0.0707 0.1639 -0.1103 0.4650 Uiso
H4X H -0.0345 0.1511 -0.1447 0.4650 Uiso
H5X H -0.0561 0.2225 -0.1418 0.4650 Uiso
Cu1A Cu 0.47607(2) 0.52392(4) 0.02758(2) 0.0397 Uani
O3A O 0.43729(17) 0.56269(34) 0.07315(14) 0.1023 Uani
Cu1D Cu -0.04785(4) 0.47608(4) -0.02758(2) 0.0397 Uani
Cu1E Cu 0.52392(4) 0.47607(2) -0.02758(2) 0.0397 Uani
Cu1L Cu 0.38118(4) 0.19060(2) -0.30575(2) 0.0397 Uani
Cu1M Cu -0.19060(2) 0.19059(4) -0.30575(2) 0.0397 Uani
Cu1P Cu 0.28548(4) 0.14275(4) -0.36091(2) 0.0397 Uani
Cu1Q Cu -0.14275(4) 0.14274(2) -0.36091(2) 0.0397 Uani
O1A O 0.5192(2) 0.62881(26) 0.00283(7) 0.0580 Uani
O1V O 0.10961(17) 0.62881(26) 0.00283(7) 0.0580 Uani
O2D O -0.02923(18) 0.41147(27) 0.04461(7) 0.0610 Uani
O2E O 0.58853(27) 0.5593(2) 0.04461(7) 0.0610 Uani
O2R O -0.02923(18) 0.5593(2) 0.04461(7) 0.0610 Uani
O2S O 0.4407(2) 0.41147(27) 0.04461(7) 0.0610 Uani
loop_
_atom_site_aniso_label
_atom_site_aniso_U_11
_atom_site_aniso_U_22
_atom_site_aniso_U_33
_atom_site_aniso_U_23
_atom_site_aniso_U_13
_atom_site_aniso_U_12
Cu1 0.0281(4) 0.0471(4) 0.0377(4) -0.00093(13) -0.0019(3) 0.01407(18)
O1 0.0525(18) 0.086(2) 0.0473(16) -0.0114(15) -0.0057(13) 0.0434(17)
O2 0.0464(17) 0.090(2) 0.0562(17) -0.0173(16) -0.0073(14) 0.0413(17)
O3 0.086(4) 0.127(4) 0.080(4) -0.0208(15) -0.042(3) 0.0428(19)
O4 0.106(7) 0.172(10) 0.086(6) -0.039(6) 0.028(6) 0.013(7)
C1 0.035(2) 0.063(3) 0.050(2) 0.004(2) 0.0059(18) 0.023(2)
C2 0.043(2) 0.070(3) 0.048(2) -0.007(2) -0.0032(19) 0.032(2)
C3 0.054(3) 0.065(4) 0.044(3) -0.004(3) -0.0018(14) 0.032(2)
C4 0.052(3) 0.095(4) 0.056(3) -0.015(2) -0.010(2) 0.046(3)
C5 0.076(7) 0.172(14) 0.060(6) -0.032(8) 0.001(6) 0.067(9)
C6 0.054(3) 0.097(5) 0.059(4) -0.018(4) -0.0089(18) 0.049(3)
C7 0.060(3) 0.116(6) 0.059(4) -0.033(4) -0.016(2) 0.058(3)
C8 0.062(6) 0.119(9) 0.055(5) -0.019(6) -0.003(5) 0.049(6)
C9 0.17(2) 0.24(3) 0.25(3) -0.11(2) 0.09(2) -0.10(2)
O1Q 0.0517 0.086 0.0473 -0.0114 -0.0057 0.0426
O2Q 0.0538 0.09 0.0562 -0.0173 -0.01 0.0487
O4Q 0.252 0.172 0.086 -0.039 -0.067 0.159
C1Q 0.052 0.063 0.05 0.004 -0.0019 0.04
C2Q 0.049 0.07 0.048 -0.007 -0.0038 0.038
C3Q 0.055 0.065 0.044 -0.004 -0.0022 0.033
C4Q 0.055 0.095 0.056 -0.015 -0.005 0.049
C5Q 0.114 0.172 0.06 -0.032 -0.033 0.105
C6Q 0.053 0.097 0.059 -0.018 -0.0091 0.048
C7Q 0.06 0.116 0.059 -0.033 -0.017 0.058
C8Q 0.083 0.119 0.055 -0.019 -0.016 0.07
C9Q 0.61 0.24 0.25 -0.11 -0.2 0.34
O1W 0.0517 0.086 0.0473 -0.0114 -0.0057 0.0426
O2W 0.0538 0.09 0.0562 -0.0173 -0.01 0.0487
O4W 0.252 0.172 0.086 -0.039 -0.067 0.159
C1W 0.052 0.063 0.05 0.004 -0.0019 0.04
C2W 0.049 0.07 0.048 -0.007 -0.0038 0.038
C4W 0.055 0.095 0.056 -0.015 -0.005 0.049
C5W 0.114 0.172 0.06 -0.032 -0.033 0.105
C8W 0.083 0.119 0.055 -0.019 -0.016 0.07
C9W 0.61 0.24 0.25 -0.11 -0.2 0.34
O1X 0.0525 0.086 0.0473 -0.0114 -0.0057 0.0434
O2X 0.0464 0.09 0.0562 -0.0173 -0.0073 0.0413
O4X 0.106 0.172 0.086 -0.039 0.028 0.013
C1X 0.035 0.063 0.05 0.004 0.0059 0.023
C2X 0.043 0.07 0.048 -0.007 -0.0032 0.032
C4X 0.052 0.095 0.056 -0.015 -0.01 0.046
C5X 0.076 0.172 0.06 -0.032 0.001 0.067
C8X 0.062 0.119 0.055 -0.019 -0.003 0.049
C9X 0.17 0.24 0.25 -0.11 0.09 -0.1
Cu1A 0.0471 0.04706 0.0377 -0.00097 0.00093 0.03303
O3A 0.127 0.1274 0.08 -0.0212 0.0208 0.0842
Cu1D 0.0281 0.04706 0.0377 -0.00097 -0.0019 0.01403
Cu1E 0.04706 0.0471 0.0377 -0.00093 0.00097 0.03303
Cu1L 0.0281 0.0471 0.0377 -0.00093 -0.0019 0.01407
Cu1M 0.0471 0.04706 0.0377 -0.00097 0.00093 0.03303
Cu1P 0.0281 0.04706 0.0377 -0.00097 -0.0019 0.01403
Cu1Q 0.04706 0.0471 0.0377 -0.00093 0.00097 0.03303
O1A 0.086 0.0517 0.0473 0.0057 0.0114 0.0426
O1V 0.0525 0.0517 0.0473 0.0057 -0.0057 0.0091
O2D 0.0464 0.0538 0.0562 0.01 -0.0073 0.0051
O2E 0.0538 0.09 0.0562 -0.0173 -0.01 0.0487
O2R 0.0464 0.09 0.0562 -0.0173 -0.0073 0.0413
O2S 0.09 0.0538 0.0562 0.01 0.0173 0.0487
loop_
_geom_bond_atom_site_label_1
_geom_bond_atom_site_label_2
_geom_bond_site_symmetry_1
_geom_bond_site_symmetry_2
Cu1 O1 1_555 1_555
O1 C1 1_555 1_555
O2 C1 1_555 1_555
O3 Cu1 1_555 1_555
O4 C5 1_555 1_555
C1 C2 1_555 1_555
C2 C3 1_555 1_555
C3 H1 1_555 1_555
C4 C2 1_555 1_555
H2 C4 1_555 1_555
C5 C8 1_555 1_555
C6 C4 1_555 1_555
C7 C6 1_555 1_555
C8 C7 1_555 1_555
C9 O4 1_555 1_555
H3 C9 1_555 1_555
H4 C9 1_555 1_555
H5 C9 1_555 1_555
O1Q C1Q 1_555 1_555
O2Q C1Q 1_555 1_555
O4Q C5Q 1_555 1_555
C1Q C2Q 1_555 1_555
C2Q C3Q 1_555 1_555
C3Q H1Q 1_555 1_555
C4Q C2Q 1_555 1_555
H2Q C4Q 1_555 1_555
C5Q C7 1_555 1_555
C6Q C4Q 1_555 1_555
C7Q C5 1_555 1_555
C8Q C5Q 1_555 1_555
C9Q O4Q 1_555 1_555
H3Q C9Q 1_555 1_555
H4Q C9Q 1_555 1_555
H5Q C9Q 1_555 1_555
O1W C1W 1_555 1_555
O2W C1W 1_555 1_555
O4W C5W 1_555 1_555
C1W C2W 1_555 1_555
C2W C3 1_555 1_555
C4W C6 1_555 1_555
H2W C4W 1_555 1_555
C5W C7Q 1_555 1_555
C8W C7 1_555 1_555
C9W O4W 1_555 1_555
H3W C9W 1_555 1_555
H4W C9W 1_555 1_555
H5W C9W 1_555 1_555
O1X C1X 1_555 1_555
O2X C1X 1_555 1_555
O4X C5X 1_555 1_555
C1X C2X 1_555 1_555
C2X C3Q 1_555 1_555
C4X C6Q 1_555 1_555
H2X C4X 1_555 1_555
C5X C7 1_555 1_555
C8X C7Q 1_555 1_555
C9X O4X 1_555 1_555
H3X C9X 1_555 1_555
H4X C9X 1_555 1_555
H5X C9X 1_555 1_555
Cu1A O1W 1_555 1_555
O3A Cu1A 1_555 1_555
Cu1D Cu1 1_555 1_555
Cu1E O2W 1_555 1_555
Cu1L O2X 1_555 1_555
Cu1M O2Q 1_555 1_555
Cu1P O1X 1_555 1_555
Cu1Q O1Q 1_555 1_555
O1A Cu1A 1_555 1_555
O1V Cu1 1_555 1_555
O2D Cu1 1_555 1_555
O2E Cu1A 1_555 1_555
O2R Cu1 1_555 1_555
O2S Cu1A 1_555 1_555
O2 Cu1D 1_555 1_555
C6Q C7Q 1_555 1_555
C7Q C8Q 1_555 1_555
C2W C4W 1_555 1_555
C5W C8W 1_555 1_555
C2X C4X 1_555 1_555
C5X C8X 1_555 1_555
Cu1A Cu1E 1_555 1_555
Cu1L Cu1P 1_555 1_555
Cu1M Cu1Q 1_555 1_555

#END
