
#######################################################################
#
#                 Cambridge Crystallographic Data Centre
#                                CCDC 
#
#######################################################################
#
# If this CIF has been generated from an entry in the Cambridge 
# Structural Database, then it will include bibliographic, chemical, 
# crystal, experimental, refinement or atomic coordinate data resulting 
# from the CCDC's data processing and validation procedures.
#
#######################################################################

data_YUZTAP
_chemical_formula_moiety         '(C74 H74 Cd3 N4 O16)n,2n(C5 H11 N1 O1)'
_chemical_name_systematic        
"catena-[bis(\m~5~-4,4',4''-(Benzene-1,3,5-triyl)tribenzoato)-tetrakis(diethylformamide-O)-tri-cadmium(ii) diethylformamide solvate]"
_symmetry_cell_setting           triclinic
_symmetry_space_group_name_H-M   'P -1'
_symmetry_Int_Tables_number      2
_space_group_name_Hall           '-P 1'
loop_
_symmetry_equiv_pos_site_id
_symmetry_equiv_pos_as_xyz
1 x,y,z
2 -x,-y,-z
_cell_length_a                   10.4595(9)
_cell_length_b                   14.3920(13)
_cell_length_c                   14.7634(13)
_cell_angle_alpha                69.608(1)
_cell_angle_beta                 82.476(1)
_cell_angle_gamma                88.043(1)
_cell_volume                     2065.01
_exptl_crystal_colour            colorless
_exptl_crystal_description       prism
_cell_formula_units_Z            1
loop_
_atom_site_label
_atom_site_type_symbol
_atom_site_fract_x
_atom_site_fract_y
_atom_site_fract_z
Cd1 Cd 0.0000 0.0000 0.0000
Cd2 Cd -0.08541(3) -0.112327(18) -0.188480(18)
O1 O -0.2426(3) -0.1862(2) -0.0577(2)
O2 O -0.0601(2) -0.14260(18) -0.02315(18)
O3 O -0.1180(3) -0.9073(2) 0.8843(2)
O4 O -0.1099(3) -0.9527(2) 0.7530(2)
O5 O -0.9060(3) -0.1083(2) 0.7003(3)
O6 O -0.9636(3) -0.2519(2) 0.8098(2)
C1 C -0.3343(3) -0.3784(2) 0.4141(2)
C2 C -0.2746(3) -0.4633(2) 0.4706(2)
H1 H -0.2037 -0.4903 0.4412
C3 C -0.3175(3) -0.5089(2) 0.5696(2)
C4 C -0.4183(3) -0.4663(2) 0.6125(3)
H2 H -0.4464 -0.4959 0.6802
C5 C -0.4785(3) -0.3811(2) 0.5581(3)
C6 C -0.4375(3) -0.3389(2) 0.4586(2)
H3 H -0.4804 -0.2824 0.4204
C7 C -0.2918(3) -0.3306(2) 0.3084(2)
C8 C -0.1619(4) -0.3126(3) 0.2726(3)
H4 H -0.0988 -0.3342 0.3162
C9 C -0.1231(4) -0.2638(3) 0.1747(3)
H5 H -0.0342 -0.2497 0.1519
C10 C -0.2137(3) -0.2350(3) 0.1091(2)
C11 C -0.3432(4) -0.2556(3) 0.1438(3)
H6 H -0.4055 -0.2382 0.0995
C12 C -0.3822(3) -0.3014(3) 0.2426(2)
H7 H -0.4715 -0.3130 0.2656
C13 C -0.2623(3) -0.6046(2) 0.6273(2)
C14 C -0.2267(3) -0.6754(3) 0.5847(2)
H8 H -0.2307 -0.6603 0.5172
C15 C -0.1853(4) -0.7681(3) 0.6400(3)
H9 H -0.1628 -0.8161 0.6101
C16 C -0.1764(3) -0.7915(3) 0.7384(3)
C17 C -0.2102(3) -0.7207(3) 0.7810(3)
H10 H -0.2038 -0.7355 0.8482
C18 C -0.2535(3) -0.6281(3) 0.7261(3)
H11 H -0.2772 -0.5805 0.7564
C19 C -0.5843(3) -0.3352(3) 0.6049(3)
C20 C -0.6706(4) -0.3923(3) 0.6826(3)
H12 H -0.6616 -0.4623 0.7071
C21 C -0.7696(4) -0.3485(3) 0.7251(3)
H13 H -0.8270 -0.3888 0.7787
C22 C -0.7858(4) -0.2474(3) 0.6907(3)
C23 C -0.7012(4) -0.1895(3) 0.6130(3)
H14 H -0.7118 -0.1196 0.5881
C24 C -0.6005(4) -0.2329(3) 0.5709(3)
H15 H -0.5421 -0.1922 0.5182
C25 C -0.1709(3) -0.1846(3) 0.0035(3)
C26 C -0.1298(3) -0.8920(3) 0.7972(3)
C27 C -0.8920(4) -0.1998(3) 0.7372(3)
O7 O -0.2084(4) -0.1402(4) -0.2950(3)
N1 N -0.1687(5) -0.1595(3) -0.4431(3)
C28 C -0.1727(5) -0.1088(4) -0.3830(4)
H16 H -0.1452 -0.0414 -0.4108
C29 C -0.1289(7) -0.1158(5) -0.5460(4)
H17 H -0.0601 -0.1571 -0.5648
H18 H -0.0908 -0.0496 -0.5594
C30 C -0.2306(8) -0.1045(5) -0.6081(5)
H19 H -0.2636 -0.1700 -0.6006
H20 H -0.1955 -0.0702 -0.6763
H21 H -0.3009 -0.0656 -0.5890
C31 C -0.2051(6) -0.2646(5) -0.4006(5)
H22 H -0.2612 -0.2757 -0.3382
H23 H -0.2564 -0.2809 -0.4449
C32 C -0.0968(10) -0.3325(6) -0.3825(7)
H24 H -0.0398 -0.3217 -0.4435
H25 H -0.1293 -0.4010 -0.3567
H26 H -0.0487 -0.3203 -0.3350
O8 O 0.1789(3) -0.0006(2) -0.1049(2)
N2 N 0.3678(4) -0.0744(4) -0.1274(4)
C33 C 0.2468(5) -0.0752(4) -0.0897(4)
H27 H 0.2091 -0.1369 -0.0480
C34 C 0.4417(7) -0.1694(7) -0.1004(7)
H28 H 0.5217 -0.1594 -0.0756
H29 H 0.3892 -0.2212 -0.0474
C35 C 0.4753(10) -0.2035(10) -0.1826(10)
H30 H 0.3967 -0.2228 -0.2013
H31 H 0.5324 -0.2606 -0.1639
H32 H 0.5195 -0.1498 -0.2378
C36 C 0.4305(9) 0.0130(8) -0.1887(8)
H33 H 0.3661 0.0669 -0.2091
C37 C 0.5223(18) 0.0392(16) -0.1275(15)
H34 H 0.5066 0.1006 -0.1121
H35 H 0.5625 -0.0155 -0.0786
Cd1_2 Cd 0.0000 -1.0000 1.0000
Cd1_3 Cd 0.0000 1.0000 -1.0000
Cd2_2 Cd -0.08541(3) 0.887673(18) -1.188480(18)
Cd2_3 Cd -0.08541(3) -1.112327(18) 0.811520(18)
Cd2_4 Cd -1.08541(3) -0.112327(18) 0.811520(18)
Cd2_5 Cd -1.08541(3) 0.887673(18) -0.188480(18)
O1_2 O -0.2426(3) 0.8138(2) -1.0577(2)
O2_2 O -0.0601(2) 0.85740(18) -1.02315(18)
O2A O 0.0601(2) 0.14260(18) 0.02315(18)
O3_2 O -0.1180(3) 0.0927(2) -0.1157(2)
O3A O 0.1180(3) -0.0927(2) 0.1157(2)
O4_2 O -0.1099(3) 0.0473(2) -0.2470(2)
O4_3 O -0.1099(3) 1.0473(2) -1.2470(2)
O5_2 O -0.9060(3) 0.8917(2) -0.2997(3)
O5_3 O 0.0940(3) -0.1083(2) -0.2997(3)
O5_4 O 0.0940(3) 0.8917(2) -1.2997(3)
O6_2 O -0.9636(3) 0.7481(2) -0.1902(2)
O6_3 O 0.0364(3) -0.2519(2) -0.1902(2)
O6_4 O 0.0364(3) 0.7481(2) -1.1902(2)
C1_2 C -0.3343(3) 0.6216(2) -0.5859(2)
C2_2 C -0.2746(3) 0.5367(2) -0.5294(2)
H1_2 H -0.2037 0.5097 -0.5588
C3_2 C -0.3175(3) 0.4911(2) -0.4304(2)
C4_2 C -0.4183(3) 0.5337(2) -0.3875(3)
H2_2 H -0.4464 0.5041 -0.3198
C5_2 C -0.4785(3) 0.6189(2) -0.4419(3)
C6_2 C -0.4375(3) 0.6611(2) -0.5414(2)
H3_2 H -0.4804 0.7176 -0.5796
C7_2 C -0.2918(3) 0.6694(2) -0.6916(2)
C8_2 C -0.1619(4) 0.6874(3) -0.7274(3)
H4_2 H -0.0988 0.6658 -0.6838
C9_2 C -0.1231(4) 0.7362(3) -0.8253(3)
H5_2 H -0.0342 0.7503 -0.8481
C10_2 C -0.2137(3) 0.7650(3) -0.8909(2)
C11_2 C -0.3432(4) 0.7444(3) -0.8562(3)
H6_2 H -0.4055 0.7618 -0.9005
C12_2 C -0.3822(3) 0.6986(3) -0.7574(2)
H7_2 H -0.4715 0.6870 -0.7344
C13_2 C -0.2623(3) 0.3954(2) -0.3727(2)
C14_2 C -0.2267(3) 0.3246(3) -0.4153(2)
H8_2 H -0.2307 0.3397 -0.4828
C15_2 C -0.1853(4) 0.2319(3) -0.3600(3)
H9_2 H -0.1628 0.1839 -0.3899
C16_2 C -0.1764(3) 0.2085(3) -0.2616(3)
C17_2 C -0.2102(3) 0.2793(3) -0.2190(3)
H10_2 H -0.2038 0.2645 -0.1518
C18_2 C -0.2535(3) 0.3719(3) -0.2739(3)
H11_2 H -0.2772 0.4195 -0.2436
C19_2 C -0.5843(3) 0.6648(3) -0.3951(3)
C20_2 C -0.6706(4) 0.6077(3) -0.3174(3)
H12_2 H -0.6616 0.5377 -0.2929
C21_2 C -0.7696(4) 0.6515(3) -0.2749(3)
H13_2 H -0.8270 0.6112 -0.2213
C22_2 C -0.7858(4) 0.7526(3) -0.3093(3)
C23_2 C -0.7012(4) 0.8105(3) -0.3870(3)
H14_2 H -0.7118 0.8804 -0.4119
C24_2 C -0.6005(4) 0.7671(3) -0.4291(3)
H15_2 H -0.5421 0.8078 -0.4818
C25_2 C -0.1709(3) 0.8154(3) -0.9965(3)
C26_2 C -0.1298(3) 0.1080(3) -0.2028(3)
C27_2 C -0.8920(4) 0.8002(3) -0.2628(3)
O7_2 O -0.2084(4) 0.8598(4) -1.2950(3)
N1_2 N -0.1687(5) 0.8405(3) -1.4431(3)
C28_2 C -0.1727(5) 0.8912(4) -1.3830(4)
H16_2 H -0.1452 0.9586 -1.4108
C29_2 C -0.1289(7) 0.8842(5) -1.5460(4)
H17_2 H -0.0601 0.8429 -1.5648
H18_2 H -0.0908 0.9504 -1.5594
C30_2 C -0.2306(8) 0.8955(5) -1.6081(5)
H19_2 H -0.2636 0.8300 -1.6006
H20_2 H -0.1955 0.9298 -1.6763
H21_2 H -0.3009 0.9344 -1.5890
C31_2 C -0.2051(6) 0.7354(5) -1.4006(5)
H22_2 H -0.2612 0.7243 -1.3382
H23_2 H -0.2564 0.7191 -1.4449
C32_2 C -0.0968(10) 0.6675(6) -1.3825(7)
H24_2 H -0.0398 0.6783 -1.4435
H25_2 H -0.1293 0.5990 -1.3567
H26_2 H -0.0487 0.6797 -1.3350
O8A O -0.1789(3) 0.0006(2) 0.1049(2)
N2A N -0.3678(4) 0.0744(4) 0.1274(4)
C33A C -0.2468(5) 0.0752(4) 0.0897(4)
H27A H -0.2091 0.1369 0.0480
C34A C -0.4417(7) 0.1694(7) 0.1004(7)
H28A H -0.5217 0.1594 0.0756
H29A H -0.3892 0.2212 0.0474
C35A C -0.4753(10) 0.2035(10) 0.1826(10)
H30A H -0.3967 0.2228 0.2013
H31A H -0.5324 0.2606 0.1639
H32A H -0.5195 0.1498 0.2378
C36A C -0.4305(9) -0.0130(8) 0.1887(8)
H33A H -0.3661 -0.0669 0.2091
C37A C -0.5223(18) -0.0392(16) 0.1275(15)
H34A H -0.5066 -0.1006 0.1121
H35A H -0.5625 0.0155 0.0786
H36? H 0.5546 0.1154 -0.2788
H37? H 0.6101 0.0004 -0.2457
C38? C 0.5481(17) 0.0476(19) -0.2297(15)
loop_
_geom_bond_atom_site_label_1
_geom_bond_atom_site_label_2
_geom_bond_site_symmetry_1
_geom_bond_site_symmetry_2
Cd1 O2 1_555 1_555
Cd2 O1 1_555 1_555
O1 C25 1_555 1_555
O2 Cd2 1_555 1_555
O3 C26 1_555 1_555
O4 C26 1_555 1_555
O5 C27 1_555 1_555
O6 C27 1_555 1_555
C1 C2 1_555 1_555
C2 H1 1_555 1_555
C3 C2 1_555 1_555
C4 C3 1_555 1_555
H2 C4 1_555 1_555
C5 C4 1_555 1_555
C6 C1 1_555 1_555
H3 C6 1_555 1_555
C7 C1 1_555 1_555
C8 C7 1_555 1_555
H4 C8 1_555 1_555
C9 C8 1_555 1_555
H5 C9 1_555 1_555
C10 C9 1_555 1_555
C11 C10 1_555 1_555
H6 C11 1_555 1_555
C12 C7 1_555 1_555
H7 C12 1_555 1_555
C13 C3 1_555 1_555
C14 C13 1_555 1_555
H8 C14 1_555 1_555
C15 C14 1_555 1_555
H9 C15 1_555 1_555
C16 C15 1_555 1_555
C17 C16 1_555 1_555
H10 C17 1_555 1_555
C18 C13 1_555 1_555
H11 C18 1_555 1_555
C19 C5 1_555 1_555
C20 C19 1_555 1_555
H12 C20 1_555 1_555
C21 C20 1_555 1_555
H13 C21 1_555 1_555
C22 C21 1_555 1_555
C23 C22 1_555 1_555
H14 C23 1_555 1_555
C24 C19 1_555 1_555
H15 C24 1_555 1_555
C25 O2 1_555 1_555
C26 C16 1_555 1_555
C27 C22 1_555 1_555
O7 Cd2 1_555 1_555
N1 C28 1_555 1_555
C28 O7 1_555 1_555
H16 C28 1_555 1_555
C29 N1 1_555 1_555
H17 C29 1_555 1_555
H18 C29 1_555 1_555
C30 C29 1_555 1_555
H19 C30 1_555 1_555
H20 C30 1_555 1_555
H21 C30 1_555 1_555
C31 N1 1_555 1_555
H22 C31 1_555 1_555
H23 C31 1_555 1_555
C32 C31 1_555 1_555
H24 C32 1_555 1_555
H25 C32 1_555 1_555
H26 C32 1_555 1_555
O8 Cd1 1_555 1_555
N2 C33 1_555 1_555
C33 O8 1_555 1_555
H27 C33 1_555 1_555
C34 N2 1_555 1_555
H28 C34 1_555 1_555
H29 C34 1_555 1_555
C35 C34 1_555 1_555
H30 C35 1_555 1_555
H31 C35 1_555 1_555
H32 C35 1_555 1_555
C36 N2 1_555 1_555
H33 C36 1_555 1_555
C37 C36 1_555 1_555
H34 C37 1_555 1_555
H35 C37 1_555 1_555
Cd1_2 O3 1_555 1_555
Cd1_3 O2_2 1_555 1_555
Cd2_2 O1_2 1_555 1_555
Cd2_3 O4 1_555 1_555
Cd2_4 O5 1_555 1_555
Cd2_5 O5_2 1_555 1_555
O1_2 C25_2 1_555 1_555
O2_2 Cd2_2 1_555 1_555
O2A Cd1 1_555 1_555
O3_2 Cd1 1_555 1_555
O3A Cd1 1_555 1_555
O4_2 Cd2 1_555 1_555
O4_3 Cd2_2 1_555 1_555
O5_2 C27_2 1_555 1_555
O5_3 Cd2 1_555 1_555
O5_4 Cd2_2 1_555 1_555
O6_2 Cd2_5 1_555 1_555
O6_3 Cd2 1_555 1_555
O6_4 Cd2_2 1_555 1_555
C1_2 C2_2 1_555 1_555
C2_2 H1_2 1_555 1_555
C3_2 C2_2 1_555 1_555
C4_2 C3_2 1_555 1_555
H2_2 C4_2 1_555 1_555
C5_2 C4_2 1_555 1_555
C6_2 C1_2 1_555 1_555
H3_2 C6_2 1_555 1_555
C7_2 C1_2 1_555 1_555
C8_2 C7_2 1_555 1_555
H4_2 C8_2 1_555 1_555
C9_2 C8_2 1_555 1_555
H5_2 C9_2 1_555 1_555
C10_2 C9_2 1_555 1_555
C11_2 C10_2 1_555 1_555
H6_2 C11_2 1_555 1_555
C12_2 C7_2 1_555 1_555
H7_2 C12_2 1_555 1_555
C13_2 C3_2 1_555 1_555
C14_2 C13_2 1_555 1_555
H8_2 C14_2 1_555 1_555
C15_2 C14_2 1_555 1_555
H9_2 C15_2 1_555 1_555
C16_2 C15_2 1_555 1_555
C17_2 C16_2 1_555 1_555
H10_2 C17_2 1_555 1_555
C18_2 C13_2 1_555 1_555
H11_2 C18_2 1_555 1_555
C19_2 C5_2 1_555 1_555
C20_2 C19_2 1_555 1_555
H12_2 C20_2 1_555 1_555
C21_2 C20_2 1_555 1_555
H13_2 C21_2 1_555 1_555
C22_2 C21_2 1_555 1_555
C23_2 C22_2 1_555 1_555
H14_2 C23_2 1_555 1_555
C24_2 C19_2 1_555 1_555
H15_2 C24_2 1_555 1_555
C25_2 O2_2 1_555 1_555
C26_2 O3_2 1_555 1_555
C27_2 O6_2 1_555 1_555
O7_2 Cd2_2 1_555 1_555
N1_2 C28_2 1_555 1_555
C28_2 O7_2 1_555 1_555
H16_2 C28_2 1_555 1_555
C29_2 N1_2 1_555 1_555
H17_2 C29_2 1_555 1_555
H18_2 C29_2 1_555 1_555
C30_2 C29_2 1_555 1_555
H19_2 C30_2 1_555 1_555
H20_2 C30_2 1_555 1_555
H21_2 C30_2 1_555 1_555
C31_2 N1_2 1_555 1_555
H22_2 C31_2 1_555 1_555
H23_2 C31_2 1_555 1_555
C32_2 C31_2 1_555 1_555
H24_2 C32_2 1_555 1_555
H25_2 C32_2 1_555 1_555
H26_2 C32_2 1_555 1_555
O8A Cd1 1_555 1_555
N2A C33A 1_555 1_555
C33A O8A 1_555 1_555
H27A C33A 1_555 1_555
C34A N2A 1_555 1_555
H28A C34A 1_555 1_555
H29A C34A 1_555 1_555
C35A C34A 1_555 1_555
H30A C35A 1_555 1_555
H31A C35A 1_555 1_555
H32A C35A 1_555 1_555
C36A N2A 1_555 1_555
H33A C36A 1_555 1_555
C37A C36A 1_555 1_555
H34A C37A 1_555 1_555
H35A C37A 1_555 1_555
O6 Cd2_4 1_555 1_555
C5 C6 1_555 1_555
C10 C25 1_555 1_555
C11 C12 1_555 1_555
C17 C18 1_555 1_555
C23 C24 1_555 1_555
O4_2 C26_2 1_555 1_555
C5_2 C6_2 1_555 1_555
C10_2 C25_2 1_555 1_555
C11_2 C12_2 1_555 1_555
C16_2 C26_2 1_555 1_555
C17_2 C18_2 1_555 1_555
C22_2 C27_2 1_555 1_555
C23_2 C24_2 1_555 1_555

#END
