
#######################################################################
#
#                 Cambridge Crystallographic Data Centre
#                                CCDC 
#
#######################################################################
#
# If this CIF has been generated from an entry in the Cambridge 
# Structural Database, then it will include bibliographic, chemical, 
# crystal, experimental, refinement or atomic coordinate data resulting 
# from the CCDC's data processing and validation procedures.
#
#######################################################################

data_KALFEK
_chemical_formula_moiety         '(C40 H30 N4 Ni2 O9)n,12n(H2 O1)'
_chemical_name_systematic        
'catena-((\m~4~-1,2,3,4-tetrakis(pyridin-4-yl)cyclobutane)-bis(\m~3~-isophthalato)-(\m~2~-aqua)-di-nickel dodecahydrate)'
_symmetry_cell_setting           orthorhombic
_symmetry_space_group_name_H-M   'F d d 2'
_symmetry_Int_Tables_number      43
_space_group_name_Hall           'F 2 -2d'
loop_
_symmetry_equiv_pos_site_id
_symmetry_equiv_pos_as_xyz
1 x,y,z
2 -x,-y,z
3 1/4+x,1/4-y,1/4+z
4 1/4-x,1/4+y,1/4+z
5 x,1/2+y,1/2+z
6 -x,1/2-y,1/2+z
7 1/4+x,3/4-y,3/4+z
8 1/4-x,3/4+y,3/4+z
9 1/2+x,y,1/2+z
10 1/2-x,-y,1/2+z
11 3/4+x,1/4-y,3/4+z
12 3/4-x,1/4+y,3/4+z
13 1/2+x,1/2+y,z
14 1/2-x,1/2-y,z
15 3/4+x,3/4-y,1/4+z
16 3/4-x,3/4+y,1/4+z
_cell_length_a                   15.571(3)
_cell_length_b                   23.296(5)
_cell_length_c                   32.328(7)
_cell_angle_alpha                90
_cell_angle_beta                 90
_cell_angle_gamma                90
_cell_volume                     11726.7
_exptl_crystal_colour            green
_exptl_crystal_description       block
_cell_formula_units_Z            8
loop_
_atom_site_label
_atom_site_type_symbol
_atom_site_fract_x
_atom_site_fract_y
_atom_site_fract_z
_atom_site_U_iso_or_equiv
_atom_site_thermal_displace_type
Ni1 Ni 0.13802(4) -0.23954(3) -0.08611(2) 0.0257 Uani
N1 N 0.1071(3) -0.1639(2) -0.11732(17) 0.0317 Uani
N2 N 0.2720(3) -0.0140(2) -0.30348(17) 0.0300 Uani
O1 O 0.1928(2) -0.19496(17) -0.03842(13) 0.0338 Uani
O2 O 0.3295(2) -0.18335(17) -0.05771(13) 0.0339 Uani
O3 O 0.0785(3) -0.0686(2) 0.07709(18) 0.0573 Uani
O4 O 0.1777(2) -0.03518(19) 0.11977(14) 0.0393 Uani
O5 O 0.2500 -0.2500 -0.1220(2) 0.0283 Uani
H1 H 0.270(2) -0.224(2) -0.1348(15) 0.0310 Uiso
C1 C 0.0294(4) -0.1563(3) -0.1342(2) 0.0387 Uani
H2 H -0.0119 -0.1854 -0.1306 0.0470 Uiso
C2 C 0.0068(3) -0.1088(3) -0.1564(2) 0.0393 Uani
H3 H -0.0489 -0.1058 -0.1674 0.0470 Uiso
C3 C 0.0653(3) -0.0653(2) -0.16274(19) 0.0293 Uani
C4 C 0.1461(4) -0.0718(3) -0.1455(2) 0.0380 Uani
H4 H 0.1881 -0.0432 -0.1488 0.0460 Uiso
C5 C 0.1644(4) -0.1218(3) -0.1232(2) 0.0403 Uani
H5 H 0.2195 -0.1260 -0.1117 0.0480 Uiso
C6 C 0.0455(3) -0.0131(2) -0.1891(2) 0.0293 Uani
H6 H 0.0888 0.0172 -0.1842 0.0350 Uiso
C7 C 0.0348(3) -0.0236(2) -0.23678(19) 0.0280 Uani
H7 H 0.0074 -0.0614 -0.2414 0.0340 Uiso
C8 C 0.1144(3) -0.0196(3) -0.2621(2) 0.0313 Uani
C9 C 0.1402(4) 0.0290(3) -0.2831(2) 0.0377 Uani
H8 H 0.1046 0.0616 -0.2835 0.0450 Uiso
C10 C 0.2181(4) 0.0300(3) -0.3033(2) 0.0393 Uani
H9 H 0.2337 0.0634 -0.3177 0.0470 Uiso
C11 C 0.2475(3) -0.0611(3) -0.2838(2) 0.0387 Uani
H10 H 0.2848 -0.0928 -0.2839 0.0470 Uiso
C12 C 0.1708(4) -0.0663(3) -0.2635(2) 0.0413 Uani
H11 H 0.1561 -0.1010 -0.2505 0.0500 Uiso
C13 C 0.2805(4) -0.1326(2) 0.0009(2) 0.0343 Uani
C14 C 0.3626(4) -0.1133(4) 0.0106(3) 0.0593 Uani
H12 H 0.4095 -0.1265 -0.0051 0.0710 Uiso
C15 C 0.3768(4) -0.0756(4) 0.0420(3) 0.0700 Uani
H13 H 0.4320 -0.0603 0.0463 0.0840 Uiso
C16 C 0.3091(4) -0.0600(3) 0.0677(3) 0.0547 Uani
H14 H 0.3195 -0.0366 0.0908 0.0650 Uiso
C17 C 0.2264(4) -0.0788(3) 0.0595(2) 0.0393 Uani
C18 C 0.2121(4) -0.1144(2) 0.0256(2) 0.0343 Uani
H15 H 0.1560 -0.1263 0.0193 0.0410 Uiso
C19 C 0.2669(3) -0.1740(2) -0.0339(2) 0.0310 Uani
C20 C 0.1552(4) -0.0599(3) 0.0875(2) 0.0347 Uani
Ni1A Ni -0.13802(4) 0.23954(3) -0.08611(2) 0.0257 Uani
Ni1F Ni 0.38802(4) -0.01046(3) -0.33611(2) 0.0257 Uani
Ni1M Ni 0.36198(4) -0.26046(3) -0.08611(2) 0.0257 Uani
Ni1C Ni 0.11198(4) 0.01046(3) 0.16389(2) 0.0257 Uani
Ni1K Ni -0.38802(4) 0.01046(3) -0.33611(2) 0.0257 Uani
Ni1B Ni 0.38802(4) -0.51046(3) 0.16389(2) 0.0257 Uani
N1A N -0.1071(3) 0.1639(2) -0.11732(17) 0.0317 Uani
N2A N -0.2720(3) 0.0140(2) -0.30348(17) 0.0300 Uani
N2N N 0.0220(3) -0.2360(2) -0.05348(17) 0.0300 Uani
N2C N -0.0220(3) 0.2360(2) -0.05348(17) 0.0300 Uani
O1M O 0.3072(2) -0.30504(17) -0.03842(13) 0.0338 Uani
O1A O -0.1928(2) 0.19496(17) -0.03842(13) 0.0338 Uani
O2M O 0.1705(2) -0.31665(17) -0.05771(13) 0.0339 Uani
O2L O -0.1705(2) 0.31665(17) -0.05771(13) 0.0339 Uani
O3M O 0.4215(3) -0.4314(2) 0.07709(18) 0.0573 Uani
O4M O 0.3223(2) -0.46482(19) 0.11977(14) 0.0393 Uani
O4G O 0.0723(2) -0.28518(19) -0.13023(14) 0.0393 Uani
O4J O -0.0723(2) 0.28518(19) -0.13023(14) 0.0393 Uani
O5A O -0.2500 0.2500 -0.1220(2) 0.0283 Uani
H1M H 0.230(2) -0.276(2) -0.1348(15) 0.0310 Uiso
H1A H -0.270(2) 0.224(2) -0.1348(15) 0.0310 Uiso
H1L H -0.230(2) 0.276(2) -0.1348(15) 0.0310 Uiso
C1A C -0.0294(4) 0.1563(3) -0.1342(2) 0.0387 Uani
H2A H 0.0119 0.1854 -0.1306 0.0470 Uiso
C2A C -0.0068(3) 0.1088(3) -0.1564(2) 0.0393 Uani
H3A H 0.0489 0.1058 -0.1674 0.0470 Uiso
C3A C -0.0653(3) 0.0653(2) -0.16274(19) 0.0293 Uani
C4A C -0.1461(4) 0.0718(3) -0.1455(2) 0.0380 Uani
H4A H -0.1881 0.0432 -0.1488 0.0460 Uiso
C5A C -0.1644(4) 0.1218(3) -0.1232(2) 0.0403 Uani
H5A H -0.2195 0.1260 -0.1117 0.0480 Uiso
C6A C -0.0455(3) 0.0131(2) -0.1891(2) 0.0293 Uani
H6A H -0.0888 -0.0172 -0.1842 0.0350 Uiso
C7A C -0.0348(3) 0.0236(2) -0.23678(19) 0.0280 Uani
H7A H -0.0074 0.0614 -0.2414 0.0340 Uiso
C8A C -0.1144(3) 0.0196(3) -0.2621(2) 0.0313 Uani
C9A C -0.1402(4) -0.0290(3) -0.2831(2) 0.0377 Uani
H8A H -0.1046 -0.0616 -0.2835 0.0450 Uiso
C10A C -0.2181(4) -0.0300(3) -0.3033(2) 0.0393 Uani
H9A H -0.2337 -0.0634 -0.3177 0.0470 Uiso
C11A C -0.2475(3) 0.0611(3) -0.2838(2) 0.0387 Uani
H10A H -0.2848 0.0928 -0.2839 0.0470 Uiso
C12A C -0.1708(4) 0.0663(3) -0.2635(2) 0.0413 Uani
H11A H -0.1561 0.1010 -0.2505 0.0500 Uiso
C13M C 0.2195(4) -0.3674(2) 0.0009(2) 0.0343 Uani
C14M C 0.1374(4) -0.3867(4) 0.0106(3) 0.0593 Uani
H12M H 0.0905 -0.3735 -0.0051 0.0710 Uiso
C15M C 0.1232(4) -0.4244(4) 0.0420(3) 0.0700 Uani
H13M H 0.0680 -0.4397 0.0463 0.0840 Uiso
C16M C 0.1909(4) -0.4400(3) 0.0677(3) 0.0547 Uani
H14M H 0.1805 -0.4634 0.0908 0.0650 Uiso
C17M C 0.2736(4) -0.4212(3) 0.0595(2) 0.0393 Uani
C18M C 0.2879(4) -0.3856(2) 0.0256(2) 0.0343 Uani
H15M H 0.3440 -0.3737 0.0193 0.0410 Uiso
C19M C 0.2331(3) -0.3260(2) -0.0339(2) 0.0310 Uani
C20M C 0.3448(4) -0.4401(3) 0.0875(2) 0.0347 Uani
O6 O -0.5971(6) 0.0801(5) 0.0315(4) 0.1387 Uani
O7 O -0.2267(6) -0.0681(5) -0.1856(4) 0.1460 Uani
O8 O -0.1914(6) -0.2103(5) -0.1355(4) 0.1347 Uani
O9 O -0.3642(12) 0.0016(6) -0.2086(5) 0.0913 Uani
O10 O 0.2318(9) 0.0698(7) 0.0012(5) 0.0977 Uani
O11 O -0.4015(16) 0.0787(6) -0.0841(7) 0.1603 Uani
O12 O -0.5000 0.0000 -0.0283(8) 0.1980 Uiso
O14 O 0.0616(12) 0.0440(6) 0.0243(4) 0.0983 Uani
O13? O -0.4684(15) 0.0172(9) -0.1561(7) 0.1283 Uani
loop_
_atom_site_aniso_label
_atom_site_aniso_U_11
_atom_site_aniso_U_22
_atom_site_aniso_U_33
_atom_site_aniso_U_23
_atom_site_aniso_U_13
_atom_site_aniso_U_12
Ni1 0.0225 0.0322 0.0223 -0.0021 -0.0007 0.0028
N1 0.029 0.039 0.027 0.001 0.001 0.007
N2 0.03 0.033 0.027 0.002 -0.001 -0.002
O1 0.0264 0.042 0.033 -0.0151 0.0023 0.0008
O2 0.0317 0.04 0.03 -0.0067 0.0092 -0.0003
O3 0.03 0.086 0.056 -0.039 0.002 -0.009
O4 0.031 0.054 0.033 -0.014 -0.001 -0.0013
O5 0.026 0.034 0.025 0 0 0.004
C1 0.026 0.043 0.047 0.003 -0.005 -0.003
C2 0.023 0.05 0.045 0.01 -0.006 0.001
C3 0.026 0.032 0.03 -0.002 0.004 0.006
C4 0.027 0.037 0.05 0.008 -0.007 -0.001
C5 0.027 0.041 0.053 0.002 -0.009 0.004
C6 0.019 0.033 0.036 0.004 0 0.006
C7 0.027 0.028 0.029 0.001 0.006 0.005
C8 0.024 0.04 0.03 0 0 0.007
C9 0.03 0.037 0.046 0.005 0.009 0.008
C10 0.033 0.041 0.044 0.008 0.003 0.004
C11 0.028 0.043 0.045 0.007 0.009 0.009
C12 0.031 0.037 0.056 0.014 0.016 0.008
C13 0.029 0.038 0.036 -0.008 0.004 0.008
C14 0.03 0.078 0.07 -0.039 0.002 -0.001
C15 0.03 0.094 0.086 -0.055 0.006 -0.01
C16 0.039 0.06 0.065 -0.036 0.003 -0.007
C17 0.033 0.05 0.035 -0.011 0.003 -0.001
C18 0.033 0.037 0.033 -0.007 0 -0.002
C19 0.026 0.032 0.035 -0.005 0 0.006
C20 0.036 0.038 0.03 -0.005 0.005 -0.002
Ni1A 0.0225(3) 0.0322(3) 0.0223(4) 0.0021(3) 0.0007(3) 0.0028(3)
Ni1F 0.0225 0.0322 0.0223 0.0021 -0.0007 -0.0028
Ni1M 0.0225 0.0322 0.0223 0.0021 0.0007 0.0028
Ni1C 0.0225 0.0322 0.0223 -0.0021 0.0007 -0.0028
Ni1K 0.0225 0.0322 0.0223 -0.0021 0.0007 -0.0028
Ni1B 0.0225 0.0322 0.0223 0.0021 -0.0007 -0.0028
N1A 0.029(2) 0.039(3) 0.027(3) -0.001(2) -0.001(2) 0.007(2)
N2A 0.030(2) 0.033(2) 0.027(3) -0.002(2) 0.001(2) -0.002(2)
N2N 0.03 0.033 0.027 -0.002 -0.001 0.002
N2C 0.03 0.033 0.027 0.002 0.001 0.002
O1M 0.0264 0.042 0.033 0.0151 -0.0023 0.0008
O1A 0.0264(18) 0.042(2) 0.033(2) 0.0151(19) -0.0023(18) 0.0008(17)
O2M 0.0317 0.04 0.03 0.0067 -0.0092 -0.0003
O2L 0.0317 0.04 0.03 -0.0067 0.0092 -0.0003
O3M 0.03 0.086 0.056 0.039 -0.002 -0.009
O4M 0.031 0.054 0.033 0.014 0.001 -0.0013
O4G 0.031 0.054 0.033 -0.014 0.001 0.0013
O4J 0.031 0.054 0.033 0.014 -0.001 0.0013
O5A 0.026(3) 0.034(3) 0.025(3) 0.000 0.000 0.004(2)
C1A 0.026(3) 0.043(3) 0.047(4) -0.003(3) 0.005(3) -0.003(2)
C2A 0.023(3) 0.050(3) 0.045(4) -0.010(3) 0.006(2) 0.001(3)
C3A 0.026(2) 0.032(3) 0.030(3) 0.002(2) -0.004(2) 0.006(2)
C4A 0.027(3) 0.037(3) 0.050(4) -0.008(3) 0.007(3) -0.001(2)
C5A 0.027(3) 0.041(3) 0.053(5) -0.002(3) 0.009(3) 0.004(2)
C6A 0.019(2) 0.033(3) 0.036(4) -0.004(2) 0.000(2) 0.006(2)
C7A 0.027(2) 0.028(3) 0.029(3) -0.001(2) -0.006(2) 0.005(2)
C8A 0.024(3) 0.040(3) 0.030(3) 0.000(3) 0.000(2) 0.007(2)
C9A 0.030(3) 0.037(3) 0.046(4) -0.005(3) -0.009(3) 0.008(2)
C10A 0.033(3) 0.041(3) 0.044(4) -0.008(3) -0.003(3) 0.004(3)
C11A 0.028(3) 0.043(3) 0.045(4) -0.007(3) -0.009(3) 0.009(3)
C12A 0.031(3) 0.037(3) 0.056(5) -0.014(3) -0.016(3) 0.008(3)
C13M 0.029 0.038 0.036 0.008 -0.004 0.008
C14M 0.03 0.078 0.07 0.039 -0.002 -0.001
C15M 0.03 0.094 0.086 0.055 -0.006 -0.01
C16M 0.039 0.06 0.065 0.036 -0.003 -0.007
C17M 0.033 0.05 0.035 0.011 -0.003 -0.001
C18M 0.033 0.037 0.033 0.007 0 -0.002
C19M 0.026 0.032 0.035 0.005 0 0.006
C20M 0.036 0.038 0.03 0.005 -0.005 -0.002
O6 0.092(6) 0.143(8) 0.181(12) 0.027(8) -0.009(6) 0.000(5)
O7 0.104(6) 0.156(8) 0.178(12) 0.054(8) -0.055(7) -0.058(6)
O8 0.121(7) 0.151(8) 0.132(9) 0.000(7) -0.013(6) 0.037(6)
O9 0.147(13) 0.082(9) 0.045(9) -0.001(7) -0.019(9) 0.001(8)
O10 0.083(8) 0.117(10) 0.093(12) -0.029(9) -0.032(8) 0.065(8)
O11 0.31(3) 0.076(9) 0.095(13) -0.019(10) 0.010(17) -0.122(13)
O14 0.160(15) 0.094(9) 0.041(8) 0.006(7) 0.023(8) -0.001(10)
O13? 0.16(2) 0.138(17) 0.087(14) 0.012(10) 0.017(13) -0.023(12)
loop_
_geom_bond_atom_site_label_1
_geom_bond_atom_site_label_2
_geom_bond_site_symmetry_1
_geom_bond_site_symmetry_2
Ni1 N1 1_555 1_555
N1 C1 1_555 1_555
N2 C10 1_555 1_555
O1 Ni1 1_555 1_555
O2 C19 1_555 1_555
O3 C20 1_555 1_555
O4 C20 1_555 1_555
O5 Ni1 1_555 1_555
H1 O5 1_555 1_555
C1 H2 1_555 1_555
C2 C1 1_555 1_555
H3 C2 1_555 1_555
C3 C2 1_555 1_555
C4 C3 1_555 1_555
H4 C4 1_555 1_555
C5 N1 1_555 1_555
H5 C5 1_555 1_555
C6 C3 1_555 1_555
H6 C6 1_555 1_555
C7 C6 1_555 1_555
H7 C7 1_555 1_555
C8 C7 1_555 1_555
C9 C8 1_555 1_555
H8 C9 1_555 1_555
C10 C9 1_555 1_555
H9 C10 1_555 1_555
C11 N2 1_555 1_555
H10 C11 1_555 1_555
C12 C8 1_555 1_555
H11 C12 1_555 1_555
C13 C14 1_555 1_555
C14 H12 1_555 1_555
C15 C14 1_555 1_555
H13 C15 1_555 1_555
C16 C15 1_555 1_555
H14 C16 1_555 1_555
C17 C16 1_555 1_555
C18 C13 1_555 1_555
H15 C18 1_555 1_555
C19 O1 1_555 1_555
C20 C17 1_555 1_555
Ni1A N1A 1_555 1_555
Ni1F N2 1_555 1_555
Ni1M O2 1_555 1_555
Ni1C O4 1_555 1_555
Ni1K N2A 1_555 1_555
Ni1B O4M 1_555 1_555
N1A C1A 1_555 1_555
N2A C10A 1_555 1_555
N2N Ni1 1_555 1_555
N2C Ni1A 1_555 1_555
O1M Ni1M 1_555 1_555
O1A Ni1A 1_555 1_555
O2M Ni1 1_555 1_555
O2L Ni1A 1_555 1_555
O3M C20M 1_555 1_555
O4M C20M 1_555 1_555
O4G Ni1 1_555 1_555
O4J Ni1A 1_555 1_555
O5A Ni1A 1_555 1_555
H1M O5 1_555 1_555
H1A O5A 1_555 1_555
H1L O5A 1_555 1_555
C1A H2A 1_555 1_555
C2A C1A 1_555 1_555
H3A C2A 1_555 1_555
C3A C2A 1_555 1_555
C4A C3A 1_555 1_555
H4A C4A 1_555 1_555
C5A N1A 1_555 1_555
H5A C5A 1_555 1_555
C6A C6 1_555 1_555
H6A C6A 1_555 1_555
C7A C7 1_555 1_555
H7A C7A 1_555 1_555
C8A C7A 1_555 1_555
C9A C8A 1_555 1_555
H8A C9A 1_555 1_555
C10A C9A 1_555 1_555
H9A C10A 1_555 1_555
C11A N2A 1_555 1_555
H10A C11A 1_555 1_555
C12A C8A 1_555 1_555
H11A C12A 1_555 1_555
C13M C14M 1_555 1_555
C14M H12M 1_555 1_555
C15M C14M 1_555 1_555
H13M C15M 1_555 1_555
C16M C15M 1_555 1_555
H14M C16M 1_555 1_555
C17M C16M 1_555 1_555
C18M C13M 1_555 1_555
H15M C18M 1_555 1_555
C19M O1M 1_555 1_555
C20M C17M 1_555 1_555
O5 Ni1M 1_555 1_555
C4 C5 1_555 1_555
C11 C12 1_555 1_555
C13 C19 1_555 1_555
C17 C18 1_555 1_555
O2M C19M 1_555 1_555
C3A C6A 1_555 1_555
C4A C5A 1_555 1_555
C6A C7A 1_555 1_555
C11A C12A 1_555 1_555
C13M C19M 1_555 1_555
C17M C18M 1_555 1_555

#END
