
#######################################################################
#
#                 Cambridge Crystallographic Data Centre
#                                CCDC 
#
#######################################################################
#
# If this CIF has been generated from an entry in the Cambridge 
# Structural Database, then it will include bibliographic, chemical, 
# crystal, experimental, refinement or atomic coordinate data resulting 
# from the CCDC's data processing and validation procedures.
#
#######################################################################

data_LUSVEB
_chemical_formula_moiety         '(C33 H26 Cu2 N2 O8)n'
_chemical_name_systematic        
catena-(tetrakis(\m~2~-benzoato)-(\m~2~-2-methylpyrazine)-di-copper(ii))
_symmetry_cell_setting           triclinic
_symmetry_space_group_name_H-M   'P -1'
_symmetry_Int_Tables_number      2
_space_group_name_Hall           '-P 1'
loop_
_symmetry_equiv_pos_site_id
_symmetry_equiv_pos_as_xyz
1 x,y,z
2 -x,-y,-z
_cell_length_a                   10.401(4)
_cell_length_b                   10.481(4)
_cell_length_c                   15.710(5)
_cell_angle_alpha                80.792(8)
_cell_angle_beta                 82.183(7)
_cell_angle_gamma                87.447(7)
_cell_volume                     1674.36
_exptl_crystal_colour            blue
_exptl_crystal_description       plate
_cell_formula_units_Z            2
loop_
_atom_site_label
_atom_site_type_symbol
_atom_site_fract_x
_atom_site_fract_y
_atom_site_fract_z
_atom_site_U_iso_or_equiv
_atom_site_thermal_displace_type
C1 C 0.4037(9) 0.7009(10) 0.5591(6) 0.0477 Uani
C2 C 0.3448(9) 0.8162(10) 0.5942(6) 0.0509 Uani
C3 C 0.3445(11) 0.9327(10) 0.5425(7) 0.0629 Uani
H1 H 0.3849 0.9419 0.4854 0.0760 Uiso
C4 C 0.2835(11) 1.0381(12) 0.5753(7) 0.0754 Uani
H2 H 0.2826 1.1182 0.5399 0.0900 Uiso
C5 C 0.2258(12) 1.0255(12) 0.6576(7) 0.0791 Uani
H3 H 0.1814 1.0958 0.6782 0.0950 Uiso
C6 C 0.2316(12) 0.9102(12) 0.7116(8) 0.0799 Uani
H4 H 0.1960 0.9033 0.7697 0.0960 Uiso
C7 C 0.2901(11) 0.8045(11) 0.6797(7) 0.0686 Uani
H5 H 0.2928 0.7252 0.7159 0.0820 Uiso
C8 C 0.7004(11) 0.5332(11) 0.5658(8) 0.0632 Uani
C9 C 0.8128(13) 0.5585(13) 0.6101(10) 0.0879 Uani
C10 C 0.8056(14) 0.5247(15) 0.6977(10) 0.1112 Uani
H6 H 0.7339 0.4786 0.7265 0.1340 Uiso
C11 C 0.9000(17) 0.5550(17) 0.7485(13) 0.1358 Uani
H7 H 0.8936 0.5317 0.8086 0.1620 Uiso
C12 C 0.9987(18) 0.6206(18) 0.7004(14) 0.1432 Uani
H8 H 1.0627 0.6434 0.7308 0.1720 Uiso
C13 C 1.0181(17) 0.6591(17) 0.6105(12) 0.1360 Uani
H9 H 1.0918 0.7019 0.5818 0.1640 Uiso
C14 C 0.9148(14) 0.6273(15) 0.5658(11) 0.1144 Uani
H10 H 0.9181 0.6540 0.5062 0.1370 Uiso
C15 C 0.1256(11) 0.0432(10) 1.1193(7) 0.0535 Uani
C16 C 0.1942(11) 0.0682(11) 1.1905(7) 0.0663 Uani
C17 C 0.1435(14) 0.0283(14) 1.2734(8) 0.1025 Uani
H11 H 0.0671 -0.0179 1.2851 0.1230 Uiso
C18 C 0.2055(15) 0.0559(16) 1.3431(9) 0.1187 Uani
H12 H 0.1734 0.0256 1.4006 0.1420 Uiso
C19 C 0.3178(14) 0.1310(15) 1.3218(9) 0.1105 Uani
H13 H 0.3607 0.1516 1.3658 0.1330 Uiso
C20 C 0.3623(13) 0.1721(13) 1.2402(8) 0.0885 Uani
H14 H 0.4377 0.2196 1.2265 0.1060 Uiso
C21 C 0.2980(12) 0.1450(12) 1.1756(7) 0.0754 Uani
H15 H 0.3271 0.1811 1.1186 0.0910 Uiso
C22 C -0.1343(10) 0.2025(10) 1.0199(6) 0.0494 Uani
C23 C -0.2113(10) 0.3226(10) 1.0348(7) 0.0589 Uani
C24 C -0.1612(12) 0.4437(11) 0.9995(7) 0.0756 Uani
H16 H -0.0806 0.4498 0.9654 0.0910 Uiso
C25 C -0.2307(13) 0.5540(12) 1.0151(8) 0.0909 Uani
H17 H -0.1964 0.6345 0.9919 0.1090 Uiso
C26 C -0.3479(14) 0.5465(13) 1.0635(9) 0.0964 Uani
H18 H -0.3937 0.6218 1.0741 0.1160 Uiso
C27 C -0.4000(14) 0.4291(13) 1.0972(9) 0.1033 Uani
H19 H -0.4820 0.4245 1.1295 0.1240 Uiso
C28 C -0.3315(12) 0.3183(12) 1.0835(8) 0.0873 Uani
H20 H -0.3669 0.2386 1.1076 0.1040 Uiso
C29 C 0.2314(9) 0.3490(9) 0.7185(6) 0.0519 Uani
H21 H 0.1906 0.4136 0.6832 0.0620 Uiso
C30 C 0.1616(9) 0.2836(9) 0.7915(6) 0.0494 Uani
H22 H 0.0749 0.3068 0.8056 0.0590 Uiso
C31 C 0.3411(9) 0.1608(9) 0.8228(6) 0.0484 Uani
C32 C 0.4125(9) 0.2267(10) 0.7503(6) 0.0521 Uani
C33 C 0.5525(15) 0.1827(18) 0.7337(11) 0.0706 Uani
H23 H 0.5649 0.1408 0.6830 0.1060 Uiso
H24 H 0.5742 0.1232 0.7830 0.1060 Uiso
H25 H 0.6074 0.2562 0.7243 0.1060 Uiso
Cu1 Cu 0.45150(11) 0.42756(11) 0.57169(7) 0.0471 Uani
Cu2 Cu 0.08352(11) 0.06888(10) 0.94358(6) 0.0396 Uani
N1 N 0.3589(7) 0.3210(7) 0.6971(5) 0.0490 Uani
N2 N 0.2146(7) 0.1871(7) 0.8431(4) 0.0429 Uani
O1 O 0.4653(6) 0.7147(6) 0.4842(4) 0.0589 Uani
O2 O 0.3835(7) 0.5922(7) 0.6050(4) 0.0625 Uani
O3 O 0.6174(7) 0.4596(8) 0.6110(5) 0.0732 Uani
O4 O 0.6983(7) 0.5819(7) 0.4891(5) 0.0704 Uani
O5 O 0.0245(7) -0.0255(7) 1.1392(4) 0.0632 Uani
O6 O 0.1698(6) 0.0887(6) 1.0442(4) 0.0584 Uani
O7 O -0.0341(6) 0.2140(6) 0.9665(4) 0.0568 Uani
O8 O -0.1775(6) 0.0974(6) 1.0615(4) 0.0503 Uani
Cu1A Cu 0.54850(11) 0.57244(11) 0.42831(7) 0.0471 Uani
Cu2A Cu -0.08352(11) -0.06888(10) 1.05642(6) 0.0396 Uani
O1A O 0.5347(6) 0.2853(6) 0.5158(4) 0.0589 Uani
O4A O 0.3017(7) 0.4181(7) 0.5109(5) 0.0704 Uani
O5A O -0.0245(7) 0.0255(7) 0.8608(4) 0.0632 Uani
O8A O 0.1775(6) -0.0974(6) 0.9385(4) 0.0503 Uani
C34? C 0.414(3) 0.083(3) 0.8801(17) 0.0732 Uani
H26? H 0.3643 0.0676 0.9368 0.1100 Uiso
H27? H 0.4926 0.1248 0.8831 0.1100 Uiso
H28? H 0.4341 0.0015 0.8598 0.1100 Uiso
loop_
_atom_site_aniso_label
_atom_site_aniso_U_11
_atom_site_aniso_U_22
_atom_site_aniso_U_33
_atom_site_aniso_U_23
_atom_site_aniso_U_13
_atom_site_aniso_U_12
C1 0.051 0.048 0.036 0.001 0.017 -0.011
C2 0.058 0.05 0.041 -0.008 0.012 -0.014
C3 0.078 0.059 0.047 -0.006 0.009 -0.011
C4 0.091 0.066 0.064 -0.009 0.006 0.001
C5 0.094 0.073 0.071 -0.032 0.01 0.001
C6 0.097 0.077 0.063 -0.025 0.019 -0.013
C7 0.085 0.065 0.054 -0.016 0.01 -0.015
C8 0.052 0.06 0.071 0.004 -0.002 0.002
C9 0.075 0.083 0.111 -0.021 -0.024 -0.001
C10 0.092 0.119 0.132 -0.024 -0.044 0.001
C11 0.119 0.144 0.155 -0.027 -0.05 -0.006
C12 0.122 0.146 0.172 -0.027 -0.05 -0.015
C13 0.108 0.133 0.176 -0.028 -0.039 -0.024
C14 0.089 0.111 0.152 -0.024 -0.039 -0.013
C15 0.063 0.057 0.039 -0.011 0.004 -0.006
C16 0.067 0.088 0.043 -0.005 -0.004 -0.019
C17 0.101 0.14 0.067 -0.003 -0.015 -0.044
C18 0.119 0.158 0.077 0.003 -0.016 -0.049
C19 0.105 0.143 0.087 -0.007 -0.023 -0.05
C20 0.085 0.11 0.07 0.001 -0.015 -0.037
C21 0.079 0.091 0.055 -0.002 -0.008 -0.025
C22 0.059 0.042 0.041 0 0.009 -0.004
C23 0.07 0.039 0.062 -0.007 0.01 0
C24 0.084 0.047 0.089 -0.007 0.008 0
C25 0.103 0.053 0.109 -0.01 0.009 0.002
C26 0.112 0.058 0.114 -0.025 0.012 0.016
C27 0.112 0.068 0.118 -0.019 0.029 0.009
C28 0.097 0.051 0.099 -0.007 0.032 0.006
C29 0.055(5) 0.045(5) 0.043(5) 0.013(4) 0.014(5) 0.002(4)
C30 0.050(5) 0.043(5) 0.041(5) 0.015(4) 0.017(4) 0.006(4)
C31 0.049(5) 0.046(5) 0.042(5) 0.002(4) 0.011(4) 0.003(4)
C32 0.051(5) 0.052(5) 0.044(5) 0.003(4) 0.014(4) 0.001(4)
C33 0.055(10) 0.069(12) 0.069(11) 0.020(9) 0.020(9) 0.008(9)
Cu1 0.0475(8) 0.0464(9) 0.0352(7) 0.0121(5) 0.0181(6) -0.0060(6)
Cu2 0.0468(8) 0.0353(8) 0.0278(7) 0.0071(5) 0.0158(6) -0.0096(6)
N1 0.049(4) 0.050(5) 0.040(4) 0.001(4) 0.017(4) -0.013(4)
N2 0.046(4) 0.037(4) 0.034(4) 0.014(3) 0.013(4) -0.001(4)
O1 0.065 0.05 0.05 0.002 0.022 -0.001
O2 0.072 0.054 0.049 0.006 0.024 -0.015
O3 0.07 0.077 0.065 0.008 -0.002 -0.009
O4 0.061 0.07 0.074 -0.004 0.009 -0.013
O5 0.075 0.064 0.044 -0.004 0.014 -0.011
O6 0.07 0.061 0.042 -0.006 0.005 -0.021
O7 0.057 0.043 0.057 0.012 0.019 -0.008
O8 0.059 0.034 0.047 0.004 0.019 0.002
Cu1A 0.0475 0.0464 0.0352 0.0121 0.0181 -0.006
Cu2A 0.0468 0.0353 0.0278 0.0071 0.0158 -0.0096
O1A 0.065(4) 0.050(4) 0.050(4) 0.002(3) 0.022(4) -0.001(4)
O4A 0.061(4) 0.070(5) 0.074(5) -0.004(4) 0.009(4) -0.013(4)
O5A 0.075(5) 0.064(5) 0.044(4) -0.004(3) 0.014(4) -0.011(4)
O8A 0.059(4) 0.034(4) 0.047(4) 0.004(3) 0.019(3) 0.002(3)
C34? 0.071(15) 0.064(15) 0.067(14) 0.012(12) 0.027(13) -0.001(13)
loop_
_geom_bond_atom_site_label_1
_geom_bond_atom_site_label_2
_geom_bond_site_symmetry_1
_geom_bond_site_symmetry_2
C1 C2 1_555 1_555
C2 C3 1_555 1_555
C3 H1 1_555 1_555
C4 C3 1_555 1_555
H2 C4 1_555 1_555
C5 C4 1_555 1_555
H3 C5 1_555 1_555
C6 C5 1_555 1_555
H4 C6 1_555 1_555
C7 C2 1_555 1_555
H5 C7 1_555 1_555
C8 C9 1_555 1_555
C9 C10 1_555 1_555
C10 H6 1_555 1_555
C11 C10 1_555 1_555
H7 C11 1_555 1_555
C12 C11 1_555 1_555
H8 C12 1_555 1_555
C13 C12 1_555 1_555
H9 C13 1_555 1_555
C14 C9 1_555 1_555
H10 C14 1_555 1_555
C15 C16 1_555 1_555
C16 C17 1_555 1_555
C17 H11 1_555 1_555
C18 C17 1_555 1_555
H12 C18 1_555 1_555
C19 C18 1_555 1_555
H13 C19 1_555 1_555
C20 C19 1_555 1_555
H14 C20 1_555 1_555
C21 C16 1_555 1_555
H15 C21 1_555 1_555
C22 C23 1_555 1_555
C23 C24 1_555 1_555
C24 H16 1_555 1_555
C25 C24 1_555 1_555
H17 C25 1_555 1_555
C26 C25 1_555 1_555
H18 C26 1_555 1_555
C27 C26 1_555 1_555
H19 C27 1_555 1_555
C28 C23 1_555 1_555
H20 C28 1_555 1_555
C29 H21 1_555 1_555
C30 C29 1_555 1_555
H22 C30 1_555 1_555
C31 C32 1_555 1_555
C32 C33 1_555 1_555
C33 H23 1_555 1_555
H24 C33 1_555 1_555
H25 C33 1_555 1_555
Cu1 N1 1_555 1_555
Cu2 N2 1_555 1_555
N1 C29 1_555 1_555
N2 C30 1_555 1_555
O1 C1 1_555 1_555
O2 C1 1_555 1_555
O3 C8 1_555 1_555
O4 C8 1_555 1_555
O5 C15 1_555 1_555
O6 C15 1_555 1_555
O7 C22 1_555 1_555
O8 C22 1_555 1_555
Cu1A Cu1 1_555 1_555
Cu2A Cu2 1_555 1_555
O1A Cu1 1_555 1_555
O4A Cu1 1_555 1_555
O5A Cu2 1_555 1_555
O8A Cu2 1_555 1_555
C6 C7 1_555 1_555
C13 C14 1_555 1_555
C20 C21 1_555 1_555
C27 C28 1_555 1_555
C31 N2 1_555 1_555
C32 N1 1_555 1_555
Cu1 O2 1_555 1_555
Cu1 O3 1_555 1_555
Cu2 O6 1_555 1_555
Cu2 O7 1_555 1_555
O1 Cu1A 1_555 1_555
O4 Cu1A 1_555 1_555
O5 Cu2A 1_555 1_555
O8 Cu2A 1_555 1_555

#END
