
#######################################################################
#
#                 Cambridge Crystallographic Data Centre
#                                CCDC 
#
#######################################################################
#
# If this CIF has been generated from an entry in the Cambridge 
# Structural Database, then it will include bibliographic, chemical, 
# crystal, experimental, refinement or atomic coordinate data resulting 
# from the CCDC's data processing and validation procedures.
#
#######################################################################

data_LITKOP01
_chemical_formula_moiety         '(C22 H16 Cu1 F6 N4 O6 S2)n,n(C1 H4 O1)'
_chemical_name_systematic        
"catena-[bis(\m~2~-4,4'-Bipyridine-N,N')-bis(trifluoromethanesulfonato-O)-copper(ii) methanol solvate]"
_symmetry_cell_setting           monoclinic
_symmetry_space_group_name_H-M   'C 2/c'
_symmetry_Int_Tables_number      15
_space_group_name_Hall           '-C 2yc'
loop_
_symmetry_equiv_pos_site_id
_symmetry_equiv_pos_as_xyz
1 x,y,z
2 1/2+x,1/2+y,z
3 -x,y,1/2-z
4 1/2-x,1/2+y,1/2-z
5 -x,-y,-z
6 1/2-x,1/2-y,-z
7 x,-y,1/2+z
8 1/2+x,1/2-y,1/2+z
_cell_length_a                   27.08(2)
_cell_length_b                   15.096(14)
_cell_length_c                   16.136(15)
_cell_angle_alpha                90
_cell_angle_beta                 111.344(11)
_cell_angle_gamma                90
_cell_volume                     6143.96
_exptl_crystal_colour            blue
_exptl_crystal_description       plate
_cell_formula_units_Z            8
loop_
_atom_site_label
_atom_site_type_symbol
_atom_site_fract_x
_atom_site_fract_y
_atom_site_fract_z
S1 S 0.7619(2) 0.2559(4) 0.2273(4)
O1 O 0.7105(3) 0.2341(5) 0.1699(5)
O2 O 0.7821(7) 0.3399(8) 0.2209(11)
O3 O 0.7716(8) 0.2337(12) 0.3165(8)
C1 C 0.8015(8) 0.1739(14) 0.1993(13)
F1 F 0.7837(8) 0.0960(12) 0.1996(13)
F2 F 0.8511(8) 0.1724(15) 0.2435(13)
F3 F 0.7945(8) 0.1945(15) 0.1190(13)
S3 S 0.4699(2) 0.2609(4) 0.0491(5)
O5 O 0.5227(3) 0.2643(6) 0.0518(6)
O6 O 0.4454(6) 0.1784(8) 0.0209(10)
O7 O 0.4613(7) 0.2910(12) 0.1253(9)
C2 C 0.4344(7) 0.3452(15) -0.0284(14)
F4 F 0.4562(6) 0.4186(12) 0.0026(11)
F5 F 0.4391(8) 0.3331(14) -0.1034(12)
F6 F 0.3851(6) 0.3505(11) -0.0412(11)
Cu1 Cu 0.61637(6) 0.24974(10) 0.10907(9)
N1 N 0.6095(4) 0.1530(6) 0.1893(6)
C3 C 0.5789(5) 0.1616(8) 0.2389(8)
H1 H 0.5571 0.2110 0.2298
C4 C 0.5785(5) 0.1022(8) 0.3004(8)
H2 H 0.5568 0.1115 0.3330
C5 C 0.6098(5) 0.0273(8) 0.3160(8)
C6 C 0.6429(6) 0.0190(10) 0.2657(9)
H3 H 0.6650 -0.0300 0.2735
C7 C 0.6423(5) 0.0811(8) 0.2076(8)
H4 H 0.6655 0.0755 0.1774
N2 N 0.6127(4) -0.1598(6) 0.5131(6)
C8 C 0.5727(6) -0.1028(9) 0.4825(9)
H5 H 0.5459 -0.1040 0.5059
C9 C 0.5700(6) -0.0438(9) 0.4188(9)
H6 H 0.5405 -0.0068 0.3969
C10 C 0.6101(5) -0.0367(8) 0.3849(8)
C11 C 0.6538(6) -0.0922(9) 0.4243(9)
H7 H 0.6831 -0.0886 0.4074
C12 C 0.6532(6) -0.1517(9) 0.4878(9)
H8 H 0.6827 -0.1877 0.5140
N3 N 0.6212(4) 0.3437(7) 0.1996(7)
C13 C 0.6543(5) 0.3343(9) 0.2868(9)
H9 H 0.6771 0.2860 0.3030
C14 C 0.6545(5) 0.3929(8) 0.3487(9)
H10 H 0.6772 0.3842 0.4073
C15 C 0.6224(5) 0.4651(8) 0.3283(9)
C16 C 0.5867(6) 0.4717(11) 0.2408(10)
H11 H 0.5615 0.5165 0.2240
C17 C 0.5898(5) 0.4107(8) 0.1805(9)
H12 H 0.5677 0.4182 0.1214
N4 N 0.6197(4) 0.6549(6) 0.5234(7)
C18 C 0.5808(5) 0.6511(9) 0.4446(9)
H13 H 0.5528 0.6908 0.4322
C19 C 0.5803(6) 0.5900(9) 0.3798(10)
H14 H 0.5520 0.5894 0.3256
C20 C 0.6207(5) 0.5311(8) 0.3948(8)
C21 C 0.6619(6) 0.5345(9) 0.4813(9)
H15 H 0.6906 0.4960 0.4969
C22 C 0.6572(5) 0.5959(8) 0.5390(9)
H16 H 0.6833 0.5960 0.5956
Cu1F Cu 0.61637(6) -0.24974(10) 0.60907(9)
Cu1F_2 Cu 0.61637(6) 0.75026(10) 0.60907(9)
N2F N 0.6127(4) 0.1598(6) 0.0131(6)
N4F N 0.6197(4) 0.3451(6) 0.0234(7)
S2? S 0.7618(4) 0.2600(9) 0.1788(13)
O4? O 0.776(3) 0.263(5) 0.104(3)
S4? S 0.4713(5) 0.2457(13) -0.0069(11)
O8? O 0.458(2) 0.247(4) -0.0997(14)
loop_
_geom_bond_atom_site_label_1
_geom_bond_atom_site_label_2
_geom_bond_site_symmetry_1
_geom_bond_site_symmetry_2
S1 O1 1_555 1_555
O1 Cu1 1_555 1_555
O2 S1 1_555 1_555
O3 S1 1_555 1_555
C1 S1 1_555 1_555
F1 C1 1_555 1_555
F2 C1 1_555 1_555
F3 C1 1_555 1_555
S3 O5 1_555 1_555
O5 Cu1 1_555 1_555
O6 S3 1_555 1_555
O7 S3 1_555 1_555
C2 S3 1_555 1_555
F4 C2 1_555 1_555
F5 C2 1_555 1_555
F6 C2 1_555 1_555
Cu1 N1 1_555 1_555
N1 C3 1_555 1_555
C3 H1 1_555 1_555
C4 C3 1_555 1_555
H2 C4 1_555 1_555
C5 C4 1_555 1_555
C6 C5 1_555 1_555
H3 C6 1_555 1_555
C7 N1 1_555 1_555
H4 C7 1_555 1_555
N2 C8 1_555 1_555
C8 H5 1_555 1_555
C9 C8 1_555 1_555
H6 C9 1_555 1_555
C10 C5 1_555 1_555
C11 C10 1_555 1_555
H7 C11 1_555 1_555
C12 N2 1_555 1_555
H8 C12 1_555 1_555
N3 Cu1 1_555 1_555
C13 N3 1_555 1_555
H9 C13 1_555 1_555
C14 C13 1_555 1_555
H10 C14 1_555 1_555
C15 C14 1_555 1_555
C16 C15 1_555 1_555
H11 C16 1_555 1_555
C17 N3 1_555 1_555
H12 C17 1_555 1_555
N4 C18 1_555 1_555
C18 H13 1_555 1_555
C19 C18 1_555 1_555
H14 C19 1_555 1_555
C20 C15 1_555 1_555
C21 C20 1_555 1_555
H15 C21 1_555 1_555
C22 N4 1_555 1_555
H16 C22 1_555 1_555
Cu1F N2 1_555 1_555
Cu1F_2 N4 1_555 1_555
N2F Cu1 1_555 1_555
N4F Cu1 1_555 1_555
C6 C7 1_555 1_555
C9 C10 1_555 1_555
C11 C12 1_555 1_555
C16 C17 1_555 1_555
C19 C20 1_555 1_555
C21 C22 1_555 1_555

#END
