
#######################################################################
#
#                 Cambridge Crystallographic Data Centre
#                                CCDC 
#
#######################################################################
#
# If this CIF has been generated from an entry in the Cambridge 
# Structural Database, then it will include bibliographic, chemical, 
# crystal, experimental, refinement or atomic coordinate data resulting 
# from the CCDC's data processing and validation procedures.
#
#######################################################################

data_LITKOP
_chemical_formula_moiety         '(C22 H16 Cu1 F6 N4 O6 S2)n,n(C1 H4 O1)'
_chemical_name_systematic        
"catena-[bis(\m~2~-4,4'-Bipyridine-N,N')-bis(trifluoromethanesulfonato-O)-copper(ii) methanol solvate]"
_symmetry_cell_setting           orthorhombic
_symmetry_space_group_name_H-M   'P b c n'
_symmetry_Int_Tables_number      60
_space_group_name_Hall           '-P 2n 2ab'
loop_
_symmetry_equiv_pos_site_id
_symmetry_equiv_pos_as_xyz
1 x,y,z
2 1/2-x,1/2-y,1/2+z
3 1/2+x,1/2-y,-z
4 -x,y,1/2-z
5 -x,-y,-z
6 1/2+x,1/2+y,1/2-z
7 1/2-x,1/2+y,z
8 x,-y,1/2+z
_cell_length_a                   15.319(3)
_cell_length_b                   16.158(3)
_cell_length_c                   13.688(3)
_cell_angle_alpha                90
_cell_angle_beta                 90
_cell_angle_gamma                90
_cell_volume                     3388.11
_exptl_crystal_colour            blue
_exptl_crystal_description       cube
_cell_formula_units_Z            4
_chemical_properties_physical    air-sensitive
loop_
_atom_site_label
_atom_site_type_symbol
_atom_site_fract_x
_atom_site_fract_y
_atom_site_fract_z
Cu1 Cu 0.5000 0.809904(17) 0.7500
C1 C 0.91297(12) 1.15661(11) 0.81714(15)
H1 H 0.9610 1.1538 0.8586
C2 C 0.78011(11) 1.09591(11) 0.75910(13)
C3 C 0.59682(13) 0.95502(11) 0.68170(15)
H2 H 0.5582 0.9501 0.6296
C4 C 0.71502(12) 1.02809(11) 0.75799(13)
C5 C 0.77261(12) 1.16433(11) 0.69750(14)
H3 H 0.7248 1.1691 0.6560
C6 C 0.65678(13) 1.01887(12) 0.68069(15)
H4 H 0.6582 1.0556 0.6285
C7 C 0.64825(12) 0.90793(11) 0.82900(14)
H5 H 0.6459 0.8697 0.8798
C8 C 0.83594(12) 1.22469(11) 0.69804(14)
H6 H 0.8299 1.2695 0.6559
C9 C 0.85217(12) 1.09358(11) 0.82070(15)
H7 H 0.8594 1.0498 0.8641
C10 C 0.70942(12) 0.97056(12) 0.83342(14)
H8 H 0.7468 0.9743 0.8867
N1 N 0.59205(10) 0.89994(9) 0.75449(11)
N2 N 0.90610(10) 1.22168(9) 0.75687(11)
O1 O 0.47293(19) 0.69714(15) 1.0367(2)
O2 O 0.58640(13) 0.79758(15) 1.06030(16)
O3 O 0.48839(10) 0.80762(9) 0.92320(12)
F1 F 0.45053(17) 0.92376(15) 1.0789(2)
F2 F 0.34696(11) 0.83466(15) 1.05820(15)
F3 F 0.42675(18) 0.82170(19) 1.18400(14)
S1 S 0.50322(4) 0.77971(5) 1.01992(4)
C11 C 0.4283(2) 0.8445(3) 1.0894(2)
Cu1E Cu 1.0000 1.309904(17) 0.7500
Cu1E_2 Cu 0.0000 1.309904(17) 0.7500
C1C C 0.08703(12) 1.15661(11) 0.68286(15)
H1C H 0.0390 1.1538 0.6414
C2C C 0.21989(11) 1.09591(11) 0.74090(13)
C3C C 0.40318(13) 0.95502(11) 0.81830(15)
H2C H 0.4418 0.9501 0.8704
C4C C 0.28498(12) 1.02809(11) 0.74201(13)
C5C C 0.22739(12) 1.16433(11) 0.80250(14)
H3C H 0.2752 1.1691 0.8440
C6C C 0.34322(13) 1.01887(12) 0.81931(15)
H4C H 0.3418 1.0556 0.8715
C7C C 0.35175(12) 0.90793(11) 0.67100(14)
H5C H 0.3541 0.8697 0.6202
C8C C 0.16406(12) 1.22469(11) 0.80196(14)
H6C H 0.1701 1.2695 0.8441
C9C C 0.14783(12) 1.09358(11) 0.67930(15)
H7C H 0.1406 1.0498 0.6359
C10C C 0.29058(12) 0.97056(12) 0.66658(14)
H8C H 0.2532 0.9743 0.6133
N1C N 0.40795(10) 0.89994(9) 0.74551(11)
N2C N 0.09390(10) 1.22168(9) 0.74313(11)
N2E N 0.40610(10) 0.72168(9) 0.74313(11)
N2F N 0.59390(10) 0.72168(9) 0.75687(11)
O1C O 0.52707(19) 0.69714(15) 0.4633(2)
O2C O 0.41360(13) 0.79758(15) 0.43970(16)
O3C O 0.51161(10) 0.80762(9) 0.57680(12)
F1C F 0.54947(17) 0.92376(15) 0.4211(2)
F2C F 0.65304(11) 0.83466(15) 0.44180(15)
F3C F 0.57325(18) 0.82170(19) 0.31600(14)
S1C S 0.49678(4) 0.77971(5) 0.48008(4)
C11C C 0.5717(2) 0.8445(3) 0.4106(2)
S2? S 0.5042(2) 0.8301(3) 1.0272(3)
F4? F 0.4056(9) 0.7109(6) 1.0905(9)
C12? C 0.4114(7) 0.7913(7) 1.0958(8)
O4? O 0.4995(8) 0.9186(6) 1.0382(9)
loop_
_geom_bond_atom_site_label_1
_geom_bond_atom_site_label_2
_geom_bond_site_symmetry_1
_geom_bond_site_symmetry_2
Cu1 N1 1_555 1_555
C1 H1 1_555 1_555
C2 C4 1_555 1_555
C3 H2 1_555 1_555
C4 C6 1_555 1_555
C5 C2 1_555 1_555
H3 C5 1_555 1_555
C6 C3 1_555 1_555
H4 C6 1_555 1_555
C7 H5 1_555 1_555
C8 C5 1_555 1_555
H6 C8 1_555 1_555
C9 C1 1_555 1_555
H7 C9 1_555 1_555
C10 C4 1_555 1_555
H8 C10 1_555 1_555
N1 C3 1_555 1_555
N2 C1 1_555 1_555
O1 S1 1_555 1_555
O2 S1 1_555 1_555
O3 Cu1 1_555 1_555
F1 C11 1_555 1_555
F2 C11 1_555 1_555
F3 C11 1_555 1_555
S1 O3 1_555 1_555
C11 S1 1_555 1_555
Cu1E N2 1_555 1_555
Cu1E_2 N2C 1_555 1_555
C1C H1C 1_555 1_555
C2C C4C 1_555 1_555
C3C H2C 1_555 1_555
C4C C6C 1_555 1_555
C5C C2C 1_555 1_555
H3C C5C 1_555 1_555
C6C C3C 1_555 1_555
H4C C6C 1_555 1_555
C7C H5C 1_555 1_555
C8C C5C 1_555 1_555
H6C C8C 1_555 1_555
C9C C1C 1_555 1_555
H7C C9C 1_555 1_555
C10C C4C 1_555 1_555
H8C C10C 1_555 1_555
N1C Cu1 1_555 1_555
N2C C1C 1_555 1_555
N2E Cu1 1_555 1_555
N2F Cu1 1_555 1_555
O1C S1C 1_555 1_555
O2C S1C 1_555 1_555
O3C Cu1 1_555 1_555
F1C C11C 1_555 1_555
F2C C11C 1_555 1_555
F3C C11C 1_555 1_555
S1C O3C 1_555 1_555
C11C S1C 1_555 1_555
C2 C9 1_555 1_555
C7 C10 1_555 1_555
C7 N1 1_555 1_555
C8 N2 1_555 1_555
C2C C9C 1_555 1_555
C3C N1C 1_555 1_555
C7C C10C 1_555 1_555
C7C N1C 1_555 1_555
C8C N2C 1_555 1_555

#END
