
#######################################################################
#
#                 Cambridge Crystallographic Data Centre
#                                CCDC 
#
#######################################################################
#
# If this CIF has been generated from an entry in the Cambridge 
# Structural Database, then it will include bibliographic, chemical, 
# crystal, experimental, refinement or atomic coordinate data resulting 
# from the CCDC's data processing and validation procedures.
#
#######################################################################

data_PUBSAH
_chemical_formula_moiety         
'(C22 H12 Cu2 F2 O10)n,2n(C3 H7 N1 O1),n(C4 H8 O2),4n(H2 O1)'
_chemical_name_systematic        
"catena-[(\m~8~-2',5'-Difluoro-1,1':4',1''-terphenyl-3,3'',5,5''-tetracarboxylato)-diaqua-di-copper(ii) dimethylformamide 1,4-dioxane solvate tetrahydrate]"
_symmetry_cell_setting           rhombohedral
_symmetry_space_group_name_H-M   'R -3 m'
_symmetry_Int_Tables_number      166
_space_group_name_Hall           '-R 3 2"'
loop_
_symmetry_equiv_pos_site_id
_symmetry_equiv_pos_as_xyz
1 x,y,z
2 -y,x-y,z
3 -x+y,-x,z
4 y,x,-z
5 -x,-x+y,-z
6 x-y,-y,-z
7 2/3+x,1/3+y,1/3+z
8 2/3-y,1/3+x-y,1/3+z
9 2/3-x+y,1/3-x,1/3+z
10 2/3+y,1/3+x,1/3-z
11 2/3-x,1/3-x+y,1/3-z
12 2/3+x-y,1/3-y,1/3-z
13 1/3+x,2/3+y,2/3+z
14 1/3-y,2/3+x-y,2/3+z
15 1/3-x+y,2/3-x,2/3+z
16 1/3+y,2/3+x,2/3-z
17 1/3-x,2/3-x+y,2/3-z
18 1/3+x-y,2/3-y,2/3-z
19 -x,-y,-z
20 y,-x+y,-z
21 x-y,x,-z
22 -y,-x,z
23 x,x-y,z
24 -x+y,y,z
25 1/3-x,2/3-y,2/3-z
26 1/3+y,2/3-x+y,2/3-z
27 1/3+x-y,2/3+x,2/3-z
28 1/3-y,2/3-x,2/3+z
29 1/3+x,2/3+x-y,2/3+z
30 1/3-x+y,2/3+y,2/3+z
31 2/3-x,1/3-y,1/3-z
32 2/3+y,1/3-x+y,1/3-z
33 2/3+x-y,1/3+x,1/3-z
34 2/3-y,1/3-x,1/3+z
35 2/3+x,1/3+x-y,1/3+z
36 2/3-x+y,1/3+y,1/3+z
_cell_length_a                   18.5944(19)
_cell_length_b                   18.5944(19)
_cell_length_c                   38.671(4)
_cell_angle_alpha                90
_cell_angle_beta                 90
_cell_angle_gamma                120
_cell_volume                     11579.2
_exptl_crystal_colour            green
_exptl_crystal_description       block
_cell_formula_units_Z            9
loop_
_atom_site_label
_atom_site_type_symbol
_atom_site_fract_x
_atom_site_fract_y
_atom_site_fract_z
Cu1 Cu -0.142850(23) 0.14285(2) -0.361426(9)
F1 F 0.2947(4) 0.4116(2) -0.21160(8)
C1 C 0.1805(6) 0.2717(4) -0.17839(14)
H1 H 0.1909 0.2289 -0.1856
C2 C 0.2289(7) 0.3701(4) -0.18933(14)
C3 C 0.15423(45) 0.3085(3) -0.20171(9)
C4 C 0.13992(30) 0.2799(2) -0.23830(9)
C5 C 0.06851(23) 0.26567(17) -0.25547(6)
H2 H 0.0296 0.2767 -0.2441
C6 C 0.05330(22) 0.23537(16) -0.28916(6)
C7 C 0.11045(30) 0.2209(2) -0.30612(9)
H3 H 0.1006 0.2012 -0.3292
C8 C -0.02628(21) 0.21449(15) -0.30634(6)
O1 O -0.1064(2) 0.10644(23) -0.40721(9)
O2 O -0.03797(11) 0.18460(19) -0.33655(4)
O3 O -0.07809(11) 0.22528(19) -0.28932(4)
Cu1B Cu 0.285700(30) 0.142850(23) -0.361426(9)
Cu1I Cu -0.19048(2) 0.190483(23) -0.305241(9)
Cu1K Cu 0.380967(30) 0.19048(2) -0.305241(9)
Cu1O Cu 0.47618(2) 0.523817(23) 0.028093(9)
Cu1F Cu 0.523817(23) 0.47618(2) -0.028093(9)
Cu1Q Cu 0.047633(30) 0.52382(2) 0.028093(9)
Cu1H Cu -0.047633(30) 0.476183(23) -0.028093(9)
F1W F 0.1169(4) 0.4116(2) -0.21160(8)
F1Q F 0.2164(4) 0.2551(2) -0.12173(8)
F1X F 0.0386(4) 0.2551(2) -0.12173(8)
C1Q C 0.2421(7) 0.3950(4) -0.15494(14)
C1X C 0.1528(6) 0.3950(4) -0.15494(14)
C1W C 0.0912(7) 0.2717(4) -0.17839(14)
H1X H 0.1424 0.4378 -0.1477
H1Q H 0.2953 0.4378 -0.1477
H1W H 0.0380 0.2289 -0.1856
C2W C 0.1412(8) 0.3701(4) -0.18933(14)
C2Q C 0.1921(8) 0.2966(4) -0.14400(14)
C2X C 0.1044(7) 0.2966(4) -0.14400(14)
C3Q C 0.17906(54) 0.3582(3) -0.13162(9)
C4Q C 0.19335(36) 0.3868(2) -0.09503(9)
C5W C 0.19716(29) 0.26567(17) -0.25547(6)
C5Q C 0.13617(29) 0.40100(17) -0.07786(6)
C5X C 0.26482(23) 0.40100(17) -0.07786(6)
H2W H 0.2471 0.2767 -0.2441
H2Q H 0.0862 0.3900 -0.0892
H2X H 0.3037 0.3900 -0.0892
C6W C 0.18207(27) 0.23537(16) -0.28916(6)
C6Q C 0.15126(27) 0.43130(16) -0.04417(6)
C6X C 0.28003(22) 0.43130(16) -0.04417(6)
C7Q C 0.22288(36) 0.4458(2) -0.02721(9)
H3Q H 0.2327 0.4655 -0.0041
C8W C 0.24077(26) 0.21449(15) -0.30634(6)
C8X C 0.35961(21) 0.45218(15) -0.02699(6)
C8Q C 0.09256(26) 0.45218(15) -0.02699(6)
O1W O 0.21284(30) 0.10644(23) -0.40721(9)
O2W O 0.22257(22) 0.18460(19) -0.33655(4)
O2X O 0.37130(11) 0.48207(19) 0.00322(4)
O2Q O 0.11076(22) 0.48207(19) 0.00322(4)
O2U O -0.18460(19) 0.03797(11) -0.33655(4)
O2B O 0.22257(22) 0.03797(11) -0.33655(4)
O3W O 0.30337(22) 0.22528(19) -0.28932(4)
O3X O 0.41142(11) 0.44139(19) -0.04401(4)
O3Q O 0.02996(22) 0.44139(19) -0.04401(4)
O3I O -0.10805(19) 0.25524(11) -0.37735(4)
O3DA O -0.25524(11) 0.10805(19) -0.37735(4)
O3FA O 0.36330(22) 0.25524(11) -0.37735(4)
O3K O 0.36330(22) 0.10805(19) -0.37735(4)
loop_
_geom_bond_atom_site_label_1
_geom_bond_atom_site_label_2
_geom_bond_site_symmetry_1
_geom_bond_site_symmetry_2
Cu1 O1 1_555 1_555
F1 C2 1_555 1_555
C1 H1 1_555 1_555
C2 C1 1_555 1_555
C3 C1 1_555 1_555
C4 C3 1_555 1_555
C5 C4 1_555 1_555
H2 C5 1_555 1_555
C6 C5 1_555 1_555
C7 C6 1_555 1_555
H3 C7 1_555 1_555
C8 C6 1_555 1_555
O2 Cu1 1_555 1_555
O3 C8 1_555 1_555
Cu1B O1W 1_555 1_555
Cu1I O3 1_555 1_555
Cu1K O3W 1_555 1_555
Cu1O O2X 1_555 1_555
Cu1F O3X 1_555 1_555
Cu1Q O2Q 1_555 1_555
Cu1H O3Q 1_555 1_555
F1W C2W 1_555 1_555
F1Q C2Q 1_555 1_555
F1X C2X 1_555 1_555
C1Q C2 1_555 1_555
C1X C1Q 1_555 1_555
C1W C1 1_555 1_555
H1X C1X 1_555 1_555
H1Q C1Q 1_555 1_555
H1W C1W 1_555 1_555
C2W C2 1_555 1_555
C2Q C1 1_555 1_555
C2X C1X 1_555 1_555
C3Q C1Q 1_555 1_555
C4Q C3Q 1_555 1_555
C5W C4 1_555 1_555
C5Q C4Q 1_555 1_555
C5X C4Q 1_555 1_555
H2W C5W 1_555 1_555
H2Q C5Q 1_555 1_555
H2X C5X 1_555 1_555
C6W C7 1_555 1_555
C6Q C5Q 1_555 1_555
C6X C5X 1_555 1_555
C7Q C6Q 1_555 1_555
H3Q C7Q 1_555 1_555
C8W C6W 1_555 1_555
C8X C6X 1_555 1_555
C8Q C6Q 1_555 1_555
O2W Cu1B 1_555 1_555
O2X C8X 1_555 1_555
O2Q C8Q 1_555 1_555
O2U Cu1 1_555 1_555
O2B Cu1B 1_555 1_555
O3W C8W 1_555 1_555
O3X C8X 1_555 1_555
O3Q C8Q 1_555 1_555
O3I Cu1 1_555 1_555
O3DA Cu1 1_555 1_555
O3FA Cu1B 1_555 1_555
O3K Cu1B 1_555 1_555
C2 C3 1_555 1_555
C3 C1W 1_555 1_555
C3 C2W 1_555 1_555
C8 O2 1_555 1_555
C1Q C2Q 1_555 1_555
C1X C2W 1_555 1_555
C1X C3Q 1_555 1_555
C1W C2W 1_555 1_555
C1W C2X 1_555 1_555
C2Q C2X 1_555 1_555
C2Q C3Q 1_555 1_555
C2X C3Q 1_555 1_555
C5W C6W 1_555 1_555
C6X C7Q 1_555 1_555
C8W O2W 1_555 1_555

#END
