
#######################################################################
#
#                 Cambridge Crystallographic Data Centre
#                                CCDC 
#
#######################################################################
#
# If this CIF has been generated from an entry in the Cambridge 
# Structural Database, then it will include bibliographic, chemical, 
# crystal, experimental, refinement or atomic coordinate data resulting 
# from the CCDC's data processing and validation procedures.
#
#######################################################################

data_PUBSOV
_chemical_formula_moiety         '(C26 H16 Cu2 O10)n,6n(C3 H7 N1 O1),4n(H2 O1)'
_chemical_name_systematic        
'catena-[(\m~8~-Naphthalene-1,4-diyl-bis(benzene-3,5-dicarboxylato))-diaqua-di-copper(ii) dimethylformamide solvate tetrahydrate]'
_symmetry_cell_setting           tetragonal
_symmetry_space_group_name_H-M   'I 4/m m m'
_symmetry_Int_Tables_number      139
_space_group_name_Hall           '-I 4 2'
loop_
_symmetry_equiv_pos_site_id
_symmetry_equiv_pos_as_xyz
1 x,y,z
2 -y,x,z
3 -x,-y,z
4 y,-x,z
5 x,-y,-z
6 -x,y,-z
7 y,x,-z
8 -y,-x,-z
9 1/2+x,1/2+y,1/2+z
10 1/2-y,1/2+x,1/2+z
11 1/2-x,1/2-y,1/2+z
12 1/2+y,1/2-x,1/2+z
13 1/2+x,1/2-y,1/2-z
14 1/2-x,1/2+y,1/2-z
15 1/2+y,1/2+x,1/2-z
16 1/2-y,1/2-x,1/2-z
17 -x,-y,-z
18 y,-x,-z
19 x,y,-z
20 -y,x,-z
21 -x,y,z
22 x,-y,z
23 -y,-x,z
24 y,x,z
25 1/2-x,1/2-y,1/2-z
26 1/2+y,1/2-x,1/2-z
27 1/2+x,1/2+y,1/2-z
28 1/2-y,1/2+x,1/2-z
29 1/2-x,1/2+y,1/2+z
30 1/2+x,1/2-y,1/2+z
31 1/2-y,1/2-x,1/2+z
32 1/2+y,1/2+x,1/2+z
_cell_length_a                   18.852(3)
_cell_length_b                   18.852(3)
_cell_length_c                   27.417(6)
_cell_angle_alpha                90
_cell_angle_beta                 90
_cell_angle_gamma                90
_cell_volume                     9743.94
_exptl_crystal_colour            blue
_exptl_crystal_description       column
_cell_formula_units_Z            8
loop_
_atom_site_label
_atom_site_type_symbol
_atom_site_fract_x
_atom_site_fract_y
_atom_site_fract_z
_atom_site_U_iso_or_equiv
_atom_site_thermal_displace_type
Cu1 Cu 0.28240(4) 0.71760(4) -0.21312(3) 0.0601 Uani
O1 O 0.3343(3) 0.6657(3) -0.1535(2) 0.1037 Uani
O2 O 0.1882(3) 0.7118(3) -0.18561(15) 0.0820 Uani
O3 O 0.1322(2) 0.7635(3) -0.24878(15) 0.0763 Uani
C1 C 0.1346(4) 0.7360(5) -0.2061(3) 0.0780 Uani
C2 C 0.0000 0.7354(6) -0.2042(4) 0.0840 Uani
H1 H 0.0000 0.7453 -0.2382 0.1010 Uiso
C3 C 0.0641(3) 0.7286(4) -0.1812(2) 0.0770 Uani
C4 C 0.0629(4) 0.7175(5) -0.1313(2) 0.1017 Uani
H2 H 0.1063 0.7130 -0.1141 0.1220 Uiso
C5 C 0.0000 0.7128(8) -0.1064(3) 0.1247 Uani
C6 C 0.0000 0.7150(8) -0.0495(4) 0.1310 Uani
C7 C -0.0280(9) 0.6563(9) -0.0256(2) 0.1260 Uiso
C8 C -0.0566(16) 0.5917(12) -0.0487(2) 0.1200 Uiso
C9 C -0.0868(18) 0.5284(12) -0.0253(2) 0.1800 Uiso
C10 C 0.0285(9) 0.7766(9) -0.0294(7) 0.1550 Uiso
C11 C 0.0451(16) 0.8429(11) -0.0493(2) 0.1560 Uiso
C12 C 0.0735(15) 0.9007(10) -0.0248(2) 0.1500 Uiso
O4 O -0.0672(12) 0.5000 0.0000 0.0340 Uiso
Cu1N Cu 0.21760(4) 0.78240(4) -0.28688(3) 0.0601 Uani
O1N O 0.1657(3) 0.8343(3) -0.3465(2) 0.1037 Uani
O2V O 0.2882(3) 0.8118(3) -0.18561(15) 0.0820 Uani
O2N O 0.2118(3) 0.6882(3) -0.31439(15) 0.0820 Uani
O2X O 0.3118(3) 0.7882(3) -0.31439(15) 0.0820 Uani
O3N O 0.2635(3) 0.6322(2) -0.25122(15) 0.0763 Uani
O3X O 0.3678(2) 0.7365(3) -0.25122(15) 0.0763 Uani
O3V O 0.2365(3) 0.8678(2) -0.24878(15) 0.0763 Uani
C1T C -0.1346(4) 0.7360(5) -0.2061(3) 0.0780 Uani
C3T C -0.0641(3) 0.7286(4) -0.1812(2) 0.0770 Uani
C4T C -0.0629(4) 0.7175(5) -0.1313(2) 0.1017 Uani
H2T H -0.1063 0.7130 -0.1141 0.1220 Uiso
C6E C 0.0000 0.7150(8) 0.0495(4) 0.1310 Uani
C7T C 0.0280(9) 0.6563(9) -0.0256(2) 0.1260 Uiso
C7E C 0.0280(9) 0.6563(9) 0.0256(2) 0.1260 Uiso
C7R C -0.0280(9) 0.6563(9) 0.0256(2) 0.1260 Uiso
C8T C 0.0566(16) 0.5917(12) -0.0487(2) 0.1200 Uiso
C8E C 0.0566(16) 0.5917(12) 0.0487(2) 0.1200 Uiso
C8R C -0.0566(16) 0.5917(12) 0.0487(2) 0.1200 Uiso
C8D C -0.0566(16) 0.4083(12) 0.0487(2) 0.1200 Uiso
C8U C -0.0566(16) 0.4083(12) -0.0487(2) 0.1200 Uiso
C9D C -0.0868(18) 0.4716(12) 0.0253(2) 0.1800 Uiso
C9R C -0.0868(18) 0.5284(12) 0.0253(2) 0.1800 Uiso
C9U C -0.0868(18) 0.4716(12) -0.0253(2) 0.1800 Uiso
C10T C -0.0285(9) 0.7766(9) -0.0294(7) 0.1550 Uiso
C10R C 0.0285(9) 0.7766(9) 0.0294(7) 0.1550 Uiso
C10E C -0.0285(9) 0.7766(9) 0.0294(7) 0.1550 Uiso
C11T C -0.0451(16) 0.8429(11) -0.0493(2) 0.1560 Uiso
C11R C 0.0451(16) 0.8429(11) 0.0493(2) 0.1560 Uiso
C11G C 0.1571(11) 0.9549(16) 0.0493(2) 0.1560 Uiso
C11V C 0.1571(11) 0.9549(16) -0.0493(2) 0.1560 Uiso
C12G C 0.0993(10) 0.9265(15) 0.0248(2) 0.1500 Uiso
C12R C 0.0735(15) 0.9007(10) 0.0248(2) 0.1500 Uiso
C12V C 0.0993(10) 0.9265(15) -0.0248(2) 0.1500 Uiso
C12T C -0.0735(15) 0.9007(10) -0.0248(2) 0.1500 Uiso
loop_
_atom_site_aniso_label
_atom_site_aniso_U_11
_atom_site_aniso_U_22
_atom_site_aniso_U_33
_atom_site_aniso_U_23
_atom_site_aniso_U_13
_atom_site_aniso_U_12
Cu1 0.0774(8) 0.0774(8) 0.0255(8) 0.0001(3) -0.0001(3) 0.0068(6)
O1 0.128(4) 0.128(4) 0.055(4) 0.021(3) -0.021(3) 0.009(5)
O2 0.071(3) 0.139(5) 0.036(3) 0.005(2) 0.001(3) -0.002(3)
O3 0.083(3) 0.114(4) 0.032(3) 0.008(2) 0.001(2) 0.008(3)
C1 0.080(6) 0.106(6) 0.048(5) -0.023(4) 0.012(4) -0.012(5)
C2 0.088(9) 0.109(9) 0.055(6) -0.015(6) 0.000 0.000
C3 0.067(5) 0.120(6) 0.044(4) -0.010(4) -0.006(4) 0.003(4)
C4 0.067(5) 0.206(10) 0.032(4) -0.010(4) 0.005(4) 0.013(5)
C5 0.081(9) 0.273(19) 0.020(5) 0.019(7) 0.000 0.000
C6 0.091(9) 0.216(17) 0.086(9) -0.062(10) 0.000 0.000
Cu1N 0.0774 0.0774 0.0255 0.0001 -0.0001 0.0068
O1N 0.128 0.128 0.055 0.021 -0.021 0.009
O2V 0.139 0.071 0.036 -0.001 -0.005 -0.002
O2N 0.139 0.071 0.036 -0.001 -0.005 -0.002
O2X 0.071 0.139 0.036 0.005 0.001 -0.002
O3N 0.114 0.083 0.032 -0.001 -0.008 0.008
O3X 0.083 0.114 0.032 0.008 0.001 0.008
O3V 0.114 0.083 0.032 -0.001 -0.008 0.008
C1T 0.08 0.106 0.048 -0.023 -0.012 0.012
C3T 0.067 0.12 0.044 -0.01 0.006 -0.003
C4T 0.067 0.206 0.032 -0.01 -0.005 -0.013
C6E 0.091 0.216 0.086 0.062 0 0
loop_
_geom_bond_atom_site_label_1
_geom_bond_atom_site_label_2
_geom_bond_site_symmetry_1
_geom_bond_site_symmetry_2
Cu1 O1 1_555 1_555
O2 Cu1 1_555 1_555
O3 C1 1_555 1_555
C1 O2 1_555 1_555
C2 H1 1_555 1_555
C3 C1 1_555 1_555
C4 C3 1_555 1_555
H2 C4 1_555 1_555
C5 C4 1_555 1_555
C6 C5 1_555 1_555
C7 C6 1_555 1_555
C8 C7 1_555 1_555
C9 C8 1_555 1_555
C10 C6 1_555 1_555
C11 C10 1_555 1_555
C12 C11 1_555 1_555
O4 C9 1_555 1_555
Cu1N O3 1_555 1_555
O1N Cu1N 1_555 1_555
O2V Cu1 1_555 1_555
O2N Cu1N 1_555 1_555
O2X Cu1N 1_555 1_555
O3N Cu1 1_555 1_555
O3X Cu1 1_555 1_555
O3V Cu1N 1_555 1_555
C1T C3T 1_555 1_555
C3T C2 1_555 1_555
C4T C5 1_555 1_555
H2T C4T 1_555 1_555
C6E C7E 1_555 1_555
C7T C6 1_555 1_555
C7E C7 1_555 1_555
C7R C7 1_555 1_555
C8T C7T 1_555 1_555
C8E C7E 1_555 1_555
C8R C7R 1_555 1_555
C8D C9D 1_555 1_555
C8U C9U 1_555 1_555
C9D C9 1_555 1_555
C9R C9 1_555 1_555
C9U C9 1_555 1_555
C10T C6 1_555 1_555
C10R C10 1_555 1_555
C10E C6E 1_555 1_555
C11T C11 1_555 1_555
C11R C10R 1_555 1_555
C11G C12G 1_555 1_555
C11V C12V 1_555 1_555
C12G C12 1_555 1_555
C12R C12 1_555 1_555
C12V C12 1_555 1_555
C12T C11T 1_555 1_555
C2 C3 1_555 1_555
C7 C7T 1_555 1_555
C10 C10T 1_555 1_555
O4 C9D 1_555 1_555
O4 C9R 1_555 1_555
O4 C9U 1_555 1_555
C3T C4T 1_555 1_555
C6E C7R 1_555 1_555
C6E C10R 1_555 1_555
C7T C7E 1_555 1_555
C7T C7R 1_555 1_555
C7E C7R 1_555 1_555
C8R C9R 1_555 1_555
C9D C9R 1_555 1_555
C9D C9U 1_555 1_555
C9R C9U 1_555 1_555
C10T C10E 1_555 1_555
C10T C11T 1_555 1_555
C10R C10E 1_555 1_555
C11R C12R 1_555 1_555
C12G C12R 1_555 1_555
C12G C12V 1_555 1_555
C12R C12V 1_555 1_555

#END
