
#######################################################################
#
#                 Cambridge Crystallographic Data Centre
#                                CCDC 
#
#######################################################################
#
# If this CIF has been generated from an entry in the Cambridge 
# Structural Database, then it will include bibliographic, chemical, 
# crystal, experimental, refinement or atomic coordinate data resulting 
# from the CCDC's data processing and validation procedures.
#
#######################################################################

data_DUTKUA
_chemical_formula_moiety         '(C53 H40 Cd2 N8 O12 S2)n'
_chemical_name_systematic        
catena-[(\m-1,2-bis(pyridin-4-ylmethylene)hydrazinium)-(\m-4,4'-(hydrazine-1,2-diylidenedimethylylidene)dipyridine)-bis(\m-4,4'-sulfonyldibenzoato)-methyl-di-cadmium]
_symmetry_cell_setting           triclinic
_symmetry_space_group_name_H-M   'P -1'
_symmetry_Int_Tables_number      2
_space_group_name_Hall           '-P 1'
loop_
_symmetry_equiv_pos_site_id
_symmetry_equiv_pos_as_xyz
1 x,y,z
2 -x,-y,-z
_cell_length_a                   14.737(2)
_cell_length_b                   15.301(2)
_cell_length_c                   15.801(2)
_cell_angle_alpha                114.001(9)
_cell_angle_beta                 96.223(10)
_cell_angle_gamma                116.157(9)
_cell_volume                     2735.84
_exptl_crystal_colour            yellow
_exptl_crystal_description       block
_cell_formula_units_Z            2
loop_
_atom_site_label
_atom_site_type_symbol
_atom_site_fract_x
_atom_site_fract_y
_atom_site_fract_z
Cd1 Cd 0.03429(6) 0.38659(5) 0.93114(4)
Cd2 Cd 0.81263(9) 0.74667(7) 0.66063(8)
S1 S 0.5177(2) 0.2275(2) 0.0231(2)
S2 S 0.2980(3) 0.8817(3) 0.7280(2)
O1 O 0.0766(5) 0.5129(5) 0.8811(4)
O2 O 0.0936(6) 0.6655(5) 1.0036(5)
O3 O 0.4744(7) 0.1265(6) 0.0290(6)
O4 O 0.5806(7) 0.2417(6) -0.0382(6)
O5 O 0.1755(6) 0.3647(6) -0.1106(5)
O6 O 0.0775(6) 0.2571(6) -0.0568(6)
N1 N -0.8353(7) -0.4782(6) 0.0919(5)
O7 O 0.3287(8) 0.9972(7) 0.7931(7)
N2 N -0.0971(7) 0.2547(6) 0.7739(5)
O8 O 0.7528(9) 0.6107(7) 0.5056(7)
N3 N 0.9495(8) 0.9056(7) 0.6715(7)
O9 O 0.2268(8) 0.8220(8) 0.6290(6)
N4 N -0.4289(8) -0.0693(7) 0.4796(5)
C1 C 0.1611(9) 0.2996(8) -0.0786(7)
N5 N 1.3480(9) 1.2747(8) 0.6449(8)
N6 N -0.5017(8) -0.1421(7) 0.3825(6)
O10 O 0.8784(8) 0.6975(7) 0.4540(7)
C2 C -0.1613(9) 0.1828(9) 0.6003(7)
H1 H -0.1498 0.1908 0.5466
C3 C -0.2560(9) 0.0936(8) 0.5877(6)
C4 C -0.6640(8) -0.3042(8) 0.1930(6)
H2 H -0.6038 -0.2438 0.1969
N7 N 1.2799(9) 1.1935(8) 0.6639(8)
H3 H 1.3028 1.1654 0.6915
C5 C 0.1026(7) 0.6142(7) 0.9240(6)
C6 C 0.4102(10) 0.2411(8) -0.0134(7)
C7 C 0.2442(8) 0.2723(7) -0.0610(6)
N8 N 1.6817(9) 1.6077(8) 0.6837(8)
C8 C -0.8418(9) -0.4866(8) 0.1719(7)
H4 H -0.9018 -0.5492 0.1655
C9 C -0.6716(9) -0.3113(8) 0.2760(6)
C10 C 0.1496(8) 0.6780(8) 0.8730(6)
C11 C -0.2700(9) 0.0874(8) 0.6706(7)
H5 H -0.3333 0.0291 0.6655
C12 C 0.7910(10) 0.6194(9) 0.4393(8)
C13 C 0.5963(9) 0.3463(8) 0.1451(8)
C14 C -0.7473(8) -0.3882(8) 0.1035(6)
H6 H -0.7417 -0.3815 0.0481
C15 C -0.1882(8) 0.1693(8) 0.7612(7)
H7 H -0.1980 0.1637 0.8163
C16 C -0.0827(9) 0.2612(8) 0.6947(7)
H8 H -0.0180 0.3201 0.7023
C17 C -0.7623(9) -0.4053(9) 0.2642(7)
H9 H -0.7698 -0.4137 0.3185
C18 C 0.4260(10) 0.3161(9) -0.0477(8)
H10 H 0.4914 0.3555 -0.0544
C19 C 0.1386(9) 0.6252(8) 0.7753(7)
H11 H 0.1016 0.5467 0.7390
C20 C 0.4161(9) 0.8795(8) 0.7228(7)
C21 C 0.3422(10) 0.3302(9) -0.0713(8)
H12 H 0.3515 0.3794 -0.0946
C22 C 0.5694(10) 0.3350(9) 0.2229(8)
H13 H 0.5104 0.2682 0.2114
C23 C -0.3413(10) 0.0086(8) 0.4902(7)
H14 H -0.3297 0.0132 0.4350
C24 C 0.6808(9) 0.4448(8) 0.1610(8)
H15 H 0.6956 0.4515 0.1075
C25 C 0.7191(9) 0.5247(8) 0.3354(8)
C26 C 0.2405(9) 0.8020(9) 0.7845(8)
C27 C 0.1809(9) 0.6852(9) 0.7297(7)
H16 H 0.1694 0.6476 0.6625
C28 C 1.4354(10) 1.3499(10) 0.7113(10)
H17 H 1.4488 1.3494 0.7699
C29 C 0.2306(9) 0.1984(8) -0.0288(8)
H18 H 0.1645 0.1574 -0.0240
C30 C 0.4139(10) 0.8037(9) 0.6346(8)
H19 H 0.3521 0.7575 0.5783
C31 C 1.1857(11) 1.1643(9) 0.6392(9)
H20 H 1.1644 1.1979 0.6107
C32 C 1.5128(11) 1.4370(11) 0.6140(10)
H21 H 1.4522 1.3772 0.5582
C33 C 0.7445(10) 0.5346(8) 0.2559(8)
H22 H 0.8037 0.6009 0.2668
C34 C 0.6318(10) 0.4242(9) 0.3170(9)
H23 H 0.6151 0.4173 0.3699
C35 C 0.2109(10) 0.7979(8) 0.9273(7)
H24 H 0.2192 0.8361 0.9936
O11 O 0.7527(10) 0.8793(12) 0.7787(12)
C36 C 0.5932(11) 0.8633(10) 0.7137(10)
C37 C -0.5863(10) -0.2253(9) 0.3718(7)
H25 H -0.5945 -0.2319 0.4268
C38 C 0.5031(11) 0.7979(10) 0.6313(10)
H26 H 0.5024 0.7485 0.5720
C39 C 0.5946(11) 0.9397(10) 0.8003(10)
H27 H 0.6565 0.9854 0.8564
C40 C 0.3127(10) 0.1835(9) -0.0033(9)
H28 H 0.3026 0.1347 0.0206
C41 C 1.5206(10) 1.4413(9) 0.7033(9)
C42 C 0.5067(9) 0.9502(9) 0.8061(8)
H29 H 0.5090 1.0031 0.8642
C43 C 1.1044(9) 1.0769(8) 0.6535(8)
O12 O 0.6791(10) 0.7786(10) 0.6200(11)
C44 C 1.0521(9) 0.9375(9) 0.6984(9)
H30 H 1.0718 0.9005 0.7235
C45 C 0.9988(10) 1.0438(10) 0.6253(11)
H31 H 0.9770 1.0790 0.5995
C46 C 1.6105(12) 1.5324(10) 0.7808(9)
H32 H 1.6184 1.5400 0.8430
C47 C 0.2580(10) 0.8582(9) 0.8836(8)
H33 H 0.3016 0.9367 0.9207
C48 C 0.9247(11) 0.9580(10) 0.6352(12)
H34 H 0.8527 0.9361 0.6149
C49 C 1.1301(9) 1.0217(9) 0.6909(9)
H35 H 1.2014 1.0417 0.7115
C50 C 1.5929(12) 1.5195(11) 0.6073(10)
H36 H 1.5856 1.5144 0.5460
C51 C 1.6896(12) 1.6131(10) 0.7708(11)
H37 H 1.7508 1.6735 0.8258
C52 C 0.6858(15) 0.8438(14) 0.7073(16)
C53 C 0.9306(11) 0.7152(11) 0.7280(10)
H38 H 0.8937 0.6379 0.7123
H39 H 0.9601 0.7645 0.7985
H40 H 0.9879 0.7298 0.7016
Cd1_2 Cd -0.96571(6) -0.61341(5) -0.06886(4)
Cd1_3 Cd 0.03429(6) 0.38659(5) -0.06886(4)
Cd1A Cd -0.03429(6) 0.61341(5) 1.06886(4)
Cd2_2 Cd 1.81263(9) 1.74667(7) 0.66063(8)
O2A O -0.0936(6) 0.3345(5) 0.9964(5)
O5_2 O 0.1755(6) 0.3647(6) 0.8894(5)
O6_2 O 0.0775(6) 0.2571(6) 0.9432(6)
N1_2 N 0.1647(7) 0.5218(6) 1.0919(5)
N8_2 N 0.6817(9) 0.6077(8) 0.6837(8)
loop_
_geom_bond_atom_site_label_1
_geom_bond_atom_site_label_2
_geom_bond_site_symmetry_1
_geom_bond_site_symmetry_2
Cd1 O1 1_555 1_555
Cd2 O8 1_555 1_555
S1 O3 1_555 1_555
S2 O7 1_555 1_555
O1 C5 1_555 1_555
O2 C5 1_555 1_555
O4 S1 1_555 1_555
O5 C1 1_555 1_555
O6 C1 1_555 1_555
N1 C8 1_555 1_555
N2 Cd1 1_555 1_555
O8 C12 1_555 1_555
N3 Cd2 1_555 1_555
O9 S2 1_555 1_555
N4 N6 1_555 1_555
C1 C7 1_555 1_555
N5 N7 1_555 1_555
N6 C37 1_555 1_555
O10 C12 1_555 1_555
C2 H1 1_555 1_555
C3 C2 1_555 1_555
C4 H2 1_555 1_555
N7 H3 1_555 1_555
C5 C10 1_555 1_555
C6 S1 1_555 1_555
C7 C21 1_555 1_555
N8 C50 1_555 1_555
C8 H4 1_555 1_555
C9 C4 1_555 1_555
C10 C19 1_555 1_555
C11 C3 1_555 1_555
H5 C11 1_555 1_555
C12 C25 1_555 1_555
C13 S1 1_555 1_555
C14 N1 1_555 1_555
H6 C14 1_555 1_555
C15 N2 1_555 1_555
H7 C15 1_555 1_555
C16 N2 1_555 1_555
H8 C16 1_555 1_555
C17 C8 1_555 1_555
H9 C17 1_555 1_555
C18 C6 1_555 1_555
H10 C18 1_555 1_555
C19 H11 1_555 1_555
C20 S2 1_555 1_555
C21 C18 1_555 1_555
H12 C21 1_555 1_555
C22 C13 1_555 1_555
H13 C22 1_555 1_555
C23 N4 1_555 1_555
H14 C23 1_555 1_555
C24 C13 1_555 1_555
H15 C24 1_555 1_555
C25 C33 1_555 1_555
C26 S2 1_555 1_555
C27 C19 1_555 1_555
H16 C27 1_555 1_555
C28 N5 1_555 1_555
H17 C28 1_555 1_555
C29 C7 1_555 1_555
H18 C29 1_555 1_555
C30 C20 1_555 1_555
H19 C30 1_555 1_555
C31 N7 1_555 1_555
H20 C31 1_555 1_555
C32 H21 1_555 1_555
C33 C24 1_555 1_555
H22 C33 1_555 1_555
C34 C22 1_555 1_555
H23 C34 1_555 1_555
C35 C10 1_555 1_555
H24 C35 1_555 1_555
O11 Cd2 1_555 1_555
C36 C38 1_555 1_555
C37 C9 1_555 1_555
H25 C37 1_555 1_555
C38 C30 1_555 1_555
H26 C38 1_555 1_555
C39 C36 1_555 1_555
H27 C39 1_555 1_555
C40 C6 1_555 1_555
H28 C40 1_555 1_555
C41 C28 1_555 1_555
C42 C20 1_555 1_555
H29 C42 1_555 1_555
C43 C31 1_555 1_555
O12 Cd2 1_555 1_555
C44 N3 1_555 1_555
H30 C44 1_555 1_555
C45 C43 1_555 1_555
H31 C45 1_555 1_555
C46 C41 1_555 1_555
H32 C46 1_555 1_555
C47 C26 1_555 1_555
H33 C47 1_555 1_555
C48 N3 1_555 1_555
H34 C48 1_555 1_555
C49 C43 1_555 1_555
H35 C49 1_555 1_555
C50 C32 1_555 1_555
H36 C50 1_555 1_555
C51 N8 1_555 1_555
H37 C51 1_555 1_555
C52 O11 1_555 1_555
C53 Cd2 1_555 1_555
H38 C53 1_555 1_555
H39 C53 1_555 1_555
H40 C53 1_555 1_555
Cd1_2 N1 1_555 1_555
Cd1_3 O5 1_555 1_555
Cd1A O2 1_555 1_555
Cd2_2 N8 1_555 1_555
O2A Cd1 1_555 1_555
O5_2 Cd1 1_555 1_555
O6_2 Cd1 1_555 1_555
N1_2 Cd1 1_555 1_555
N8_2 Cd2 1_555 1_555
O6 Cd1_3 1_555 1_555
C2 C16 1_555 1_555
C3 C23 1_555 1_555
C4 C14 1_555 1_555
C9 C17 1_555 1_555
C11 C15 1_555 1_555
C25 C34 1_555 1_555
C26 C27 1_555 1_555
C29 C40 1_555 1_555
C32 C41 1_555 1_555
C35 C47 1_555 1_555
C36 C52 1_555 1_555
C39 C42 1_555 1_555
O12 C52 1_555 1_555
C44 C49 1_555 1_555
C45 C48 1_555 1_555
C46 C51 1_555 1_555

#END
