
#######################################################################
#
#                 Cambridge Crystallographic Data Centre
#                                CCDC 
#
#######################################################################
#
# If this CIF has been generated from an entry in the Cambridge 
# Structural Database, then it will include bibliographic, chemical, 
# crystal, experimental, refinement or atomic coordinate data resulting 
# from the CCDC's data processing and validation procedures.
#
#######################################################################

data_PURTEC
_chemical_formula_moiety         
'(C18 H18 Cu10 N72 2+)n,2n(N1 O3 1-),16n(H2 O1)'
_chemical_name_systematic        
'catena-(hexakis(\m~4~-tetrazolato)-dodecakis(\m~3~-tetrazolato)-deca-copper(ii) dinitrate hexadecahydrate)'
_symmetry_cell_setting           hexagonal
_symmetry_space_group_name_H-M   'P 63/m m c'
_symmetry_Int_Tables_number      194
_space_group_name_Hall           '-P 6c 2c'
loop_
_symmetry_equiv_pos_site_id
_symmetry_equiv_pos_as_xyz
1 x,y,z
2 -y,x-y,z
3 -x+y,-x,z
4 -x,-y,1/2+z
5 y,-x+y,1/2+z
6 x-y,x,1/2+z
7 y,x,-z
8 x-y,-y,-z
9 -x,-x+y,-z
10 -y,-x,1/2-z
11 -x+y,y,1/2-z
12 x,x-y,1/2-z
13 -x,-y,-z
14 y,-x+y,-z
15 x-y,x,-z
16 x,y,1/2-z
17 -y,x-y,1/2-z
18 -x+y,-x,1/2-z
19 -y,-x,z
20 -x+y,y,z
21 x,x-y,z
22 y,x,1/2+z
23 x-y,-y,1/2+z
24 -x,-x+y,1/2+z
_cell_length_a                   12.3634(19)
_cell_length_b                   12.3634(19)
_cell_length_c                   12.539(4)
_cell_angle_alpha                90
_cell_angle_beta                 90
_cell_angle_gamma                120
_cell_volume                     1659.85
_exptl_crystal_colour            'light green'
_exptl_crystal_description       prism
_cell_formula_units_Z            1
loop_
_atom_site_label
_atom_site_type_symbol
_atom_site_fract_x
_atom_site_fract_y
_atom_site_fract_z
O2 O 0.0000 0.0000 0.0000
O3 O 0.0000 0.0000 0.157(6)
O4 O 0.125(3) 0.875(3) 0.161(3)
Cu1 Cu 0.3333 0.6667 0.1000(2)
Cu2 Cu 0.0000 0.5000 0.0000
N2 N 0.2518(5) 0.5035(10) 0.0021(7)
N3 N 0.1336(8) 0.4456(8) -0.0339(5)
C1 C 0.1231(10) 0.3488(8) -0.0944(6)
H1 H 0.0498 0.2902 -0.1310
N4 N 0.1737(12) 0.5868(6) 0.1961(8)
N5 N 0.0546(17) 0.5273(8) 0.1650(10)
C2 C -0.018(3) 0.4910(13) 0.2500
H2 H -0.1067 0.4466 0.2500
Cu1K Cu 0.3333 0.6666 0.4000(2)
Cu1H Cu -0.3333 0.3334 -0.1000(2)
Cu1H_2 Cu 0.6667 0.3334 -0.1000(2)
Cu1C Cu -0.3333 0.3333 -0.4000(2)
Cu1E Cu 0.6666 0.3333 -0.4000(2)
Cu1G Cu 0.6666 1.3333 -0.1000(2)
Cu1C_2 Cu 0.6667 1.3333 -0.4000(2)
Cu2A Cu 0.5000 0.5000 0.0000
Cu2B Cu 0.5000 1.0000 0.0000
Cu2C Cu 0.0000 0.5000 0.5000
Cu2D Cu 0.5000 0.5000 0.5000
Cu2E Cu 0.5000 1.0000 0.5000
Cu2B_2 Cu -0.5000 0.0000 0.0000
Cu2A_2 Cu -0.5000 0.5000 0.0000
Cu2C_2 Cu 0.0000 0.5000 -0.5000
Cu2B_3 Cu 0.5000 0.0000 0.0000
Cu2_2 Cu 1.0000 0.5000 0.0000
Cu2D_2 Cu 0.5000 0.5000 -0.5000
Cu2_3 Cu 1.0000 1.5000 0.0000
Cu2A_3 Cu 0.5000 1.5000 0.0000
Cu2E_2 Cu 0.5000 1.0000 -0.5000
N2A N 0.4965(10) 0.7483(11) 0.0021(7)
N2B N 0.2517(11) 0.7482(5) 0.0021(7)
N2H N -0.2518(5) 0.2517(11) -0.0021(7)
N2L N -0.2518(5) 0.4965(10) -0.0021(7)
N2K N 0.2518(5) 0.7483(11) 0.4979(7)
N2I N 0.4965(10) 0.7482(5) 0.4979(7)
N2J N 0.2517(11) 0.5035(10) 0.4979(7)
N2M N 0.5035(10) 0.2517(11) -0.0021(7)
N2G N 0.7483(11) 0.4965(10) -0.0021(7)
N2N N 0.7483(11) 1.2518(5) -0.0021(7)
N2F N 0.5035(10) 1.2518(5) -0.0021(7)
N2F_2 N -0.4965(10) 0.2518(5) -0.0021(7)
N2N_2 N 0.7483(11) 0.2518(5) -0.0021(7)
N3S N 0.3120(11) 0.4456(8) -0.0339(5)
N3A N 0.5544(8) 0.6880(11) -0.0339(5)
N3R N 0.5544(8) 0.8664(8) -0.0339(5)
N3B N 0.3120(11) 0.8664(8) -0.0339(5)
N3T N 0.1336(8) 0.6880(11) -0.0339(5)
N3H N -0.1336(8) 0.3120(11) 0.0339(5)
N3N N -0.3120(11) 0.1336(8) 0.0339(5)
N3L N -0.1336(8) 0.5544(8) 0.0339(5)
N3G N -0.3120(11) 0.5544(8) 0.0339(5)
N3K N 0.1336(8) 0.6880(11) 0.5339(5)
N3Q N 0.3120(11) 0.8664(8) 0.5339(5)
N3I N 0.5544(8) 0.8664(8) 0.5339(5)
N3P N 0.5544(8) 0.6880(11) 0.5339(5)
N3J N 0.3120(11) 0.4456(8) 0.5339(5)
N3O N 0.1336(8) 0.4456(8) 0.5339(5)
N3M N 0.4456(8) 0.3120(11) 0.0339(5)
N3F N 0.4456(8) 0.1336(8) 0.0339(5)
N3G_2 N 0.6880(11) 0.5544(8) 0.0339(5)
N3L_2 N 0.8664(8) 0.5544(8) 0.0339(5)
N3N_2 N 0.6880(11) 1.1336(8) 0.0339(5)
N3H_2 N 0.8664(8) 1.3120(11) 0.0339(5)
N3F_2 N 0.4456(8) 1.1336(8) 0.0339(5)
N3M_2 N 0.4456(8) 1.3120(11) 0.0339(5)
N3C N -0.1336(8) 0.5544(8) 0.4661(5)
N3W N -0.1336(8) 0.3120(11) 0.4661(5)
N3D N 0.4456(8) 0.3120(11) 0.4661(5)
N3V N 0.6880(11) 0.5544(8) 0.4661(5)
N3E N 0.6880(11) 1.1336(8) 0.4661(5)
N3U N 0.4456(8) 1.1336(8) 0.4661(5)
C1S C 0.2257(13) 0.3488(8) -0.0944(6)
C1A C 0.6512(8) 0.7743(13) -0.0944(6)
C1R C 0.6512(8) 0.8769(10) -0.0944(6)
C1B C 0.2257(13) 0.8769(10) -0.0944(6)
C1T C 0.1231(10) 0.7743(13) -0.0944(6)
C1H C -0.1231(10) 0.2257(13) 0.0944(6)
C1N C -0.2257(13) 0.1231(10) 0.0944(6)
C1L C -0.1231(10) 0.6512(8) 0.0944(6)
C1G C -0.2257(13) 0.6512(8) 0.0944(6)
C1K C 0.1231(10) 0.7743(13) 0.5944(6)
C1Q C 0.2257(13) 0.8769(10) 0.5944(6)
C1I C 0.6512(8) 0.8769(10) 0.5944(6)
C1P C 0.6512(8) 0.7743(13) 0.5944(6)
C1J C 0.2257(13) 0.3488(8) 0.5944(6)
C1O C 0.1231(10) 0.3488(8) 0.5944(6)
C1M C 0.3488(8) 0.2257(13) 0.0944(6)
C1F C 0.3488(8) 0.1231(10) 0.0944(6)
C1G_2 C 0.7743(13) 0.6512(8) 0.0944(6)
C1L_2 C 0.8769(10) 0.6512(8) 0.0944(6)
C1N_2 C 0.7743(13) 1.1231(10) 0.0944(6)
C1H_2 C 0.8769(10) 1.2257(13) 0.0944(6)
C1F_2 C 0.3488(8) 1.1231(10) 0.0944(6)
C1M_2 C 0.3488(8) 1.2257(13) 0.0944(6)
H1S H 0.2404 0.2902 -0.1310
H1A H 0.7098 0.7596 -0.1310
H1R H 0.7098 0.9502 -0.1310
H1B H 0.2404 0.9502 -0.1310
H1T H 0.0498 0.7596 -0.1310
H1H H -0.0498 0.2404 0.1310
H1N H -0.2404 0.0498 0.1310
H1L H -0.0498 0.7098 0.1310
H1G H -0.2404 0.7098 0.1310
H1K H 0.0498 0.7596 0.6310
H1Q H 0.2404 0.9502 0.6310
H1I H 0.7098 0.9502 0.6310
H1P H 0.7098 0.7596 0.6310
H1J H 0.2404 0.2902 0.6310
H1O H 0.0498 0.2902 0.6310
H1M H 0.2902 0.2404 0.1310
H1F H 0.2902 0.0498 0.1310
H1G_2 H 0.7596 0.7098 0.1310
H1L_2 H 0.9502 0.7098 0.1310
H1N_2 H 0.7596 1.0498 0.1310
H1H_2 H 0.9502 1.2404 0.1310
H1F_2 H 0.2902 1.0498 0.1310
H1M_2 H 0.2902 1.2404 0.1310
N4K N 0.1737(12) 0.5869(13) 0.3039(8)
N4A N 0.4132(6) 0.5869(13) 0.1961(8)
N4J N 0.4131(13) 0.5868(6) 0.3039(8)
N4B N 0.4131(13) 0.8263(12) 0.1961(8)
N4I N 0.4132(6) 0.8263(12) 0.3039(8)
N4H N -0.1737(12) 0.4131(13) -0.1961(8)
N4C N -0.1737(12) 0.4132(6) -0.3039(8)
N4M N 0.5868(6) 0.4131(13) -0.1961(8)
N4V N 0.5869(13) 0.4132(6) -0.3039(8)
N4N N 0.5869(13) 1.1737(12) -0.1961(8)
N4U N 0.5868(6) 1.1737(12) -0.3039(8)
N4F N -0.4132(6) 0.1737(12) -0.1961(8)
N4G N -0.4131(13) 0.4132(6) -0.1961(8)
N4N_2 N 0.5869(13) 0.1737(12) -0.1961(8)
N4L N 0.8263(12) 0.4132(6) -0.1961(8)
N5K N 0.0546(17) 0.5273(19) 0.3350(10)
N5A N 0.4727(8) 0.5273(19) 0.1650(10)
N5J N 0.4727(19) 0.5273(8) 0.3350(10)
N5B N 0.4727(19) 0.9454(17) 0.1650(10)
N5I N 0.4727(8) 0.9454(17) 0.3350(10)
N5H N -0.0546(17) 0.4727(19) -0.1650(10)
N5C N -0.0546(17) 0.4727(8) -0.3350(10)
N5G N 0.5273(19) 0.4727(8) -0.1650(10)
N5D N 0.5273(8) 0.4727(19) -0.3350(10)
N5F N 0.5273(8) 1.0546(17) -0.1650(10)
N5E N 0.5273(19) 1.0546(17) -0.3350(10)
N5C_2 N -0.0546(17) 0.4727(8) 0.6650(10)
N5D_2 N 0.5273(8) 0.4727(19) 0.6650(10)
N5E_2 N 0.5273(19) 1.0546(17) 0.6650(10)
C2A C 0.5090(13) 0.4910(33) 0.2500
C2B C 0.5090(33) 1.018(3) 0.2500
C2C C 0.018(3) 0.5090(13) -0.2500
C2D C 0.4910(13) 0.5090(33) -0.2500
C2E C 0.4910(33) 0.982(3) -0.2500
H2A H 0.5534 0.4467 0.2500
H2B H 0.5533 1.1067 0.2500
H2H H 0.1067 0.5533 -0.2500
H2D H 0.4466 0.5533 -0.2500
H2E H 0.4467 0.8933 -0.2500
N1 N 0.6667 0.3333 0.2500
O1 O 0.7264(5) 0.4527(10) 0.2500
O1A O 0.5473(10) 0.2737(11) 0.2500
O1B O 0.7263(11) 0.2736(5) 0.2500
N6? N 0.1231(10) 0.3488(8) -0.0944(6)
loop_
_geom_bond_atom_site_label_1
_geom_bond_atom_site_label_2
_geom_bond_site_symmetry_1
_geom_bond_site_symmetry_2
N1 O1 1_555 1_555
Cu1 N2 1_555 1_555
Cu2 N3 1_555 1_555
N2 N3 1_555 1_555
N3 C1 1_555 1_555
C1 H1 1_555 1_555
N4 Cu1 1_555 1_555
N5 Cu2 1_555 1_555
C2 N5 1_555 1_555
H2 C2 1_555 1_555
O1A N1 1_555 1_555
O1B N1 1_555 1_555
Cu1K N2K 1_555 1_555
Cu1H N2H 1_555 1_555
Cu1H_2 N2M 1_555 1_555
Cu1C N4C 1_555 1_555
Cu1E N4V 1_555 1_555
Cu1G N2N 1_555 1_555
Cu1C_2 N4U 1_555 1_555
Cu2A N3S 1_555 1_555
Cu2B N3R 1_555 1_555
Cu2C N3K 1_555 1_555
Cu2D N3P 1_555 1_555
Cu2E N3Q 1_555 1_555
Cu2B_2 N3N 1_555 1_555
Cu2A_2 N3G 1_555 1_555
Cu2C_2 N5C 1_555 1_555
Cu2B_3 N3F 1_555 1_555
Cu2_2 N3L_2 1_555 1_555
Cu2D_2 N5D 1_555 1_555
Cu2_3 N3H_2 1_555 1_555
Cu2A_3 N3M_2 1_555 1_555
Cu2E_2 N5E 1_555 1_555
N2A Cu1 1_555 1_555
N2B Cu1 1_555 1_555
N2H N3H 1_555 1_555
N2L Cu1H 1_555 1_555
N2K N3K 1_555 1_555
N2I Cu1K 1_555 1_555
N2J Cu1K 1_555 1_555
N2M N3M 1_555 1_555
N2G Cu1H_2 1_555 1_555
N2N N3N_2 1_555 1_555
N2F Cu1G 1_555 1_555
N2F_2 Cu1H 1_555 1_555
N2N_2 Cu1H_2 1_555 1_555
N3S N2 1_555 1_555
N3A Cu2A 1_555 1_555
N3R N2A 1_555 1_555
N3B Cu2B 1_555 1_555
N3T Cu2 1_555 1_555
N3H Cu2 1_555 1_555
N3N N2H 1_555 1_555
N3L Cu2 1_555 1_555
N3G N2L 1_555 1_555
N3K C1K 1_555 1_555
N3Q N2K 1_555 1_555
N3I Cu2E 1_555 1_555
N3P N2I 1_555 1_555
N3J Cu2D 1_555 1_555
N3O Cu2C 1_555 1_555
N3M Cu2A 1_555 1_555
N3F N2M 1_555 1_555
N3G_2 Cu2A 1_555 1_555
N3L_2 N2G 1_555 1_555
N3N_2 Cu2B 1_555 1_555
N3H_2 N2N 1_555 1_555
N3F_2 Cu2B 1_555 1_555
N3M_2 N2F 1_555 1_555
N3C Cu2C 1_555 1_555
N3W Cu2C 1_555 1_555
N3D Cu2D 1_555 1_555
N3V Cu2D 1_555 1_555
N3E Cu2E 1_555 1_555
N3U Cu2E 1_555 1_555
C1S C1 1_555 1_555
C1A N3A 1_555 1_555
C1R N3R 1_555 1_555
C1B N3B 1_555 1_555
C1T N3T 1_555 1_555
C1H N3H 1_555 1_555
C1N N3N 1_555 1_555
C1L N3L 1_555 1_555
C1G N3G 1_555 1_555
C1K C1Q 1_555 1_555
C1Q N3Q 1_555 1_555
C1I N3I 1_555 1_555
C1P N3P 1_555 1_555
C1J N3J 1_555 1_555
C1O N3O 1_555 1_555
C1M N3M 1_555 1_555
C1F N3F 1_555 1_555
C1G_2 N3G_2 1_555 1_555
C1L_2 N3L_2 1_555 1_555
C1N_2 N3N_2 1_555 1_555
C1H_2 N3H_2 1_555 1_555
C1F_2 N3F_2 1_555 1_555
C1M_2 N3M_2 1_555 1_555
H1S C1S 1_555 1_555
H1A C1A 1_555 1_555
H1R C1R 1_555 1_555
H1B C1B 1_555 1_555
H1T C1T 1_555 1_555
H1H C1H 1_555 1_555
H1N C1N 1_555 1_555
H1L C1L 1_555 1_555
H1G C1G 1_555 1_555
H1K C1K 1_555 1_555
H1Q C1Q 1_555 1_555
H1I C1I 1_555 1_555
H1P C1P 1_555 1_555
H1J C1J 1_555 1_555
H1O C1O 1_555 1_555
H1M C1M 1_555 1_555
H1F C1F 1_555 1_555
H1G_2 C1G_2 1_555 1_555
H1L_2 C1L_2 1_555 1_555
H1N_2 C1N_2 1_555 1_555
H1H_2 C1H_2 1_555 1_555
H1F_2 C1F_2 1_555 1_555
H1M_2 C1M_2 1_555 1_555
N4K N4 1_555 1_555
N4A Cu1 1_555 1_555
N4J Cu1K 1_555 1_555
N4B Cu1 1_555 1_555
N4I Cu1K 1_555 1_555
N4H Cu1H 1_555 1_555
N4C N4H 1_555 1_555
N4M Cu1H_2 1_555 1_555
N4V N4M 1_555 1_555
N4N Cu1G 1_555 1_555
N4U N4N 1_555 1_555
N4F Cu1H 1_555 1_555
N4G Cu1H 1_555 1_555
N4N_2 Cu1H_2 1_555 1_555
N4L Cu1H_2 1_555 1_555
N5K C2 1_555 1_555
N5A Cu2A 1_555 1_555
N5J Cu2D 1_555 1_555
N5B Cu2B 1_555 1_555
N5I Cu2E 1_555 1_555
N5H Cu2 1_555 1_555
N5C N4C 1_555 1_555
N5G Cu2A 1_555 1_555
N5D N4V 1_555 1_555
N5F Cu2B 1_555 1_555
N5E N4U 1_555 1_555
N5C_2 Cu2C 1_555 1_555
N5D_2 Cu2D 1_555 1_555
N5E_2 Cu2E 1_555 1_555
C2A N5A 1_555 1_555
C2B N5B 1_555 1_555
C2C N5H 1_555 1_555
C2D N5G 1_555 1_555
C2E N5F 1_555 1_555
H2A C2A 1_555 1_555
H2B C2B 1_555 1_555
H2H C2C 1_555 1_555
H2D C2D 1_555 1_555
H2E C2E 1_555 1_555
N4 N5 1_555 1_555
Cu1K N4K 1_555 1_555
Cu2C N5K 1_555 1_555
N2A N3A 1_555 1_555
N2B N3B 1_555 1_555
N2B N3T 1_555 1_555
N2L N3L 1_555 1_555
N2I N3I 1_555 1_555
N2J N3J 1_555 1_555
N2J N3O 1_555 1_555
N2G N3G_2 1_555 1_555
N2F N3F_2 1_555 1_555
N3S C1S 1_555 1_555
C1A C1R 1_555 1_555
C1B C1T 1_555 1_555
C1H C1N 1_555 1_555
C1L C1G 1_555 1_555
C1I C1P 1_555 1_555
C1J C1O 1_555 1_555
C1M C1F 1_555 1_555
C1G_2 C1L_2 1_555 1_555
C1N_2 C1H_2 1_555 1_555
C1F_2 C1M_2 1_555 1_555
N4K N5K 1_555 1_555
N4A N4J 1_555 1_555
N4A N5A 1_555 1_555
N4J N5J 1_555 1_555
N4B N4I 1_555 1_555
N4B N5B 1_555 1_555
N4I N5I 1_555 1_555
N4H N5H 1_555 1_555
N4M N5G 1_555 1_555
N4N N5F 1_555 1_555
N5J C2A 1_555 1_555
N5I C2B 1_555 1_555
N5C C2C 1_555 1_555
N5D C2D 1_555 1_555
N5E C2E 1_555 1_555

#END
