
#######################################################################
#
#                 Cambridge Crystallographic Data Centre
#                                CCDC 
#
#######################################################################
#
# If this CIF has been generated from an entry in the Cambridge 
# Structural Database, then it will include bibliographic, chemical, 
# crystal, experimental, refinement or atomic coordinate data resulting 
# from the CCDC's data processing and validation procedures.
#
#######################################################################

data_DOFTID
_chemical_name_common            Pt-PCM-18
_chemical_formula_moiety         '(C34 H24 Cl2 O10 P2 Pt1 Zn2)n'
_chemical_name_systematic        
"catena-[(\m-4,4',4'',4'''-(Benzene-1,2-diyldiphosphanetriyl)tetrabenzoato)-diaqua-dichloro-platinum-di-zinc unknown solvate]"
_symmetry_cell_setting           orthorhombic
_symmetry_space_group_name_H-M   'I m m a'
_symmetry_Int_Tables_number      74
_space_group_name_Hall           '-I 2b 2'
loop_
_symmetry_equiv_pos_site_id
_symmetry_equiv_pos_as_xyz
1 x,y,z
2 -x,1/2-y,z
3 -x,1/2+y,-z
4 x,-y,-z
5 1/2+x,1/2+y,1/2+z
6 1/2-x,-y,1/2+z
7 1/2-x,y,1/2-z
8 1/2+x,1/2-y,1/2-z
9 -x,-y,-z
10 x,1/2+y,-z
11 x,1/2-y,z
12 -x,y,z
13 1/2-x,1/2-y,1/2-z
14 1/2+x,y,1/2-z
15 1/2+x,-y,1/2+z
16 1/2-x,1/2+y,1/2+z
_cell_length_a                   24.574(5)
_cell_length_b                   26.507(5)
_cell_length_c                   15.152(3)
_cell_angle_alpha                90
_cell_angle_beta                 90
_cell_angle_gamma                90
_cell_volume                     9869.76
_exptl_crystal_colour            colorless
_exptl_crystal_description       'Prismatic Rod'
_cell_formula_units_Z            4
loop_
_atom_site_label
_atom_site_type_symbol
_atom_site_fract_x
_atom_site_fract_y
_atom_site_fract_z
_atom_site_U_iso_or_equiv
_atom_site_thermal_displace_type
Pt1 Pt 0.2094(6) 0.2500 0.1595(11) 0.0843 Uani
Cl1 Cl 0.331(4) 0.314(3) 0.431(6) 0.1167 Uani
Zn1 Zn 0.5000 0.4651(7) -0.0812(13) 0.0710 Uani
P1 P 0.2500 0.3086(16) 0.2500 0.0800 Uani
O1 O 0.441(4) 0.428(4) -0.006(7) 0.1067 Uani
O2 O 0.441(4) 0.481(4) 0.113(7) 0.1033 Uani
O3 O 0.5000 0.421(6) -0.187(10) 0.1300 Uani
H1 H 0.5219 0.4320 -0.2232 0.1940 Uiso
C1 C 0.299(5) 0.350(4) 0.195(9) 0.0833 Uani
C2 C 0.322(5) 0.335(5) 0.111(9) 0.0900 Uani
H2 H 0.3100 0.3059 0.0832 0.1080 Uiso
C3 C 0.363(5) 0.365(5) 0.071(9) 0.0900 Uani
H3 H 0.3776 0.3561 0.0173 0.1120 Uiso
C4 C 0.381(5) 0.410(5) 0.113(9) 0.0867 Uani
C5 C 0.359(5) 0.425(5) 0.196(10) 0.0967 Uani
H4 H 0.3714 0.4541 0.2232 0.1160 Uiso
C6 C 0.318(5) 0.395(4) 0.238(9) 0.0933 Uani
H5 H 0.3038 0.4044 0.2921 0.1120 Uiso
C7 C 0.425(5) 0.443(5) 0.071(10) 0.0867 Uani
C8 C 0.286(9) 0.277(8) 0.334(17) 0.1300 Uiso
C9 C 0.345(10) 0.277(7) 0.466(18) 0.1300 Uiso
C10 C 0.316(9) 0.304(11) 0.400(18) 0.1300 Uiso
Cl1F Cl 0.169(4) 0.314(3) 0.069(6) 0.1167 Uani
O1F O 0.059(4) 0.428(4) 0.506(7) 0.1067 Uani
O2F O 0.059(4) 0.481(4) 0.387(7) 0.1033 Uani
C1F C 0.201(5) 0.350(4) 0.305(9) 0.0833 Uani
C2F C 0.178(5) 0.335(5) 0.389(9) 0.0900 Uani
H2F H 0.1900 0.3059 0.4168 0.1080 Uiso
C3F C 0.137(5) 0.365(5) 0.429(9) 0.0900 Uani
H3F H 0.1224 0.3561 0.4827 0.1120 Uiso
C4F C 0.119(5) 0.410(5) 0.387(9) 0.0867 Uani
C5F C 0.141(5) 0.425(5) 0.304(10) 0.0967 Uani
H4F H 0.1286 0.4541 0.2768 0.1160 Uiso
C6F C 0.182(5) 0.395(4) 0.262(9) 0.0933 Uani
H5F H 0.1962 0.4044 0.2079 0.1120 Uiso
C7F C 0.075(5) 0.443(5) 0.429(10) 0.0867 Uani
C8F C 0.214(9) 0.277(8) 0.166(17) 0.1300 Uiso
C9F C 0.155(10) 0.277(7) 0.034(18) 0.1300 Uiso
C10F C 0.184(9) 0.304(11) 0.100(18) 0.1300 Uiso
Cl1J Cl 0.331(4) 0.186(3) 0.431(6) 0.1167 Uani
P1J P 0.2500 0.1914(16) 0.2500 0.0800 Uani
O1J O 0.441(4) 0.072(4) -0.006(7) 0.1067 Uani
O2J O 0.441(4) 0.019(4) 0.113(7) 0.1033 Uani
C1J C 0.299(5) 0.150(4) 0.195(9) 0.0833 Uani
C2J C 0.322(5) 0.165(5) 0.111(9) 0.0900 Uani
H2J H 0.3100 0.1941 0.0832 0.1080 Uiso
C3J C 0.363(5) 0.135(5) 0.071(9) 0.0900 Uani
H3J H 0.3776 0.1439 0.0173 0.1120 Uiso
C4J C 0.381(5) 0.090(5) 0.113(9) 0.0867 Uani
C5J C 0.359(5) 0.075(5) 0.196(10) 0.0967 Uani
H4J H 0.3714 0.0459 0.2232 0.1160 Uiso
C6J C 0.318(5) 0.105(4) 0.238(9) 0.0933 Uani
H5J H 0.3038 0.0956 0.2921 0.1120 Uiso
C7J C 0.425(5) 0.057(5) 0.071(10) 0.0867 Uani
C8J C 0.286(9) 0.223(8) 0.334(17) 0.1300 Uiso
C9J C 0.345(10) 0.223(7) 0.466(18) 0.1300 Uiso
C10J C 0.316(9) 0.196(11) 0.400(18) 0.1300 Uiso
Cl1L Cl 0.169(4) 0.186(3) 0.069(6) 0.1167 Uani
O1L O 0.059(4) 0.072(4) 0.506(7) 0.1067 Uani
O2L O 0.059(4) 0.019(4) 0.387(7) 0.1033 Uani
C1L C 0.201(5) 0.150(4) 0.305(9) 0.0833 Uani
C2L C 0.178(5) 0.165(5) 0.389(9) 0.0900 Uani
H2L H 0.1900 0.1941 0.4168 0.1080 Uiso
C3L C 0.137(5) 0.135(5) 0.429(9) 0.0900 Uani
H3L H 0.1224 0.1439 0.4827 0.1120 Uiso
C4L C 0.119(5) 0.090(5) 0.387(9) 0.0867 Uani
C5L C 0.141(5) 0.075(5) 0.304(10) 0.0967 Uani
H4L H 0.1286 0.0459 0.2768 0.1160 Uiso
C6L C 0.182(5) 0.105(4) 0.262(9) 0.0933 Uani
H5L H 0.1962 0.0956 0.2079 0.1120 Uiso
C7L C 0.075(5) 0.057(5) 0.429(10) 0.0867 Uani
C8L C 0.214(9) 0.223(8) 0.166(17) 0.1300 Uiso
C9L C 0.155(10) 0.223(7) 0.034(18) 0.1300 Uiso
C10L C 0.184(9) 0.196(11) 0.100(18) 0.1300 Uiso
H1K H 0.4781 0.4320 -0.2232 0.1940 Uiso
Zn1A Zn 0.5000 0.0349(7) -0.0812(13) 0.0710 Uani
O3A O 0.5000 0.079(6) -0.187(10) 0.1300 Uani
H1A H 0.4781 0.0680 -0.2232 0.1940 Uiso
H1J H 0.5219 0.0680 -0.2232 0.1940 Uiso
Pt1F Pt 0.2906(6) 0.2500 0.3405(11) 0.0843 Uani
Zn1B Zn 0.5000 -0.0349(7) 0.0812(13) 0.0710 Uani
Zn1C Zn 0.5000 0.5349(7) 0.0812(13) 0.0710 Uani
Zn1D Zn 0.0000 -0.0349(7) 0.4188(13) 0.0710 Uani
Zn1E Zn 0.0000 0.5349(7) 0.4188(13) 0.0710 Uani
Zn1F Zn 0.0000 0.4651(7) 0.5812(13) 0.0710 Uani
Zn1G Zn 0.0000 0.0349(7) 0.5812(13) 0.0710 Uani
O1A O 0.559(4) 0.072(4) -0.006(7) 0.1067 Uani
O1K O 0.559(4) 0.428(4) -0.006(7) 0.1067 Uani
O2B O 0.559(4) -0.019(4) -0.113(7) 0.1033 Uani
O2C O 0.441(4) 0.519(4) -0.113(7) 0.1033 Uani
O2H O 0.559(4) 0.519(4) -0.113(7) 0.1033 Uani
O2I O 0.441(4) -0.019(4) -0.113(7) 0.1033 Uani
H6? H 0.3157 0.3389 0.4001 0.1550 Uiso
H7? H 0.3641 0.2946 0.5096 0.1550 Uiso
loop_
_atom_site_aniso_label
_atom_site_aniso_U_11
_atom_site_aniso_U_22
_atom_site_aniso_U_33
_atom_site_aniso_U_23
_atom_site_aniso_U_13
_atom_site_aniso_U_12
Pt1 0.071(10) 0.066(10) 0.116(13) 0.000 0.017(7) 0.000
Cl1 0.13 0.09 0.13 -0.01 -0.01 -0.01
Zn1 0.051(10) 0.066(12) 0.096(14) 0.011(9) 0.000 0.000
P1 0.06(3) 0.06(2) 0.12(4) 0.000 0.03(2) 0.000
O1 0.09(6) 0.10(7) 0.13(8) 0.02(6) 0.03(6) -0.03(5)
O2 0.08(6) 0.09(6) 0.14(8) 0.01(6) 0.03(5) -0.02(5)
O3 0.15(13) 0.12(11) 0.12(10) -0.01(9) 0.000 0.000
C1 0.07(7) 0.07(7) 0.11(8) 0.00(6) 0.03(6) 0.00(6)
C2 0.07(8) 0.07(7) 0.13(10) 0.01(7) 0.03(7) -0.01(6)
C3 0.08(8) 0.08(8) 0.11(9) 0.01(7) 0.03(7) -0.01(7)
C4 0.07(7) 0.08(7) 0.11(9) 0.02(7) 0.01(7) 0.00(6)
C5 0.08(8) 0.08(8) 0.13(10) 0.00(7) 0.02(8) -0.01(7)
C6 0.09(8) 0.07(7) 0.12(9) -0.01(7) 0.04(7) -0.01(6)
C7 0.07(7) 0.08(8) 0.11(10) 0.03(7) 0.01(7) 0.00(6)
Cl1F 0.13 0.09 0.13 0.01 -0.01 0.01
O1F 0.09 0.1 0.13 -0.02 0.03 0.03
O2F 0.08 0.09 0.14 -0.01 0.03 0.02
C1F 0.07 0.07 0.11 0 0.03 0
C2F 0.07 0.07 0.13 -0.01 0.03 0.01
C3F 0.08 0.08 0.11 -0.01 0.03 0.01
C4F 0.07 0.08 0.11 -0.02 0.01 0
C5F 0.08 0.08 0.13 0 0.02 0.01
C6F 0.09 0.07 0.12 0.01 0.04 0.01
C7F 0.07 0.08 0.11 -0.03 0.01 0
Cl1J 0.13 0.09 0.13 0.01 -0.01 0.01
P1J 0.06 0.06 0.12 0 0.03 0
O1J 0.09 0.1 0.13 -0.02 0.03 0.03
O2J 0.08 0.09 0.14 -0.01 0.03 0.02
C1J 0.07 0.07 0.11 0 0.03 0
C2J 0.07 0.07 0.13 -0.01 0.03 0.01
C3J 0.08 0.08 0.11 -0.01 0.03 0.01
C4J 0.07 0.08 0.11 -0.02 0.01 0
C5J 0.08 0.08 0.13 0 0.02 0.01
C6J 0.09 0.07 0.12 0.01 0.04 0.01
C7J 0.07 0.08 0.11 -0.03 0.01 0
Cl1L 0.13 0.09 0.13 -0.01 -0.01 -0.01
O1L 0.09 0.1 0.13 0.02 0.03 -0.03
O2L 0.08 0.09 0.14 0.01 0.03 -0.02
C1L 0.07 0.07 0.11 0 0.03 0
C2L 0.07 0.07 0.13 0.01 0.03 -0.01
C3L 0.08 0.08 0.11 0.01 0.03 -0.01
C4L 0.07 0.08 0.11 0.02 0.01 0
C5L 0.08 0.08 0.13 0 0.02 -0.01
C6L 0.09 0.07 0.12 -0.01 0.04 -0.01
C7L 0.07 0.08 0.11 0.03 0.01 0
Zn1A 0.051 0.066 0.096 -0.011 0 0
O3A 0.15 0.12 0.12 0.01 0 0
Pt1F 0.071 0.066 0.116 0 0.017 0
Zn1B 0.051 0.066 0.096 -0.011 0 0
Zn1C 0.051 0.066 0.096 0.011 0 0
Zn1D 0.051 0.066 0.096 0.011 0 0
Zn1E 0.051 0.066 0.096 -0.011 0 0
Zn1F 0.051 0.066 0.096 -0.011 0 0
Zn1G 0.051 0.066 0.096 0.011 0 0
O1A 0.09 0.1 0.13 -0.02 -0.03 -0.03
O1K 0.09 0.1 0.13 0.02 -0.03 0.03
O2B 0.08 0.09 0.14 -0.01 0.03 0.02
O2C 0.08 0.09 0.14 0.01 -0.03 0.02
O2H 0.08 0.09 0.14 0.01 0.03 -0.02
O2I 0.08 0.09 0.14 -0.01 -0.03 -0.02
loop_
_geom_bond_atom_site_label_1
_geom_bond_atom_site_label_2
_geom_bond_site_symmetry_1
_geom_bond_site_symmetry_2
Pt1 P1 1_555 1_555
Cl1 C8 1_555 1_555
Zn1 O1 1_555 1_555
P1 C1 1_555 1_555
O1 C7 1_555 1_555
O2 C7 1_555 1_555
O3 Zn1 1_555 1_555
H1 O3 1_555 1_555
C1 C2 1_555 1_555
C2 H2 1_555 1_555
C3 C2 1_555 1_555
H3 C3 1_555 1_555
C4 C3 1_555 1_555
C5 C4 1_555 1_555
H4 C5 1_555 1_555
C6 C1 1_555 1_555
H5 C6 1_555 1_555
C7 C4 1_555 1_555
C8 P1 1_555 1_555
C9 Cl1 1_555 1_555
C10 Cl1 1_555 1_555
Cl1F Pt1 1_555 1_555
O1F C7F 1_555 1_555
O2F C7F 1_555 1_555
C1F P1 1_555 1_555
C2F C1F 1_555 1_555
H2F C2F 1_555 1_555
C3F C2F 1_555 1_555
H3F C3F 1_555 1_555
C4F C3F 1_555 1_555
C5F C4F 1_555 1_555
H4F C5F 1_555 1_555
C6F C1F 1_555 1_555
H5F C6F 1_555 1_555
C7F C4F 1_555 1_555
C8F Pt1 1_555 1_555
C9F Pt1 1_555 1_555
C10F Pt1 1_555 1_555
Cl1J C8J 1_555 1_555
P1J Pt1 1_555 1_555
O1J C7J 1_555 1_555
O2J C7J 1_555 1_555
C1J P1J 1_555 1_555
C2J C1J 1_555 1_555
H2J C2J 1_555 1_555
C3J C2J 1_555 1_555
H3J C3J 1_555 1_555
C4J C3J 1_555 1_555
C5J C4J 1_555 1_555
H4J C5J 1_555 1_555
C6J C1J 1_555 1_555
H5J C6J 1_555 1_555
C7J C4J 1_555 1_555
C8J C8 1_555 1_555
C9J C9 1_555 1_555
C10J Cl1J 1_555 1_555
Cl1L Pt1 1_555 1_555
O1L C7L 1_555 1_555
O2L C7L 1_555 1_555
C1L P1J 1_555 1_555
C2L C1L 1_555 1_555
H2L C2L 1_555 1_555
C3L C2L 1_555 1_555
H3L C3L 1_555 1_555
C4L C3L 1_555 1_555
C5L C4L 1_555 1_555
H4L C5L 1_555 1_555
C6L C1L 1_555 1_555
H5L C6L 1_555 1_555
C7L C4L 1_555 1_555
C8L Pt1 1_555 1_555
C9L Pt1 1_555 1_555
C10L Pt1 1_555 1_555
H1K O3 1_555 1_555
Zn1A O1J 1_555 1_555
O3A Zn1A 1_555 1_555
H1A O3A 1_555 1_555
H1J O3A 1_555 1_555
Pt1F Cl1 1_555 1_555
Zn1B O2J 1_555 1_555
Zn1C O2 1_555 1_555
Zn1D O2L 1_555 1_555
Zn1E O2F 1_555 1_555
Zn1F O1F 1_555 1_555
Zn1G O1L 1_555 1_555
O1A Zn1A 1_555 1_555
O1K Zn1 1_555 1_555
O2B Zn1A 1_555 1_555
O2C Zn1 1_555 1_555
O2H Zn1 1_555 1_555
O2I Zn1A 1_555 1_555
P1 C8F 1_555 1_555
P1 Pt1F 1_555 1_555
C5 C6 1_555 1_555
C8 C10 1_555 1_555
C8 Pt1F 1_555 1_555
C9 C10 1_555 1_555
C9 Pt1F 1_555 1_555
C10 Pt1F 1_555 1_555
Cl1F C8F 1_555 1_555
Cl1F C9F 1_555 1_555
Cl1F C10F 1_555 1_555
C5F C6F 1_555 1_555
C8F C10F 1_555 1_555
C8F C8L 1_555 1_555
C9F C10F 1_555 1_555
C9F C9L 1_555 1_555
Cl1J C9J 1_555 1_555
Cl1J Pt1F 1_555 1_555
P1J C8J 1_555 1_555
P1J C8L 1_555 1_555
P1J Pt1F 1_555 1_555
C5J C6J 1_555 1_555
C8J C10J 1_555 1_555
C8J Pt1F 1_555 1_555
C9J C10J 1_555 1_555
C9J Pt1F 1_555 1_555
C10J Pt1F 1_555 1_555
Cl1L C8L 1_555 1_555
Cl1L C9L 1_555 1_555
Cl1L C10L 1_555 1_555
C5L C6L 1_555 1_555
C8L C10L 1_555 1_555
C9L C10L 1_555 1_555

#END
