
#######################################################################
#
#                 Cambridge Crystallographic Data Centre
#                                CCDC 
#
#######################################################################
#
# If this CIF has been generated from an entry in the Cambridge 
# Structural Database, then it will include bibliographic, chemical, 
# crystal, experimental, refinement or atomic coordinate data resulting 
# from the CCDC's data processing and validation procedures.
#
#######################################################################

data_WUXYIZ
_chemical_name_common            'MOF-705 as synthesised'
_chemical_formula_moiety         '(C17 H18 N2 Na4 O12)n'
_chemical_name_systematic        
catena-((\m-2,2'-(1,4-Phenylenebis(carbonylimino))disuccinato)-(\m-aqua)-methanol-tetra-sodium)
_symmetry_cell_setting           monoclinic
_symmetry_space_group_name_H-M   'P 21'
_symmetry_Int_Tables_number      4
_space_group_name_Hall           'P 2yb'
loop_
_symmetry_equiv_pos_site_id
_symmetry_equiv_pos_as_xyz
1 x,y,z
2 -x,1/2+y,-z
_cell_length_a                   11.8894(4)
_cell_length_b                   5.2299(2)
_cell_length_c                   17.4663(5)
_cell_angle_alpha                90
_cell_angle_beta                 97.279(2)
_cell_angle_gamma                90
_cell_volume                     1077.31
_exptl_crystal_colour            colorless
_exptl_crystal_description       Needle
_cell_formula_units_Z            2
loop_
_atom_site_label
_atom_site_type_symbol
_atom_site_fract_x
_atom_site_fract_y
_atom_site_fract_z
Na1 Na 0.58991(12) -0.1012(3) 0.03331(8)
Na2 Na 0.32142(13) 0.9320(3) 1.09161(8)
Na3 Na 0.10692(13) 0.3648(3) 0.95889(8)
Na4 Na 0.14741(14) 0.9724(3) 0.24034(9)
O1 O 0.4692(2) 0.6209(5) 0.09643(16)
O2 O 0.2513(2) 0.6775(5) 0.96075(15)
O3 O 0.2639(2) 1.0995(5) 0.96916(15)
O4 O 0.2075(2) 0.6626(6) 0.16074(16)
O5 O 0.4898(2) 0.2001(5) 0.09105(15)
O6 O 0.3306(3) 0.9384(6) 0.33557(15)
O7 O 0.0219(2) 0.5001(6) 1.06690(15)
H1 H 0.0154 0.3638 1.0925
H2 H 0.0853 0.5450 1.0912
O8 O 0.2519(3) 0.2473(5) 0.17204(16)
O9 O 0.0333(3) 0.5521(6) 0.84599(16)
O10 O 0.2731(3) 0.3001(6) 0.70152(17)
O11 O 0.0116(3) 0.7107(7) 0.72686(17)
N1 N 0.3689(3) 0.5180(7) 0.31861(17)
H3 H 0.3775 0.3656 0.3399
N2 N 0.2405(3) 0.7221(7) 0.71953(18)
H4 H 0.2456 0.8776 0.7011
O12 O 0.0831(3) 0.6623(7) 0.3240(2)
H5 H 0.0577 0.5166 0.3087
C1 C 0.4811(3) 0.4039(8) 0.12739(19)
C2 C 0.2708(3) 0.4775(8) 0.1857(2)
C3 C 0.2483(3) 0.8946(8) 0.9311(2)
C4 C 0.2691(4) 0.5235(8) 0.6777(2)
C5 C 0.4802(3) 0.3884(8) 0.2152(2)
H6 H 0.4710 0.2084 0.2309
H7 H 0.5528 0.4533 0.2422
C6 C 0.3437(4) 0.7178(8) 0.3615(2)
C7 C 0.3821(3) 0.5492(8) 0.2370(2)
H8 H 0.3991 0.7330 0.2277
C8 C 0.2012(4) 0.6892(8) 0.7950(2)
H9 H 0.2408 0.5393 0.8219
C9 C 0.2284(3) 0.9293(8) 0.8437(2)
H10 H 0.2970 1.0091 0.8273
H11 H 0.1651 1.0515 0.8315
C10 C 0.3327(3) 0.6651(8) 0.4448(2)
C11 C 0.3826(4) 0.4586(9) 0.4861(2)
H12 H 0.4296 0.3440 0.4624
C12 C 0.3636(4) 0.4196(10) 0.5621(2)
H13 H 0.3982 0.2782 0.5900
C13 C 0.2950(4) 0.5834(8) 0.5979(2)
C14 C 0.2478(4) 0.7974(10) 0.5575(3)
H14 H 0.2028 0.9147 0.5819
C15 C 0.2671(4) 0.8378(9) 0.4815(2)
H15 H 0.2354 0.9835 0.4542
C16 C 0.0719(4) 0.6451(8) 0.7872(2)
C17 C 0.0135(5) 0.7232(13) 0.3835(3)
H16 H 0.0335 0.8936 0.4043
H17 H 0.0264 0.5964 0.4250
H18 H -0.0666 0.7210 0.3617
Na1_2 Na 0.58991(12) 0.8988(3) 0.03331(8)
Na1A Na 0.41009(12) 0.3988(3) -0.03331(8)
Na1A_2 Na 0.41009(12) 0.3988(3) 0.96669(8)
Na1A_3 Na 0.41009(12) 1.3988(3) 0.96669(8)
Na2_2 Na 0.32142(13) -0.0680(3) 0.09161(8)
Na2_3 Na 0.32142(13) 0.9320(3) 0.09161(8)
Na3_2 Na 0.10692(13) 1.3648(3) 0.95889(8)
Na3A Na -0.10692(13) 0.8648(3) 1.04111(8)
Na4_2 Na 0.14741(14) -0.0276(3) 0.24034(9)
Na4A Na -0.14741(14) 0.4724(3) 0.75966(9)
O1_2 O 0.4692(2) -0.3791(5) 0.09643(16)
O1_3 O 0.4692(2) 0.6209(5) 1.09643(16)
O1A O 0.5308(2) 0.1209(5) -0.09643(16)
O2A O 0.7487(2) 0.1775(5) 0.03925(15)
O3_2 O 0.2639(2) 0.0995(5) 0.96916(15)
O3A O 0.7361(2) -0.4005(5) 0.03084(15)
O4_2 O 0.2075(2) 0.6626(6) 1.16074(16)
O5_2 O 0.4898(2) 1.2001(5) 1.09105(15)
O5A O 0.5102(2) -0.2999(5) -0.09105(15)
O7A O -0.0219(2) 0.0001(6) 0.93310(15)
O8_2 O 0.2519(3) 1.2473(5) 0.17204(16)
O8_3 O 0.2519(3) 1.2473(5) 1.17204(16)
O9A O -0.0333(3) 1.0521(6) 0.15401(16)
O11A O -0.0116(3) 1.2107(7) 0.27314(17)
C18? C 0.2695(19) 0.453(4) 0.4635(9)
H19? H 0.2394 0.3370 0.4243
C19? C 0.251(2) 0.413(4) 0.5400(7)
H20? H 0.2079 0.2688 0.5528
C20? C 0.358(2) 0.794(4) 0.5793(10)
H21? H 0.3878 0.9104 0.6185
C21? C 0.377(2) 0.834(4) 0.5028(7)
H22? H 0.4196 0.9778 0.4902
loop_
_geom_bond_atom_site_label_1
_geom_bond_atom_site_label_2
_geom_bond_site_symmetry_1
_geom_bond_site_symmetry_2
Na1 O5 1_555 1_555
Na2 O2 1_555 1_555
Na3 O2 1_555 1_555
Na4 O4 1_555 1_555
O1 C1 1_555 1_555
O2 C3 1_555 1_555
O3 Na2 1_555 1_555
O4 C2 1_555 1_555
O5 C1 1_555 1_555
O6 Na4 1_555 1_555
O7 Na3 1_555 1_555
H1 O7 1_555 1_555
H2 O7 1_555 1_555
O8 C2 1_555 1_555
O9 Na3 1_555 1_555
O10 C4 1_555 1_555
O11 C16 1_555 1_555
N1 H3 1_555 1_555
N2 H4 1_555 1_555
O12 Na4 1_555 1_555
H5 O12 1_555 1_555
C1 C5 1_555 1_555
C2 C7 1_555 1_555
C3 O3 1_555 1_555
C4 N2 1_555 1_555
C5 H6 1_555 1_555
H7 C5 1_555 1_555
C6 O6 1_555 1_555
C7 N1 1_555 1_555
H8 C7 1_555 1_555
C8 N2 1_555 1_555
H9 C8 1_555 1_555
C9 C3 1_555 1_555
H10 C9 1_555 1_555
H11 C9 1_555 1_555
C10 C6 1_555 1_555
C11 C10 1_555 1_555
H12 C11 1_555 1_555
C12 C11 1_555 1_555
H13 C12 1_555 1_555
C13 C4 1_555 1_555
C14 C13 1_555 1_555
H14 C14 1_555 1_555
C15 C10 1_555 1_555
H15 C15 1_555 1_555
C16 O9 1_555 1_555
C17 O12 1_555 1_555
H16 C17 1_555 1_555
H17 C17 1_555 1_555
H18 C17 1_555 1_555
Na1_2 O1 1_555 1_555
Na1A O1 1_555 1_555
Na1A_2 O2 1_555 1_555
Na1A_3 O3 1_555 1_555
Na2_2 O5 1_555 1_555
Na2_3 O1 1_555 1_555
Na3_2 O3 1_555 1_555
Na3A O7 1_555 1_555
Na4_2 O8 1_555 1_555
Na4A O9 1_555 1_555
O1_2 Na1 1_555 1_555
O1_3 Na2 1_555 1_555
O1A Na1 1_555 1_555
O2A Na1 1_555 1_555
O3_2 Na3 1_555 1_555
O3A Na1 1_555 1_555
O4_2 Na2 1_555 1_555
O5_2 Na2 1_555 1_555
O5A Na1 1_555 1_555
O7A Na3 1_555 1_555
O8_2 Na4 1_555 1_555
O8_3 Na2 1_555 1_555
O9A Na4 1_555 1_555
O11A Na4 1_555 1_555
O4 Na2_3 1_555 1_555
O5 Na1A 1_555 1_555
O8 Na2_2 1_555 1_555
O11 Na4A 1_555 1_555
N1 C6 1_555 1_555
C5 C7 1_555 1_555
C8 C9 1_555 1_555
C8 C16 1_555 1_555
C12 C13 1_555 1_555
C14 C15 1_555 1_555
Na1A O1A 1_555 1_555
Na1A_2 O1_3 1_555 1_555
Na1A_2 O3_2 1_555 1_555
Na1A_3 O5_2 1_555 1_555
Na2_2 O1_2 1_555 1_555
Na2_3 O8_2 1_555 1_555

#END
