
#######################################################################
#
#                 Cambridge Crystallographic Data Centre
#                                CCDC 
#
#######################################################################
#
# If this CIF has been generated from an entry in the Cambridge 
# Structural Database, then it will include bibliographic, chemical, 
# crystal, experimental, refinement or atomic coordinate data resulting 
# from the CCDC's data processing and validation procedures.
#
#######################################################################

data_UWUTIQ
_chemical_name_common            UTSA-36
_chemical_formula_moiety         
'(C32 H20 N2 O8 Zn2)n,3n(C3 H7 N1 O1),4n(H2 O1)'
_chemical_name_systematic        
'catena-((\m~4~-benzene-1,4-dicarboxylato)-bis(\m~3~-4-(pyridin-4-yl)benzoato)-di-zinc N,N-dimethylformamide solvate tetrahydrate)'
_symmetry_cell_setting           monoclinic
_symmetry_space_group_name_H-M   'P 21/c'
_symmetry_Int_Tables_number      14
_space_group_name_Hall           '-P 2ybc'
loop_
_symmetry_equiv_pos_site_id
_symmetry_equiv_pos_as_xyz
1 x,y,z
2 -x,1/2+y,1/2-z
3 -x,-y,-z
4 x,1/2-y,1/2+z
_cell_length_a                   10.896(6)
_cell_length_b                   19.698(4)
_cell_length_c                   21.554(5)
_cell_angle_alpha                90
_cell_angle_beta                 100.480(5)
_cell_angle_gamma                90
_cell_volume                     4548.95
_exptl_crystal_colour            colorless
_exptl_crystal_description       block
_cell_formula_units_Z            4
loop_
_atom_site_label
_atom_site_type_symbol
_atom_site_fract_x
_atom_site_fract_y
_atom_site_fract_z
Zn1 Zn 0.35488(4) 0.94932(2) 0.365348(19)
Zn2 Zn 0.31540(4) 1.05228(2) 0.265087(19)
O1 O 0.3589(3) 0.88283(16) 0.29297(14)
O2 O 0.5408(3) 0.96525(17) 0.36712(15)
O3 O 0.3386(4) 1.12196(17) 0.33673(15)
C1 C 0.3369(4) 1.1532(2) 0.44290(19)
C2 C 0.3302(4) 1.2488(2) 0.53794(19)
C3 C 0.3265(4) 1.2983(2) 0.59001(19)
O4 O 1.1649(3) 0.95750(17) 0.33560(15)
O5 O 1.1345(3) 1.04788(17) 0.27181(19)
C4 C 0.3265(4) 0.8489(2) 0.18576(19)
N1 N 0.3458(3) 0.61397(17) -0.06160(15)
C5 C 0.9618(4) 1.0019(2) 0.3097(2)
C6 C 0.3520(4) 1.1330(2) 0.50504(19)
H1 H 0.3638 1.0873 0.5152
N2 N 0.3179(3) 1.38630(17) 0.69005(15)
O6 O 0.5027(3) 1.0367(2) 0.28538(17)
O7 O 0.3470(3) 1.04065(15) 0.40898(15)
C7 C 0.5748(4) 1.0016(2) 0.32529(19)
O8 O 0.2982(4) 0.96107(16) 0.21864(15)
C8 C 0.3416(4) 1.1014(2) 0.39209(19)
C9 C 0.3198(5) 1.2222(2) 0.4279(2)
H2 H 0.3114 1.2363 0.3861
C10 C 0.3310(4) 0.7544(2) 0.0887(2)
C11 C 0.3349(4) 0.7052(2) 0.03720(19)
C12 C 0.3499(4) 1.1802(2) 0.55246(19)
H3 H 0.3616 1.1660 0.5943
C13 C 0.3277(4) 0.9017(2) 0.23704(19)
C14 C 0.8795(4) 1.0478(2) 0.2751(3)
H4 H 0.9082 1.0783 0.2481
C15 C 0.7546(4) 1.0481(2) 0.2808(2)
H5 H 0.6997 1.0788 0.2575
C16 C 0.7115(4) 1.0028(2) 0.3212(2)
C17 C 1.0979(4) 1.0020(2) 0.3051(2)
C18 C 0.3405(4) 0.6816(2) -0.0713(2)
H6 H 0.3399 0.6977 -0.1119
C19 C 0.2722(5) 0.8646(2) 0.1232(2)
H7 H 0.2344 0.9066 0.1135
C20 C 0.3395(4) 0.6353(2) 0.0469(2)
H8 H 0.3386 0.6178 0.0869
C21 C 0.3748(6) 0.7850(3) 0.1990(2)
H9 H 0.4054 0.7727 0.2406
C22 C 0.3359(4) 0.7278(2) -0.0242(2)
H10 H 0.3334 0.7740 -0.0331
C23 C 0.3154(5) 1.2696(2) 0.4752(2)
H11 H 0.3025 1.3152 0.4650
C24 C 0.9185(4) 0.9564(3) 0.3501(2)
H12 H 0.9730 0.9253 0.3729
C25 C 0.3784(6) 0.7383(3) 0.1506(2)
H13 H 0.4133 0.6956 0.1603
C26 C 0.7943(4) 0.9575(3) 0.3565(2)
H14 H 0.7661 0.9279 0.3844
C28 C 0.2506(6) 1.3539(3) 0.5822(3)
H18 H 0.2016 1.3633 0.5431
C29 C 0.3454(4) 0.5919(2) -0.00278(19)
H19 H 0.3492 0.5454 0.0049
C31 C 0.2752(6) 0.8175(3) 0.0762(2)
H23 H 0.2388 0.8283 0.0349
C32 C 0.2479(6) 1.3963(3) 0.6336(3)
H24 H 0.1943 1.4335 0.6282
C33 C 0.3964(6) 1.3338(3) 0.6960(3)
H25 H 0.4486 1.3268 0.7347
C34 C 0.4036(6) 1.2898(3) 0.6476(3)
H26 H 0.4604 1.2541 0.6537
Zn1_2 Zn 1.35488(4) 0.94932(2) 0.365348(19)
Zn1C Zn 0.35488(4) 0.55068(2) -0.134652(19)
Zn2_2 Zn 1.31540(4) 1.05228(2) 0.265087(19)
Zn2C Zn 0.31540(4) 1.44772(2) 0.765087(19)
O4_2 O 0.1649(3) 0.95750(17) 0.33560(15)
O5_2 O 0.1345(3) 1.04788(17) 0.27181(19)
N1C N 0.3458(3) 0.88603(17) 0.43840(15)
N2C N 0.3179(3) 1.11370(17) 0.19005(15)
C27 C 0.9950(9) 0.5975(7) 0.0357(6)
H15 H 1.0051 0.5734 0.0751
H16 H 1.0607 0.5850 0.0137
H17 H 0.9158 0.5861 0.0104
C30 C 1.0105(8) 0.6893(7) 0.1124(5)
H20 H 1.0176 0.6491 0.1379
H21 H 0.9377 0.7143 0.1180
H22 H 1.0833 0.7171 0.1249
C35 C 0.9906(7) 0.7166(8) 0.0057(6)
H27 H 0.9885 0.7619 0.0174
O10 O 0.9838(8) 0.7019(8) -0.0516(5)
N5 N 1.0003(5) 0.6710(5) 0.0480(3)
N3 N 0.9726(11) 0.7914(6) 0.2624(6)
C36 C 1.0802(11) 0.7628(14) 0.3077(8)
H28 H 1.0500 0.7309 0.3351
H29 H 1.1238 0.7988 0.3324
H30 H 1.1359 0.7402 0.2847
C39 C 0.8550(18) 0.7520(15) 0.2644(9)
H35 H 0.8698 0.7203 0.2988
H36 H 0.8305 0.7278 0.2255
H37 H 0.7897 0.7827 0.2703
C41 C 0.919(3) 0.8391(8) 0.1914(14)
H41 H 0.9661 0.8337 0.1597
O14 O 0.829(7) 0.878(2) 0.179(2)
O9 O 0.2813(18) 0.6916(7) 0.3175(7)
N4 N 0.6101(11) 0.9985(7) 0.0910(6)
C37 C 0.6027(17) 1.0692(14) 0.1024(9)
H31 H 0.5456 1.0854 0.1261
C38 C 0.668(3) 0.9755(14) 0.0388(12)
H32 H 0.6668 0.9268 0.0371
H33 H 0.7530 0.9911 0.0450
H34 H 0.6229 0.9934 -0.0001
C40 C 0.587(2) 0.9436(13) 0.1337(10)
H38 H 0.6002 0.9005 0.1151
H39 H 0.5028 0.9463 0.1407
H40 H 0.6438 0.9481 0.1732
O15 O 0.673(3) 1.1099(13) 0.0809(19)
O11 O 0.000(2) 0.0492(10) 0.0009(14)
O12 O 0.9154(18) 0.148(2) 0.1028(19)
O13 O -0.040(5) 0.000(3) 0.105(2)
loop_
_geom_bond_atom_site_label_1
_geom_bond_atom_site_label_2
_geom_bond_site_symmetry_1
_geom_bond_site_symmetry_2
Zn1 O1 1_555 1_555
Zn2 O3 1_555 1_555
O1 C13 1_555 1_555
O2 Zn1 1_555 1_555
O3 C8 1_555 1_555
C1 C6 1_555 1_555
C2 C3 1_555 1_555
C3 C28 1_555 1_555
O4 C17 1_555 1_555
O5 C17 1_555 1_555
C4 C13 1_555 1_555
N1 C18 1_555 1_555
C5 C14 1_555 1_555
C6 H1 1_555 1_555
N2 C32 1_555 1_555
O6 Zn2 1_555 1_555
O7 Zn1 1_555 1_555
C7 O2 1_555 1_555
O8 Zn2 1_555 1_555
C8 C1 1_555 1_555
C9 C1 1_555 1_555
H2 C9 1_555 1_555
C10 C11 1_555 1_555
C11 C20 1_555 1_555
C12 C2 1_555 1_555
H3 C12 1_555 1_555
C13 O8 1_555 1_555
C14 H4 1_555 1_555
C15 C14 1_555 1_555
H5 C15 1_555 1_555
C16 C7 1_555 1_555
C17 C5 1_555 1_555
C18 H6 1_555 1_555
C19 C4 1_555 1_555
H7 C19 1_555 1_555
C20 H8 1_555 1_555
C21 C4 1_555 1_555
H9 C21 1_555 1_555
C22 C11 1_555 1_555
H10 C22 1_555 1_555
C23 C2 1_555 1_555
H11 C23 1_555 1_555
C24 C5 1_555 1_555
H12 C24 1_555 1_555
C25 C10 1_555 1_555
H13 C25 1_555 1_555
C26 C16 1_555 1_555
H14 C26 1_555 1_555
C27 H15 1_555 1_555
H16 C27 1_555 1_555
H17 C27 1_555 1_555
C28 H18 1_555 1_555
C29 N1 1_555 1_555
H19 C29 1_555 1_555
C30 H20 1_555 1_555
H21 C30 1_555 1_555
H22 C30 1_555 1_555
C31 C10 1_555 1_555
H23 C31 1_555 1_555
C32 C28 1_555 1_555
H24 C32 1_555 1_555
N3 C36 1_555 1_555
C33 N2 1_555 1_555
H25 C33 1_555 1_555
C34 C3 1_555 1_555
H26 C34 1_555 1_555
N4 C37 1_555 1_555
C35 H27 1_555 1_555
O10 C35 1_555 1_555
C36 H28 1_555 1_555
H29 C36 1_555 1_555
H30 C36 1_555 1_555
N5 C27 1_555 1_555
C37 H31 1_555 1_555
C38 N4 1_555 1_555
H32 C38 1_555 1_555
H33 C38 1_555 1_555
H34 C38 1_555 1_555
C39 N3 1_555 1_555
H35 C39 1_555 1_555
H36 C39 1_555 1_555
H37 C39 1_555 1_555
C40 N4 1_555 1_555
H38 C40 1_555 1_555
H39 C40 1_555 1_555
H40 C40 1_555 1_555
C41 N3 1_555 1_555
H41 C41 1_555 1_555
O14 C41 1_555 1_555
O15 C37 1_555 1_555
Zn1_2 O4 1_555 1_555
Zn1C N1 1_555 1_555
Zn2_2 O5 1_555 1_555
Zn2C N2 1_555 1_555
O4_2 Zn1 1_555 1_555
O5_2 Zn2 1_555 1_555
N1C Zn1 1_555 1_555
N2C Zn2 1_555 1_555
C6 C12 1_555 1_555
O6 C7 1_555 1_555
O7 C8 1_555 1_555
C9 C23 1_555 1_555
C15 C16 1_555 1_555
C18 C22 1_555 1_555
C19 C31 1_555 1_555
C20 C29 1_555 1_555
C21 C25 1_555 1_555
C24 C26 1_555 1_555
C30 N5 1_555 1_555
C33 C34 1_555 1_555
C35 N5 1_555 1_555

#END
