
#######################################################################
#
#                 Cambridge Crystallographic Data Centre
#                                CCDC 
#
#######################################################################
#
# If this CIF has been generated from an entry in the Cambridge 
# Structural Database, then it will include bibliographic, chemical, 
# crystal, experimental, refinement or atomic coordinate data resulting 
# from the CCDC's data processing and validation procedures.
#
#######################################################################

data_HEXVEM
_chemical_formula_moiety         '(C48 H36 Cu3 N12 O15)n'
_chemical_name_systematic        
catena-(bis(\m~6~-4,4',4''-s-triazine-1,3,5-triyltris(p-aminobenzoato))-triaqua-tri-copper)
_symmetry_cell_setting           cubic
_symmetry_space_group_name_H-M   'F m -3'
_symmetry_Int_Tables_number      202
_space_group_name_Hall           '-F 2 2 3'
loop_
_symmetry_equiv_pos_site_id
_symmetry_equiv_pos_as_xyz
1 x,y,z
2 z,x,y
3 y,z,x
4 x,1/2+y,1/2+z
5 z,1/2+x,1/2+y
6 y,1/2+z,1/2+x
7 1/2+x,y,1/2+z
8 1/2+z,x,1/2+y
9 1/2+y,z,1/2+x
10 1/2+x,1/2+y,z
11 1/2+z,1/2+x,y
12 1/2+y,1/2+z,x
13 -x,-y,z
14 -x,y,-z
15 x,-y,-z
16 z,-x,-y
17 -z,-x,y
18 -z,x,-y
19 -y,z,-x
20 y,-z,-x
21 -y,-z,x
22 -x,1/2-y,1/2+z
23 -x,1/2+y,1/2-z
24 x,1/2-y,1/2-z
25 z,1/2-x,1/2-y
26 -z,1/2-x,1/2+y
27 -z,1/2+x,1/2-y
28 -y,1/2+z,1/2-x
29 y,1/2-z,1/2-x
30 -y,1/2-z,1/2+x
31 1/2-x,-y,1/2+z
32 1/2-x,y,1/2-z
33 1/2+x,-y,1/2-z
34 1/2+z,-x,1/2-y
35 1/2-z,-x,1/2+y
36 1/2-z,x,1/2-y
37 1/2-y,z,1/2-x
38 1/2+y,-z,1/2-x
39 1/2-y,-z,1/2+x
40 1/2-x,1/2-y,z
41 1/2-x,1/2+y,-z
42 1/2+x,1/2-y,-z
43 1/2+z,1/2-x,-y
44 1/2-z,1/2-x,y
45 1/2-z,1/2+x,-y
46 1/2-y,1/2+z,-x
47 1/2+y,1/2-z,-x
48 1/2-y,1/2-z,x
49 -x,-y,-z
50 -z,-x,-y
51 -y,-z,-x
52 -x,1/2-y,1/2-z
53 -z,1/2-x,1/2-y
54 -y,1/2-z,1/2-x
55 1/2-x,-y,1/2-z
56 1/2-z,-x,1/2-y
57 1/2-y,-z,1/2-x
58 1/2-x,1/2-y,-z
59 1/2-z,1/2-x,-y
60 1/2-y,1/2-z,-x
61 x,y,-z
62 x,-y,z
63 -x,y,z
64 -z,x,y
65 z,x,-y
66 z,-x,y
67 y,-z,x
68 -y,z,x
69 y,z,-x
70 x,1/2+y,1/2-z
71 x,1/2-y,1/2+z
72 -x,1/2+y,1/2+z
73 -z,1/2+x,1/2+y
74 z,1/2+x,1/2-y
75 z,1/2-x,1/2+y
76 y,1/2-z,1/2+x
77 -y,1/2+z,1/2+x
78 y,1/2+z,1/2-x
79 1/2+x,y,1/2-z
80 1/2+x,-y,1/2+z
81 1/2-x,y,1/2+z
82 1/2-z,x,1/2+y
83 1/2+z,x,1/2-y
84 1/2+z,-x,1/2+y
85 1/2+y,-z,1/2+x
86 1/2-y,z,1/2+x
87 1/2+y,z,1/2-x
88 1/2+x,1/2+y,-z
89 1/2+x,1/2-y,z
90 1/2-x,1/2+y,z
91 1/2-z,1/2+x,y
92 1/2+z,1/2+x,-y
93 1/2+z,1/2-x,y
94 1/2+y,1/2-z,x
95 1/2-y,1/2+z,x
96 1/2+y,1/2+z,-x
_cell_length_a                   49.6188(8)
_cell_length_b                   49.6188(8)
_cell_length_c                   49.6188(8)
_cell_angle_alpha                90
_cell_angle_beta                 90
_cell_angle_gamma                90
_cell_volume                     122163
_exptl_crystal_colour            blue
_exptl_crystal_description       Block
_cell_formula_units_Z            16
loop_
_atom_site_label
_atom_site_type_symbol
_atom_site_fract_x
_atom_site_fract_y
_atom_site_fract_z
_atom_site_U_iso_or_equiv
_atom_site_thermal_displace_type
Cu1 Cu 0.26322(3) 0.0000 0.22685(3) 0.1169 Uani
O1 O 0.23492(14) 0.02611(16) 0.21542(13) 0.1450 Uani
O2 O 0.28261(17) 0.0000 0.18776(16) 0.1663 Uani
O3 O 0.21677(13) 0.02749(13) 0.25991(15) 0.1577 Uani
N1 N 0.1829(2) 0.1416(2) 0.1673(4) 0.2070 Uani
N2 N 0.1589(2) 0.1288(2) 0.2035(2) 0.1780 Uani
H1 H 0.1448 0.1312 0.2137 0.2140 Uiso
C1 C 0.1605(5) 0.1484(6) 0.1843(3) 0.1960 Uani
C2 C 0.1735(3) 0.1057(3) 0.2120(4) 0.1510 Uani
C3 C 0.1912(4) 0.0937(4) 0.1951(3) 0.1870 Uani
H2 H 0.1940 0.1013 0.1780 0.2240 Uiso
C4 C 0.2050(2) 0.0712(4) 0.2017(4) 0.1790 Uani
H3 H 0.2164 0.0633 0.1888 0.2150 Uiso
C5 C 0.2031(3) 0.0591(3) 0.2271(3) 0.1410 Uani
C6 C 0.1852(4) 0.0710(3) 0.2423(3) 0.1690 Uani
H4 H 0.1822 0.0630 0.2592 0.2030 Uiso
C7 C 0.1702(3) 0.0938(4) 0.2366(3) 0.2000 Uani
H5 H 0.1580 0.1009 0.2493 0.2410 Uiso
C8 C 0.2205(3) 0.0357(2) 0.2319(3) 0.1503 Uani
Cu1B Cu 0.0000 0.22685(3) 0.26322(3) 0.1169 Uani
Cu1A Cu 0.22685(3) 0.26322(3) 0.0000 0.1169 Uani
Cu1BB Cu 0.23678(3) 0.0000 0.27315(3) 0.1169 Uani
Cu1AB Cu 0.0000 0.27315(3) 0.23678(3) 0.1169 Uani
Cu1FB Cu 0.27315(3) 0.23678(3) 0.0000 0.1169 Uani
Cu1NB Cu 0.0000 -0.22685(3) 0.26322(3) 0.1169 Uani
Cu1YB Cu 0.0000 -0.27315(3) 0.23678(3) 0.1169 Uani
Cu1MB Cu 0.22685(3) -0.26322(3) 0.0000 0.1169 Uani
Cu1LC Cu 0.27315(3) -0.23678(3) 0.0000 0.1169 Uani
O1B O 0.02611(16) 0.21542(13) 0.23492(14) 0.1450 Uani
O1A O 0.21542(13) 0.23492(14) 0.02611(16) 0.1450 Uani
O1IB O 0.23492(14) -0.02611(16) 0.21542(13) 0.1450 Uani
O1NB O 0.02611(16) -0.21542(13) 0.23492(14) 0.1450 Uani
O1MB O 0.21542(13) -0.23492(14) 0.02611(16) 0.1450 Uani
O1OB O -0.02611(16) 0.21542(13) 0.23492(14) 0.1450 Uani
O1LB O 0.21542(13) 0.23492(14) -0.02611(16) 0.1450 Uani
O2B O 0.0000 0.18776(16) 0.28261(17) 0.1663 Uani
O2A O 0.18776(16) 0.28261(17) 0.0000 0.1663 Uani
O3B O 0.02749(13) 0.25991(15) 0.21677(13) 0.1577 Uani
O3A O 0.25991(15) 0.21677(13) 0.02749(13) 0.1577 Uani
O3IB O 0.21677(13) -0.02749(13) 0.25991(15) 0.1577 Uani
O3NB O 0.02749(13) -0.25991(15) 0.21677(13) 0.1577 Uani
O3MB O 0.25991(15) -0.21677(13) 0.02749(13) 0.1577 Uani
O3BB O 0.28323(13) -0.02749(13) 0.24009(15) 0.1577 Uani
O3EA O 0.28323(13) 0.02749(13) 0.24009(15) 0.1577 Uani
O3AB O -0.02749(13) 0.24009(15) 0.28323(13) 0.1577 Uani
O3BA O 0.02749(13) 0.24009(15) 0.28323(13) 0.1577 Uani
O3FB O 0.24009(15) 0.28323(13) -0.02749(13) 0.1577 Uani
O3QA O 0.24009(15) 0.28323(13) 0.02749(13) 0.1577 Uani
N1A N 0.1673(4) 0.1829(2) 0.1416(2) 0.2070 Uani
N1B N 0.1416(2) 0.1673(4) 0.1829(2) 0.2070 Uani
N1IB N 0.1829(2) -0.1416(2) 0.1673(4) 0.2070 Uani
N1MB N 0.1673(4) -0.1829(2) 0.1416(2) 0.2070 Uani
N1NB N 0.1416(2) -0.1673(4) 0.1829(2) 0.2070 Uani
N2B N 0.1288(2) 0.2035(2) 0.1589(2) 0.1780 Uani
N2A N 0.2035(2) 0.1589(2) 0.1288(2) 0.1780 Uani
N2IB N 0.1589(2) -0.1288(2) 0.2035(2) 0.1780 Uani
N2NB N 0.1288(2) -0.2035(2) 0.1589(2) 0.1780 Uani
N2MB N 0.2035(2) -0.1589(2) 0.1288(2) 0.1780 Uani
H1B H 0.1312 0.2137 0.1448 0.2140 Uiso
H1A H 0.2137 0.1448 0.1312 0.2140 Uiso
H1IB H 0.1448 -0.1312 0.2137 0.2140 Uiso
H1NB H 0.1312 -0.2137 0.1448 0.2140 Uiso
H1MB H 0.2137 -0.1448 0.1312 0.2140 Uiso
C1A C 0.1843(3) 0.1605(5) 0.1484(6) 0.1960 Uani
C1B C 0.1484(6) 0.1843(3) 0.1605(5) 0.1960 Uani
C1IB C 0.1605(5) -0.1484(6) 0.1843(3) 0.1960 Uani
C1MB C 0.1843(3) -0.1605(5) 0.1484(6) 0.1960 Uani
C1NB C 0.1484(6) -0.1843(3) 0.1605(5) 0.1960 Uani
C2B C 0.1057(3) 0.2120(4) 0.1735(3) 0.1510 Uani
C2A C 0.2120(4) 0.1735(3) 0.1057(3) 0.1510 Uani
C2IB C 0.1735(3) -0.1057(3) 0.2120(4) 0.1510 Uani
C2NB C 0.1057(3) -0.2120(4) 0.1735(3) 0.1510 Uani
C2MB C 0.2120(4) -0.1735(3) 0.1057(3) 0.1510 Uani
C3B C 0.0937(4) 0.1951(3) 0.1912(4) 0.1870 Uani
C3A C 0.1951(3) 0.1912(4) 0.0937(4) 0.1870 Uani
C3IB C 0.1912(4) -0.0937(4) 0.1951(3) 0.1870 Uani
C3NB C 0.0937(4) -0.1951(3) 0.1912(4) 0.1870 Uani
C3MB C 0.1951(3) -0.1912(4) 0.0937(4) 0.1870 Uani
H2B H 0.1013 0.1780 0.1940 0.2240 Uiso
H2A H 0.1780 0.1940 0.1013 0.2240 Uiso
H2IB H 0.1940 -0.1013 0.1780 0.2240 Uiso
H2NB H 0.1013 -0.1780 0.1940 0.2240 Uiso
H2MB H 0.1780 -0.1940 0.1013 0.2240 Uiso
C4B C 0.0712(4) 0.2017(4) 0.2050(2) 0.1790 Uani
C4A C 0.2017(4) 0.2050(2) 0.0712(4) 0.1790 Uani
C4IB C 0.2050(2) -0.0712(4) 0.2017(4) 0.1790 Uani
C4NB C 0.0712(4) -0.2017(4) 0.2050(2) 0.1790 Uani
C4MB C 0.2017(4) -0.2050(2) 0.0712(4) 0.1790 Uani
H3B H 0.0633 0.1888 0.2164 0.2150 Uiso
H3A H 0.1888 0.2164 0.0633 0.2150 Uiso
H3IB H 0.2164 -0.0633 0.1888 0.2150 Uiso
H3NB H 0.0633 -0.1888 0.2164 0.2150 Uiso
H3MB H 0.1888 -0.2164 0.0633 0.2150 Uiso
C5B C 0.0591(3) 0.2271(3) 0.2031(3) 0.1410 Uani
C5A C 0.2271(3) 0.2031(3) 0.0591(3) 0.1410 Uani
C5IB C 0.2031(3) -0.0591(3) 0.2271(3) 0.1410 Uani
C5NB C 0.0591(3) -0.2271(3) 0.2031(3) 0.1410 Uani
C5MB C 0.2271(3) -0.2031(3) 0.0591(3) 0.1410 Uani
C6B C 0.0710(3) 0.2423(3) 0.1852(4) 0.1690 Uani
C6A C 0.2423(3) 0.1852(4) 0.0710(3) 0.1690 Uani
C6IB C 0.1852(4) -0.0710(3) 0.2423(3) 0.1690 Uani
C6NB C 0.0710(3) -0.2423(3) 0.1852(4) 0.1690 Uani
C6MB C 0.2423(3) -0.1852(4) 0.0710(3) 0.1690 Uani
H4B H 0.0630 0.2592 0.1822 0.2030 Uiso
H4A H 0.2592 0.1822 0.0630 0.2030 Uiso
H4IB H 0.1822 -0.0630 0.2592 0.2030 Uiso
H4NB H 0.0630 -0.2592 0.1822 0.2030 Uiso
H4MB H 0.2592 -0.1822 0.0630 0.2030 Uiso
C7B C 0.0938(4) 0.2366(3) 0.1702(3) 0.2000 Uani
C7A C 0.2366(3) 0.1702(3) 0.0938(4) 0.2000 Uani
C7IB C 0.1702(3) -0.0938(4) 0.2366(3) 0.2000 Uani
C7NB C 0.0938(4) -0.2366(3) 0.1702(3) 0.2000 Uani
C7MB C 0.2366(3) -0.1702(3) 0.0938(4) 0.2000 Uani
H5B H 0.1009 0.2493 0.1580 0.2410 Uiso
H5A H 0.2493 0.1580 0.1009 0.2410 Uiso
H5IB H 0.1580 -0.1009 0.2493 0.2410 Uiso
H5NB H 0.1009 -0.2493 0.1580 0.2410 Uiso
H5MB H 0.2493 -0.1580 0.1009 0.2410 Uiso
C8B C 0.0357(2) 0.2319(3) 0.2205(3) 0.1503 Uani
C8A C 0.2319(3) 0.2205(3) 0.0357(2) 0.1503 Uani
C8IB C 0.2205(3) -0.0357(2) 0.2319(3) 0.1503 Uani
C8NB C 0.0357(2) -0.2319(3) 0.2205(3) 0.1503 Uani
C8MB C 0.2319(3) -0.2205(3) 0.0357(2) 0.1503 Uani
loop_
_atom_site_aniso_label
_atom_site_aniso_U_11
_atom_site_aniso_U_22
_atom_site_aniso_U_33
_atom_site_aniso_U_23
_atom_site_aniso_U_13
_atom_site_aniso_U_12
Cu1 0.1411(16) 0.0873(15) 0.1223(16) 0.000 0.0467(10) 0.000
O1 0.166(6) 0.129(6) 0.140(6) -0.020(4) 0.016(4) 0.013(4)
O2 0.195(7) 0.146(6) 0.158(6) 0.000 0.036(6) 0.000
O3 0.188 0.138 0.147 0.001 0.016 -0.003
N1 0.247(15) 0.165(10) 0.209(12) 0.059(9) -0.025(13) 0.021(8)
N2 0.165(8) 0.188(10) 0.181(9) -0.005(8) 0.037(7) 0.003(8)
C1 0.174(14) 0.25(2) 0.164(11) -0.048(15) 0.047(13) -0.040(14)
C2 0.111(8) 0.151(12) 0.191(16) -0.052(15) 0.009(9) 0.025(7)
C3 0.212(13) 0.172(12) 0.177(13) 0.055(12) -0.009(14) 0.022(10)
C4 0.192(11) 0.166(12) 0.179(16) 0.035(11) 0.011(9) 0.020(10)
C5 0.142(9) 0.138(13) 0.143(13) 0.024(11) 0.019(8) 0.000(11)
C6 0.177(11) 0.133(10) 0.197(15) 0.016(10) -0.007(12) 0.037(8)
C7 0.219(15) 0.26(2) 0.121(10) 0.004(11) 0.053(10) -0.045(15)
C8 0.188(11) 0.054(8) 0.209(18) 0.031(9) -0.028(11) 0.039(8)
Cu1B 0.0873 0.1223 0.1411 0.0467 0 0
Cu1A 0.1223 0.1411 0.0873 0 0 0.0467
Cu1BB 0.1411 0.0873 0.1223 0 0.0467 0
Cu1AB 0.0873 0.1223 0.1411 0.0467 0 0
Cu1FB 0.1223 0.1411 0.0873 0 0 0.0467
Cu1NB 0.0873 0.1223 0.1411 -0.0467 0 0
Cu1YB 0.0873 0.1223 0.1411 -0.0467 0 0
Cu1MB 0.1223 0.1411 0.0873 0 0 -0.0467
Cu1LC 0.1223 0.1411 0.0873 0 0 -0.0467
O1B 0.129 0.14 0.166 0.016 0.013 -0.02
O1A 0.14 0.166 0.129 0.013 -0.02 0.016
O1IB 0.166 0.129 0.14 0.02 0.016 -0.013
O1NB 0.129 0.14 0.166 -0.016 0.013 0.02
O1MB 0.14 0.166 0.129 -0.013 -0.02 -0.016
O1OB 0.129 0.14 0.166 0.016 -0.013 0.02
O1LB 0.14 0.166 0.129 -0.013 0.02 0.016
O2B 0.146 0.158 0.195 0.036 0 0
O2A 0.158 0.195 0.146 0 0 0.036
O3B 0.138 0.147 0.188 0.016 -0.003 0.001
O3A 0.147 0.188 0.138 -0.003 0.001 0.016
O3IB 0.188 0.138 0.147 -0.001 0.016 0.003
O3NB 0.138 0.147 0.188 -0.016 -0.003 -0.001
O3MB 0.147 0.188 0.138 0.003 0.001 -0.016
O3BB 0.188 0.138 0.147 0.001 0.016 -0.003
O3EA 0.188 0.138 0.147 -0.001 0.016 0.003
O3AB 0.138 0.147 0.188 0.016 -0.003 0.001
O3BA 0.138 0.147 0.188 0.016 0.003 -0.001
O3FB 0.147 0.188 0.138 -0.003 0.001 0.016
O3QA 0.147 0.188 0.138 0.003 -0.001 0.016
N1A 0.209 0.247 0.165 0.021 0.059 -0.025
N1B 0.165 0.209 0.247 -0.025 0.021 0.059
N1IB 0.247 0.165 0.209 -0.059 -0.025 -0.021
N1MB 0.209 0.247 0.165 -0.021 0.059 0.025
N1NB 0.165 0.209 0.247 0.025 0.021 -0.059
N2B 0.188 0.181 0.165 0.037 0.003 -0.005
N2A 0.181 0.165 0.188 0.003 -0.005 0.037
N2IB 0.165 0.188 0.181 0.005 0.037 -0.003
N2NB 0.188 0.181 0.165 -0.037 0.003 0.005
N2MB 0.181 0.165 0.188 -0.003 -0.005 -0.037
C1A 0.164 0.174 0.25 -0.04 -0.048 0.047
C1B 0.25 0.164 0.174 0.047 -0.04 -0.048
C1IB 0.174 0.25 0.164 0.048 0.047 0.04
C1MB 0.164 0.174 0.25 0.04 -0.048 -0.047
C1NB 0.25 0.164 0.174 -0.047 -0.04 0.048
C2B 0.151 0.191 0.111 0.009 0.025 -0.052
C2A 0.191 0.111 0.151 0.025 -0.052 0.009
C2IB 0.111 0.151 0.191 0.052 0.009 -0.025
C2NB 0.151 0.191 0.111 -0.009 0.025 0.052
C2MB 0.191 0.111 0.151 -0.025 -0.052 -0.009
C3B 0.172 0.177 0.212 -0.009 0.022 0.055
C3A 0.177 0.212 0.172 0.022 0.055 -0.009
C3IB 0.212 0.172 0.177 -0.055 -0.009 -0.022
C3NB 0.172 0.177 0.212 0.009 0.022 -0.055
C3MB 0.177 0.212 0.172 -0.022 0.055 0.009
C4B 0.166 0.179 0.192 0.011 0.02 0.035
C4A 0.179 0.192 0.166 0.02 0.035 0.011
C4IB 0.192 0.166 0.179 -0.035 0.011 -0.02
C4NB 0.166 0.179 0.192 -0.011 0.02 -0.035
C4MB 0.179 0.192 0.166 -0.02 0.035 -0.011
C5B 0.138 0.143 0.142 0.019 0 0.024
C5A 0.143 0.142 0.138 0 0.024 0.019
C5IB 0.142 0.138 0.143 -0.024 0.019 0
C5NB 0.138 0.143 0.142 -0.019 0 -0.024
C5MB 0.143 0.142 0.138 0 0.024 -0.019
C6B 0.133 0.197 0.177 -0.007 0.037 0.016
C6A 0.197 0.177 0.133 0.037 0.016 -0.007
C6IB 0.177 0.133 0.197 -0.016 -0.007 -0.037
C6NB 0.133 0.197 0.177 0.007 0.037 -0.016
C6MB 0.197 0.177 0.133 -0.037 0.016 0.007
C7B 0.26 0.121 0.219 0.053 -0.045 0.004
C7A 0.121 0.219 0.26 -0.045 0.004 0.053
C7IB 0.219 0.26 0.121 -0.004 0.053 0.045
C7NB 0.26 0.121 0.219 -0.053 -0.045 -0.004
C7MB 0.121 0.219 0.26 0.045 0.004 -0.053
C8B 0.054 0.209 0.188 -0.028 0.039 0.031
C8A 0.209 0.188 0.054 0.039 0.031 -0.028
C8IB 0.188 0.054 0.209 -0.031 -0.028 -0.039
C8NB 0.054 0.209 0.188 0.028 0.039 -0.031
C8MB 0.209 0.188 0.054 -0.039 0.031 0.028
loop_
_geom_bond_atom_site_label_1
_geom_bond_atom_site_label_2
_geom_bond_site_symmetry_1
_geom_bond_site_symmetry_2
Cu1 O1 1_555 1_555
O1 C8 1_555 1_555
O2 Cu1 1_555 1_555
O3 C8 1_555 1_555
N1 C1 1_555 1_555
N2 H1 1_555 1_555
C1 N2 1_555 1_555
C2 N2 1_555 1_555
C3 C2 1_555 1_555
H2 C3 1_555 1_555
C4 C3 1_555 1_555
H3 C4 1_555 1_555
C5 C4 1_555 1_555
C6 C5 1_555 1_555
H4 C6 1_555 1_555
C7 C2 1_555 1_555
H5 C7 1_555 1_555
C8 C5 1_555 1_555
Cu1B Cu1AB 1_555 1_555
Cu1A Cu1FB 1_555 1_555
Cu1BB Cu1 1_555 1_555
Cu1AB O3B 1_555 1_555
Cu1FB O3A 1_555 1_555
Cu1NB Cu1YB 1_555 1_555
Cu1YB O3NB 1_555 1_555
Cu1MB Cu1LC 1_555 1_555
Cu1LC O3MB 1_555 1_555
O1B Cu1B 1_555 1_555
O1A Cu1A 1_555 1_555
O1IB Cu1 1_555 1_555
O1NB Cu1NB 1_555 1_555
O1MB Cu1MB 1_555 1_555
O1OB Cu1B 1_555 1_555
O1LB Cu1A 1_555 1_555
O2B Cu1B 1_555 1_555
O2A Cu1A 1_555 1_555
O3B C8B 1_555 1_555
O3A C8A 1_555 1_555
O3IB Cu1BB 1_555 1_555
O3NB C8NB 1_555 1_555
O3MB C8MB 1_555 1_555
O3BB Cu1 1_555 1_555
O3EA Cu1 1_555 1_555
O3AB Cu1B 1_555 1_555
O3BA Cu1B 1_555 1_555
O3FB Cu1A 1_555 1_555
O3QA Cu1A 1_555 1_555
N1A C1A 1_555 1_555
N1B C1 1_555 1_555
N1IB C1IB 1_555 1_555
N1MB C1MB 1_555 1_555
N1NB C1IB 1_555 1_555
N2B H1B 1_555 1_555
N2A H1A 1_555 1_555
N2IB H1IB 1_555 1_555
N2NB H1NB 1_555 1_555
N2MB H1MB 1_555 1_555
C1A N1 1_555 1_555
C1B N1A 1_555 1_555
C1IB N2IB 1_555 1_555
C1MB N1IB 1_555 1_555
C1NB N1MB 1_555 1_555
C2B N2B 1_555 1_555
C2A N2A 1_555 1_555
C2IB N2IB 1_555 1_555
C2NB N2NB 1_555 1_555
C2MB N2MB 1_555 1_555
C3B C2B 1_555 1_555
C3A C2A 1_555 1_555
C3IB C2IB 1_555 1_555
C3NB C2NB 1_555 1_555
C3MB C2MB 1_555 1_555
H2B C3B 1_555 1_555
H2A C3A 1_555 1_555
H2IB C3IB 1_555 1_555
H2NB C3NB 1_555 1_555
H2MB C3MB 1_555 1_555
C4B C3B 1_555 1_555
C4A C3A 1_555 1_555
C4IB C3IB 1_555 1_555
C4NB C3NB 1_555 1_555
C4MB C3MB 1_555 1_555
H3B C4B 1_555 1_555
H3A C4A 1_555 1_555
H3IB C4IB 1_555 1_555
H3NB C4NB 1_555 1_555
H3MB C4MB 1_555 1_555
C5B C4B 1_555 1_555
C5A C4A 1_555 1_555
C5IB C4IB 1_555 1_555
C5NB C4NB 1_555 1_555
C5MB C4MB 1_555 1_555
C6B C5B 1_555 1_555
C6A C5A 1_555 1_555
C6IB C5IB 1_555 1_555
C6NB C5NB 1_555 1_555
C6MB C5MB 1_555 1_555
H4B C6B 1_555 1_555
H4A C6A 1_555 1_555
H4IB C6IB 1_555 1_555
H4NB C6NB 1_555 1_555
H4MB C6MB 1_555 1_555
C7B C2B 1_555 1_555
C7A C2A 1_555 1_555
C7IB C2IB 1_555 1_555
C7NB C2NB 1_555 1_555
C7MB C2MB 1_555 1_555
H5B C7B 1_555 1_555
H5A C7A 1_555 1_555
H5IB C7IB 1_555 1_555
H5NB C7NB 1_555 1_555
H5MB C7MB 1_555 1_555
C8B O1B 1_555 1_555
C8A O1A 1_555 1_555
C8IB O1IB 1_555 1_555
C8NB O1NB 1_555 1_555
C8MB O1MB 1_555 1_555
O3 Cu1BB 1_555 1_555
C6 C7 1_555 1_555
O3IB C8IB 1_555 1_555
N1B C1B 1_555 1_555
N1NB C1NB 1_555 1_555
N2B C1B 1_555 1_555
N2A C1A 1_555 1_555
N2NB C1NB 1_555 1_555
N2MB C1MB 1_555 1_555
C5B C8B 1_555 1_555
C5A C8A 1_555 1_555
C5IB C8IB 1_555 1_555
C5NB C8NB 1_555 1_555
C5MB C8MB 1_555 1_555
C6B C7B 1_555 1_555
C6A C7A 1_555 1_555
C6IB C7IB 1_555 1_555
C6NB C7NB 1_555 1_555
C6MB C7MB 1_555 1_555

#END
