
#######################################################################
#
#                 Cambridge Crystallographic Data Centre
#                                CCDC 
#
#######################################################################
#
# If this CIF has been generated from an entry in the Cambridge 
# Structural Database, then it will include bibliographic, chemical, 
# crystal, experimental, refinement or atomic coordinate data resulting 
# from the CCDC's data processing and validation procedures.
#
#######################################################################

data_ZOZVIV
_chemical_formula_moiety         '(C57 H77 Fe2 N3 Ni1 O14 S1)n,2n(C2 H6 O1 S1)'
_chemical_name_systematic        
"catena-[(\m-4'-(1-naphthyl)-4,2':6',4''-terpyridine)-(\m-oxo)-hexakis(\m-pivalato)-(dimethyl sulfoxide)-di-iron-nickel dimethyl sulfoxide unknown solvate]"
_symmetry_cell_setting           monoclinic
_symmetry_space_group_name_H-M   'P 21/n'
_symmetry_Int_Tables_number      14
_space_group_name_Hall           '-P 2yn'
loop_
_symmetry_equiv_pos_site_id
_symmetry_equiv_pos_as_xyz
1 x,y,z
2 1/2-x,1/2+y,1/2-z
3 -x,-y,-z
4 1/2+x,1/2-y,1/2+z
_cell_length_a                   16.483(4)
_cell_length_b                   23.430(6)
_cell_length_c                   19.877(5)
_cell_angle_alpha                90
_cell_angle_beta                 90.027(6)
_cell_angle_gamma                90
_cell_volume                     7676.43
_exptl_crystal_colour            yellow
_exptl_crystal_description       block
_cell_formula_units_Z            4
_exptl_crystal_recrystallization_method 'dimethyl sulfoxide'
_exptl_crystal_preparation       'sorption properties, redox-behavior'
loop_
_atom_site_label
_atom_site_type_symbol
_atom_site_fract_x
_atom_site_fract_y
_atom_site_fract_z
C1 C 0.1143(10) 0.7982(9) 0.2810(8)
C2 C 0.4111(15) 0.7403(7) 0.464(4)
H1 H 0.3965 0.7792 0.4772
H2 H 0.4414 0.7413 0.4215
H3 H 0.4450 0.7230 0.4991
C3 C 0.0699(13) 0.7541(11) 0.2270(10)
C4 C 0.0844(17) 0.6963(9) 0.2378(12)
H4 H 0.1425 0.6885 0.2329
H5 H 0.0539 0.6738 0.2049
H6 H 0.0669 0.6860 0.2834
C5 C 0.110(2) 0.7665(14) 0.1591(9)
H7 H 0.1578 0.7421 0.1537
H8 H 0.1267 0.8067 0.1574
H9 H 0.0714 0.7588 0.1228
C6 C -0.0190(12) 0.7729(14) 0.2292(19)
H10 H -0.0220 0.8146 0.2270
H11 H -0.0438 0.7596 0.2711
H12 H -0.0481 0.7564 0.1908
C7 C 0.365(2) 0.6415(13) 0.423(2)
H13 H 0.3232 0.6240 0.3944
H14 H 0.3789 0.6156 0.4597
H15 H 0.4135 0.6490 0.3956
C8 C 0.1196(8) 0.8631(8) 0.4569(8)
C9 C 0.0837(11) 0.8719(8) 0.5260(11)
C10 C 0.0669(18) 0.9253(9) 0.5391(11)
H16 H 0.0442 0.9434 0.4988
H17 H 0.1165 0.9452 0.5525
H18 H 0.0272 0.9272 0.5757
C11 C 0.1151(11) 0.8387(10) 0.5824(10)
H19 H 0.1311 0.8007 0.5665
H20 H 0.0729 0.8349 0.6168
H21 H 0.1623 0.8582 0.6016
C12 C -0.0024(13) 0.8434(10) 0.5205(13)
H22 H 0.0038 0.8022 0.5138
H23 H -0.0319 0.8599 0.4824
H24 H -0.0328 0.8504 0.5621
C13 C 0.3901(11) 0.7985(10) 0.2792(9)
C14 C 0.4344(13) 0.7540(10) 0.2330(10)
C15 C 0.4135(13) 0.6938(8) 0.2383(9)
H25 H 0.3565 0.6885 0.2256
H26 H 0.4216 0.6810 0.2847
H27 H 0.4482 0.6716 0.2081
C16 C 0.4129(19) 0.7718(10) 0.1645(11)
H28 H 0.4392 0.8083 0.1543
H29 H 0.3539 0.7762 0.1611
H30 H 0.4312 0.7428 0.1324
C17 C 0.5245(12) 0.7708(16) 0.2406(16)
H31 H 0.5319 0.8104 0.2260
H32 H 0.5579 0.7455 0.2127
H33 H 0.5407 0.7670 0.2878
C18 C 0.3794(8) 0.8637(6) 0.4550(7)
C19 C 0.4185(10) 0.8707(8) 0.5200(9)
C20 C 0.5074(10) 0.8429(11) 0.5165(11)
H34 H 0.5031 0.8028 0.5032
H35 H 0.5333 0.8455 0.5609
H36 H 0.5403 0.8636 0.4835
C21 C 0.4441(13) 0.9270(6) 0.5419(9)
H37 H 0.4692 0.9241 0.5865
H38 H 0.3969 0.9523 0.5442
H39 H 0.4835 0.9424 0.5098
C22 C 0.3915(11) 0.8396(8) 0.5798(8)
H40 H 0.3713 0.8019 0.5665
H41 H 0.3480 0.8609 0.6020
H42 H 0.4372 0.8350 0.6109
C23 C 0.2496(10) 0.9411(8) 0.2000(7)
C24 C 0.2463(8) 0.9515(9) 0.1255(8)
C25 C 0.196(2) 1.0010(11) 0.1081(17)
H43 H 0.1396 0.9934 0.1207
H44 H 0.1993 1.0079 0.0595
H45 H 0.2158 1.0346 0.1323
C26 C 0.3256(14) 0.959(2) 0.1007(17)
H46 H 0.3564 0.9236 0.1066
H47 H 0.3523 0.9899 0.1255
H48 H 0.3233 0.9688 0.0528
C27 C 0.207(3) 0.9047(11) 0.0835(18)
H49 H 0.2339 0.8682 0.0933
H50 H 0.2139 0.9137 0.0356
H51 H 0.1496 0.9021 0.0943
C28 C 0.2516(10) 1.0093(6) 0.3751(7)
C29 C 0.2528(8) 1.0636(6) 0.4119(8)
C30 C 0.2998(17) 1.0610(13) 0.4740(11)
H52 H 0.3391 1.0297 0.4712
H53 H 0.2632 1.0544 0.5121
H54 H 0.3287 1.0972 0.4806
C31 C 0.3016(15) 1.1087(10) 0.3720(12)
H55 H 0.2805 1.1111 0.3260
H56 H 0.3589 1.0976 0.3708
H57 H 0.2963 1.1459 0.3940
C32 C 0.1753(12) 1.0898(16) 0.4260(19)
H58 H 0.1430 1.0914 0.3847
H59 H 0.1839 1.1286 0.4430
H60 H 0.1465 1.0673 0.4599
C33 C 0.9645(7) 0.9371(6) 0.3235(7)
H61 H 0.9611 0.9016 0.3464
C34 C 0.8940(7) 0.9697(6) 0.3107(6)
H62 H 0.8436 0.9547 0.3256
C35 C 0.8932(6) 1.0211(6) 0.2789(6)
C36 C 0.9705(7) 1.0420(6) 0.2558(7)
H63 H 0.9752 1.0759 0.2299
C37 C 1.0355(7) 1.0107(6) 0.2731(7)
H64 H 1.0867 1.0277 0.2641
C38 C 0.8192(7) 1.0538(6) 0.2672(6)
C39 C 0.8226(8) 1.1093(6) 0.2449(8)
H65 H 0.8735 1.1264 0.2354
C40 C 0.7516(10) 1.1403(6) 0.2360(10)
C41 C 0.6772(8) 1.1074(6) 0.2411(8)
H66 H 0.6272 1.1236 0.2269
C42 C 0.6792(7) 1.0535(6) 0.2663(6)
C43 C 0.5349(7) 0.9402(6) 0.3228(7)
H67 H 0.5372 0.9055 0.3474
C44 C 0.6069(7) 0.9686(6) 0.3120(6)
H68 H 0.6569 0.9519 0.3254
C45 C 0.6056(7) 1.0220(6) 0.2811(7)
C46 C 0.5305(7) 1.0427(6) 0.2583(7)
H69 H 0.5259 1.0779 0.2348
C47 C 0.4637(8) 1.0090(7) 0.2720(7)
H70 H 0.4126 1.0241 0.2588
C48 C 0.7502(9) 1.2061(7) 0.2371(10)
C49 C 0.7512(12) 1.2489(9) 0.2842(10)
H71 H 0.7524 1.2377 0.3301
C50 C 0.7508(13) 1.3062(9) 0.2711(11)
H72 H 0.7495 1.3333 0.3066
C51 C 0.7524(8) 1.3233(7) 0.2052(13)
H73 H 0.7526 1.3629 0.1947
C52 C 0.7537(6) 1.2852(8) 0.1560(9)
C53 C 0.7489(12) 1.2273(8) 0.1714(9)
C54 C 0.7563(14) 1.2983(13) 0.0922(13)
H74 H 0.7554 1.3375 0.0801
C55 C 0.7602(16) 1.2585(17) 0.0417(10)
H75 H 0.7660 1.2695 -0.0040
C56 C 0.7554(19) 1.2014(16) 0.0603(15)
H76 H 0.7524 1.1737 0.0255
C57 C 0.7548(16) 1.1824(11) 0.1254(14)
H77 H 0.7580 1.1433 0.1379
N1 N 1.0382(5) 0.9580(5) 0.3018(5)
N2 N 0.4622(6) 0.9575(5) 0.3015(6)
N3 N 0.7503(6) 1.0267(4) 0.2783(5)
O1 O 0.2489(4) 0.8749(3) 0.3416(3)
O2 O 0.2499(5) 0.7228(4) 0.4192(5)
O3 O 0.0954(6) 0.8456(5) 0.2814(6)
O4 O 0.1633(5) 0.7700(4) 0.3170(5)
O5 O 0.1002(5) 0.8946(4) 0.4122(5)
O6 O 0.1660(6) 0.8210(4) 0.4520(5)
O7 O 0.3363(5) 0.7709(4) 0.3172(5)
O8 O 0.4052(7) 0.8470(5) 0.2823(7)
O9 O 0.3326(6) 0.8214(4) 0.4511(5)
O10 O 0.3995(5) 0.8957(4) 0.4129(5)
O11 O 0.3171(5) 0.9362(5) 0.2292(5)
O12 O 0.1823(5) 0.9359(5) 0.2281(4)
O13 O 0.3171(4) 0.9891(4) 0.3615(5)
O14 O 0.1841(5) 0.9882(4) 0.3607(5)
Fe1 Fe 0.24998(11) 0.80353(8) 0.37910(10)
Fe2 Fe 0.15020(9) 0.91336(8) 0.32235(8)
Ni1 Ni 0.34991(9) 0.91323(8) 0.32205(9)
S1 S 0.3300(7) 0.7030(4) 0.4543(7)
N1_2 N 0.0382(5) 0.9580(5) 0.3018(5)
Fe2_2 Fe 1.15020(9) 0.91336(8) 0.32235(8)
C58 C 0.5399(10) 0.9517(12) 0.1034(13)
H78 H 0.5138 0.9169 0.1201
H79 H 0.5228 0.9587 0.0569
H80 H 0.5240 0.9841 0.1316
C59 C 0.6466(19) 1.0094(10) 0.091(2)
H81 H 0.6159 1.0326 0.1233
H82 H 0.6288 1.0184 0.0453
H83 H 0.7046 1.0178 0.0956
O15 O 0.679(3) 0.9067(14) 0.061(2)
S2 S 0.6314(11) 0.9446(9) 0.1058(12)
C60 C -0.134(2) 1.0098(11) 0.0782(17)
H84 H -0.1916 1.0179 0.0704
H85 H -0.1041 1.0139 0.0359
H86 H -0.1126 1.0366 0.1116
C61 C -0.0340(11) 0.9521(14) 0.1024(16)
H87 H -0.0105 0.9155 0.1163
H88 H -0.0157 0.9822 0.1331
H89 H -0.0166 0.9611 0.0565
O16 O -0.142(2) 0.9072(16) 0.054(2)
S3 S -0.1246(12) 0.9482(9) 0.1046(11)
C62? C 0.0892(15) 0.7281(13) 0.477(3)
H90? H 0.0982 0.7561 0.5125
H91? H 0.0555 0.6968 0.4939
H92? H 0.0615 0.7465 0.4389
C63? C 0.209(3) 0.688(2) 0.5285(15)
H93? H 0.2194 0.6472 0.5317
H94? H 0.1688 0.6993 0.5624
H95? H 0.2594 0.7093 0.5361
C64? C 0.295(2) 0.9073(13) 0.0833(14)
C65? C 0.300(2) 1.0026(11) 0.1061(17)
C66? C 0.1632(16) 0.943(2) 0.0934(16)
S4? S 0.1733(8) 0.7036(5) 0.4523(6)
C67? C 0.199(2) 1.0509(18) 0.4752(16)
C68? C 0.3346(15) 1.0908(15) 0.422(2)
C69? C 0.196(2) 1.1055(14) 0.370(2)
loop_
_geom_bond_atom_site_label_1
_geom_bond_atom_site_label_2
_geom_bond_site_symmetry_1
_geom_bond_site_symmetry_2
C1 C3 1_555 1_555
C2 H1 1_555 1_555
H2 C2 1_555 1_555
H3 C2 1_555 1_555
C3 C4 1_555 1_555
C4 H4 1_555 1_555
H5 C4 1_555 1_555
H6 C4 1_555 1_555
C5 C3 1_555 1_555
H7 C5 1_555 1_555
H8 C5 1_555 1_555
H9 C5 1_555 1_555
C6 C3 1_555 1_555
H10 C6 1_555 1_555
H11 C6 1_555 1_555
H12 C6 1_555 1_555
C7 H13 1_555 1_555
H14 C7 1_555 1_555
H15 C7 1_555 1_555
C8 C9 1_555 1_555
C9 C10 1_555 1_555
C10 H16 1_555 1_555
H17 C10 1_555 1_555
H18 C10 1_555 1_555
C11 C9 1_555 1_555
H19 C11 1_555 1_555
H20 C11 1_555 1_555
H21 C11 1_555 1_555
C12 C9 1_555 1_555
H22 C12 1_555 1_555
H23 C12 1_555 1_555
H24 C12 1_555 1_555
C13 C14 1_555 1_555
C14 C15 1_555 1_555
C15 H25 1_555 1_555
H26 C15 1_555 1_555
H27 C15 1_555 1_555
C16 C14 1_555 1_555
H28 C16 1_555 1_555
H29 C16 1_555 1_555
H30 C16 1_555 1_555
C17 C14 1_555 1_555
H31 C17 1_555 1_555
H32 C17 1_555 1_555
H33 C17 1_555 1_555
C18 C19 1_555 1_555
C19 C20 1_555 1_555
C20 H34 1_555 1_555
H35 C20 1_555 1_555
H36 C20 1_555 1_555
C21 C19 1_555 1_555
H37 C21 1_555 1_555
H38 C21 1_555 1_555
H39 C21 1_555 1_555
C22 C19 1_555 1_555
H40 C22 1_555 1_555
H41 C22 1_555 1_555
H42 C22 1_555 1_555
C23 C24 1_555 1_555
C24 C25 1_555 1_555
C25 H43 1_555 1_555
H44 C25 1_555 1_555
H45 C25 1_555 1_555
C26 C24 1_555 1_555
H46 C26 1_555 1_555
H47 C26 1_555 1_555
H48 C26 1_555 1_555
C27 C24 1_555 1_555
H49 C27 1_555 1_555
H50 C27 1_555 1_555
H51 C27 1_555 1_555
C28 C29 1_555 1_555
C29 C30 1_555 1_555
C30 H52 1_555 1_555
H53 C30 1_555 1_555
H54 C30 1_555 1_555
C31 C29 1_555 1_555
H55 C31 1_555 1_555
H56 C31 1_555 1_555
H57 C31 1_555 1_555
C32 C29 1_555 1_555
H58 C32 1_555 1_555
H59 C32 1_555 1_555
H60 C32 1_555 1_555
C33 H61 1_555 1_555
C34 C33 1_555 1_555
H62 C34 1_555 1_555
C35 C34 1_555 1_555
C36 C35 1_555 1_555
H63 C36 1_555 1_555
C37 C36 1_555 1_555
H64 C37 1_555 1_555
C38 C35 1_555 1_555
C39 C38 1_555 1_555
H65 C39 1_555 1_555
C40 C39 1_555 1_555
C41 C40 1_555 1_555
H66 C41 1_555 1_555
C42 C41 1_555 1_555
C43 H67 1_555 1_555
C44 C43 1_555 1_555
H68 C44 1_555 1_555
C45 C42 1_555 1_555
C46 C45 1_555 1_555
H69 C46 1_555 1_555
C47 C46 1_555 1_555
H70 C47 1_555 1_555
C48 C40 1_555 1_555
C49 C48 1_555 1_555
H71 C49 1_555 1_555
C50 C49 1_555 1_555
H72 C50 1_555 1_555
C51 C50 1_555 1_555
H73 C51 1_555 1_555
C52 C51 1_555 1_555
C53 C48 1_555 1_555
C54 C52 1_555 1_555
H74 C54 1_555 1_555
C55 C54 1_555 1_555
H75 C55 1_555 1_555
C56 C55 1_555 1_555
H76 C56 1_555 1_555
C57 C53 1_555 1_555
H77 C57 1_555 1_555
N1 C33 1_555 1_555
N2 C43 1_555 1_555
N3 C38 1_555 1_555
O1 Fe1 1_555 1_555
O2 Fe1 1_555 1_555
O3 C1 1_555 1_555
O4 C1 1_555 1_555
O5 C8 1_555 1_555
O6 C8 1_555 1_555
O7 C13 1_555 1_555
O8 C13 1_555 1_555
O9 C18 1_555 1_555
O10 C18 1_555 1_555
O11 C23 1_555 1_555
O12 C23 1_555 1_555
O13 C28 1_555 1_555
O14 C28 1_555 1_555
Fe1 O4 1_555 1_555
Fe2 O1 1_555 1_555
Ni1 N2 1_555 1_555
S1 C2 1_555 1_555
C58 H78 1_555 1_555
H79 C58 1_555 1_555
H80 C58 1_555 1_555
C59 H81 1_555 1_555
H82 C59 1_555 1_555
H83 C59 1_555 1_555
O15 S2 1_555 1_555
S2 C58 1_555 1_555
C60 H84 1_555 1_555
H85 C60 1_555 1_555
H86 C60 1_555 1_555
C61 H87 1_555 1_555
H88 C61 1_555 1_555
H89 C61 1_555 1_555
O16 S3 1_555 1_555
S3 C60 1_555 1_555
N1_2 Fe2 1_555 1_555
Fe2_2 N1 1_555 1_555
C7 S1 1_555 1_555
C37 N1 1_555 1_555
C42 N3 1_555 1_555
C44 C45 1_555 1_555
C47 N2 1_555 1_555
C52 C53 1_555 1_555
C56 C57 1_555 1_555
O1 Ni1 1_555 1_555
O2 S1 1_555 1_555
O3 Fe2 1_555 1_555
O5 Fe2 1_555 1_555
O6 Fe1 1_555 1_555
O7 Fe1 1_555 1_555
O8 Ni1 1_555 1_555
O9 Fe1 1_555 1_555
O10 Ni1 1_555 1_555
O11 Ni1 1_555 1_555
O12 Fe2 1_555 1_555
O13 Ni1 1_555 1_555
O14 Fe2 1_555 1_555
C59 S2 1_555 1_555
C61 S3 1_555 1_555

#END
