
#######################################################################
#
#                 Cambridge Crystallographic Data Centre
#                                CCDC 
#
#######################################################################
#
# If this CIF has been generated from an entry in the Cambridge 
# Structural Database, then it will include bibliographic, chemical, 
# crystal, experimental, refinement or atomic coordinate data resulting 
# from the CCDC's data processing and validation procedures.
#
#######################################################################

data_NAPFOA
_chemical_formula_moiety         
'(C42 H24 N2 O13 Zn4)n,3n(C5 H11 N1 O1),n(C2 H6 O1)'
_chemical_name_systematic        
"catena-(bis(\m~6~-Nitrilotrisbenzoato)-(\m~4~-oxo)-tetra-zinc(ii) N,N'-diethylformamide ethanol clathrate)"
_symmetry_cell_setting           cubic
_symmetry_space_group_name_H-M   'I a -3'
_symmetry_Int_Tables_number      206
_space_group_name_Hall           '-I 2b 2c 3'
loop_
_symmetry_equiv_pos_site_id
_symmetry_equiv_pos_as_xyz
1 x,y,z
2 1/2-x,-y,1/2+z
3 1/2+x,1/2-y,-z
4 z,x,y
5 -x,1/2+y,1/2-z
6 1/2-z,-x,1/2+y
7 1/2+z,1/2-x,-y
8 -z,1/2+x,1/2-y
9 y,z,x
10 1/2+y,1/2-z,-x
11 -y,1/2+z,1/2-x
12 1/2-y,-z,1/2+x
13 1/2+x,1/2+y,1/2+z
14 -x,1/2-y,z
15 x,-y,1/2-z
16 1/2+z,1/2+x,1/2+y
17 1/2-x,y,-z
18 -z,1/2-x,y
19 z,-x,1/2-y
20 1/2-z,x,-y
21 1/2+y,1/2+z,1/2+x
22 y,-z,1/2-x
23 1/2-y,z,-x
24 -y,1/2-z,x
25 -x,-y,-z
26 1/2+x,y,1/2-z
27 1/2-x,1/2+y,z
28 -z,-x,-y
29 x,1/2-y,1/2+z
30 1/2+z,x,1/2-y
31 1/2-z,1/2+x,y
32 z,1/2-x,1/2+y
33 -y,-z,-x
34 1/2-y,1/2+z,x
35 y,1/2-z,1/2+x
36 1/2+y,z,1/2-x
37 1/2-x,1/2-y,1/2-z
38 x,1/2+y,-z
39 -x,y,1/2+z
40 1/2-z,1/2-x,1/2-y
41 1/2+x,-y,z
42 z,1/2+x,-y
43 -z,x,1/2+y
44 1/2+z,-x,y
45 1/2-y,1/2-z,1/2-x
46 -y,z,1/2+x
47 1/2+y,-z,x
48 y,1/2+z,-x
_cell_length_a                   22.541(5)
_cell_length_b                   22.541(5)
_cell_length_c                   22.541(5)
_cell_angle_alpha                90
_cell_angle_beta                 90
_cell_angle_gamma                90
_cell_volume                     11453
_exptl_crystal_colour            'pale green-yellow'
_exptl_crystal_description       rod
_cell_formula_units_Z            8
_exptl_crystal_preparation       photoluminescent
loop_
_atom_site_label
_atom_site_type_symbol
_atom_site_fract_x
_atom_site_fract_y
_atom_site_fract_z
O1 O 0.2500 0.7500 0.2500
Zn1 Zn 0.23669(5) 0.71183(5) 0.32732(5)
Zn2 Zn 0.29885(5) 0.70115(5) 0.20115(5)
N1 N 0.4000(2) 0.4000(2) 0.4000(2)
O2 O 0.3460(3) 0.6540(4) 0.2934(4)
O3 O 0.2565(3) 0.6079(5) 0.2739(4)
O4 O 0.3319(3) 0.6367(4) 0.2499(4)
O5 O 0.2600(5) 0.6279(4) 0.3129(7)
C1 C 0.3091(3) 0.6104(3) 0.2920(3)
C2 C 0.3330(2) 0.5556(2) 0.3193(2)
C3 C 0.3925(4) 0.5436(4) 0.3252(5)
H1 H 0.4187 0.5711 0.3091
C4 C 0.4159(3) 0.4966(3) 0.3515(4)
H2 H 0.4567 0.4933 0.3562
C5 C 0.3782(3) 0.4520(2) 0.3721(3)
C6 C 0.3183(3) 0.4601(3) 0.3654(3)
H3 H 0.2923 0.4310 0.3789
C7 C 0.2963(3) 0.5099(3) 0.3395(3)
H4 H 0.2554 0.5137 0.3350
C5C C 0.3721(3) 0.3782(3) 0.4520(2)
C4C C 0.3515(4) 0.4159(3) 0.4966(3)
C3C C 0.3252(5) 0.3925(4) 0.5436(4)
C2C C 0.3193(2) 0.3330(2) 0.5556(2)
C1C C 0.2920(3) 0.3091(3) 0.6104(3)
O2C O 0.2934(4) 0.3460(3) 0.6540(4)
O4C O 0.2499(4) 0.3319(3) 0.6367(4)
O3C O 0.2739(4) 0.2565(3) 0.6079(5)
O5C O 0.3129(7) 0.2600(5) 0.6279(4)
C7C C 0.3395(3) 0.2963(3) 0.5099(3)
C6C C 0.3654(3) 0.3183(3) 0.4601(3)
H3C H 0.3789 0.2923 0.4310
H4C H 0.3350 0.2554 0.5137
H1C H 0.3091 0.4187 0.5711
H2C H 0.3562 0.4567 0.4933
C5H C 0.4520(2) 0.3721(3) 0.3782(3)
C4H C 0.4966(3) 0.3515(4) 0.4159(3)
C3H C 0.5436(4) 0.3252(5) 0.3925(4)
C2H C 0.5556(2) 0.3193(2) 0.3330(2)
C1H C 0.6104(3) 0.2920(3) 0.3091(3)
O2H O 0.6540(4) 0.2934(4) 0.3460(3)
O4H O 0.6367(4) 0.2499(4) 0.3319(3)
O3H O 0.6079(5) 0.2739(4) 0.2565(3)
O5H O 0.6279(4) 0.3129(7) 0.2600(5)
C7H C 0.5099(3) 0.3395(3) 0.2963(3)
C6H C 0.4601(3) 0.3654(3) 0.3183(3)
H3H H 0.4310 0.3789 0.2923
H4H H 0.5137 0.3350 0.2554
H1H H 0.5711 0.3091 0.4187
H2H H 0.4933 0.3562 0.4567
N1E N 0.1000(2) 0.6000(2) -0.1000(2)
O2E O 0.2066(4) 0.6540(3) 0.1540(4)
O3E O 0.2261(4) 0.7435(3) 0.1079(5)
O4E O 0.2501(4) 0.6681(3) 0.1367(4)
O5E O 0.1871(7) 0.7400(5) 0.1279(4)
C1E C 0.2080(3) 0.6909(3) 0.1104(3)
C2E C 0.1807(2) 0.6670(2) 0.0556(2)
C3E C 0.1748(5) 0.6075(4) 0.0436(4)
H1E H 0.1909 0.5813 0.0711
C4E C 0.1485(4) 0.5841(3) -0.0034(3)
H2E H 0.1438 0.5433 -0.0067
C5E C 0.1279(3) 0.6218(3) -0.0480(2)
C6E C 0.1346(3) 0.6817(3) -0.0399(3)
H3E H 0.1211 0.7077 -0.0690
C7E C 0.1605(3) 0.7037(3) 0.0099(3)
H4E H 0.1650 0.7446 0.0137
C5K C 0.0480(2) 0.6279(3) -0.1218(3)
C4K C 0.0034(3) 0.6485(4) -0.0841(3)
C3K C -0.0436(4) 0.6748(5) -0.1075(4)
C2K C -0.0556(2) 0.6807(2) -0.1670(2)
C1K C -0.1104(3) 0.7080(3) -0.1909(3)
O2K O -0.1540(4) 0.7066(4) -0.1540(3)
O4K O -0.1367(4) 0.7501(4) -0.1681(3)
O3K O -0.1079(5) 0.7261(4) -0.2435(3)
O5K O -0.1279(4) 0.6871(7) -0.2400(5)
C7K C -0.0099(3) 0.6605(3) -0.2037(3)
C6K C 0.0399(3) 0.6346(3) -0.1817(3)
H3K H 0.0690 0.6211 -0.2077
H4K H -0.0137 0.6650 -0.2446
H1K H -0.0711 0.6909 -0.0813
H2K H 0.0067 0.6438 -0.0433
C5A C 0.1218(3) 0.5480(2) -0.1279(3)
C4A C 0.0841(3) 0.5034(3) -0.1485(4)
C3A C 0.1075(4) 0.4564(4) -0.1748(5)
C2A C 0.1670(2) 0.4444(2) -0.1807(2)
C1A C 0.1909(3) 0.3896(3) -0.2080(3)
O2A O 0.1540(3) 0.3460(4) -0.2066(4)
O4A O 0.1681(3) 0.3633(4) -0.2501(4)
O3A O 0.2435(3) 0.3921(5) -0.2261(4)
O5A O 0.2400(5) 0.3721(4) -0.1871(7)
C7A C 0.2037(3) 0.4901(3) -0.1605(3)
C6A C 0.1817(3) 0.5399(3) -0.1346(3)
H3A H 0.2077 0.5690 -0.1211
H4A H 0.2446 0.4863 -0.1650
H1A H 0.0813 0.4289 -0.1909
H2A H 0.0433 0.5067 -0.1438
Zn2JA Zn 0.20115(5) 0.79885(5) 0.29885(5)
Zn1J Zn 0.28817(5) 0.82732(5) 0.26331(5)
Zn1E Zn 0.17268(5) 0.76331(5) 0.21183(5)
Zn1JA Zn 0.26331(5) 0.78817(5) 0.17268(5)
Zn1TA Zn 0.21183(5) 0.67268(5) 0.23669(5)
Zn1OA Zn 0.32732(5) 0.73669(5) 0.28817(5)
O2TA O 0.1540(4) 0.7066(4) 0.3460(3)
O3OA O 0.2739(4) 0.7565(3) 0.3921(5)
O4TA O 0.1367(4) 0.7501(4) 0.3319(3)
O5OA O 0.3129(7) 0.7600(5) 0.3721(4)
O4J O 0.3633(4) 0.7499(4) 0.1681(3)
Zn1SA Zn 0.28817(5) 0.32732(5) 0.73669(5)
Zn2A Zn 0.20115(5) 0.29885(5) 0.70115(5)
Zn1KA Zn 0.23669(5) 0.21183(5) 0.67268(5)
Zn1C Zn 0.32732(5) 0.23669(5) 0.71183(5)
Zn1NA Zn 0.73669(5) 0.28817(5) 0.32732(5)
Zn2D Zn 0.70115(5) 0.20115(5) 0.29885(5)
Zn1PA Zn 0.67268(5) 0.23669(5) 0.21183(5)
Zn1H Zn 0.71183(5) 0.32732(5) 0.23669(5)
Zn1LA Zn -0.23669(5) 0.71183(5) -0.17268(5)
Zn2B Zn -0.20115(5) 0.79885(5) -0.20115(5)
Zn1QA Zn -0.17268(5) 0.76331(5) -0.28817(5)
Zn1K Zn -0.21183(5) 0.67268(5) -0.26331(5)
Zn1MA Zn 0.17268(5) 0.26331(5) -0.21183(5)
Zn2A_2 Zn 0.20115(5) 0.29885(5) -0.29885(5)
Zn1SA_2 Zn 0.28817(5) 0.32732(5) -0.26331(5)
Zn1A Zn 0.26331(5) 0.28817(5) -0.17268(5)
O4JA O 0.1681(3) 0.8633(4) 0.2501(4)
O4OA O 0.2499(4) 0.8319(3) 0.3633(4)
O2OA O 0.2934(4) 0.8460(3) 0.3460(4)
O3JA O 0.2435(3) 0.8921(5) 0.2261(4)
O5J O 0.3721(4) 0.8129(7) 0.2400(5)
O5JA O 0.2400(5) 0.8721(4) 0.1871(7)
O2JA O 0.1540(3) 0.8460(4) 0.2066(4)
O3TA O 0.1079(5) 0.7261(4) 0.2565(3)
O5TA O 0.1279(4) 0.6871(7) 0.2600(5)
O2J O 0.3460(4) 0.7934(4) 0.1540(3)
O3J O 0.3921(5) 0.7739(4) 0.2435(3)
loop_
_geom_bond_atom_site_label_1
_geom_bond_atom_site_label_2
_geom_bond_site_symmetry_1
_geom_bond_site_symmetry_2
O1 Zn1 1_555 1_555
Zn1 O5 1_555 1_555
Zn2 O1 1_555 1_555
N1 C5 1_555 1_555
O2 O4 1_555 1_555
O3 O5 1_555 1_555
O4 Zn2 1_555 1_555
O5 C1 1_555 1_555
C1 O2 1_555 1_555
C2 C1 1_555 1_555
C3 C2 1_555 1_555
H1 C3 1_555 1_555
C4 C3 1_555 1_555
H2 C4 1_555 1_555
C5 C4 1_555 1_555
C6 C5 1_555 1_555
H3 C6 1_555 1_555
C7 C2 1_555 1_555
H4 C7 1_555 1_555
C5C N1 1_555 1_555
C4C C5C 1_555 1_555
C3C C4C 1_555 1_555
C2C C3C 1_555 1_555
C1C C2C 1_555 1_555
O2C C1C 1_555 1_555
O4C C1C 1_555 1_555
O3C C1C 1_555 1_555
O5C C1C 1_555 1_555
C7C C2C 1_555 1_555
C6C C5C 1_555 1_555
H3C C6C 1_555 1_555
H4C C7C 1_555 1_555
H1C C3C 1_555 1_555
H2C C4C 1_555 1_555
C5H N1 1_555 1_555
C4H C5H 1_555 1_555
C3H C4H 1_555 1_555
C2H C3H 1_555 1_555
C1H C2H 1_555 1_555
O2H C1H 1_555 1_555
O4H C1H 1_555 1_555
O3H C1H 1_555 1_555
O5H C1H 1_555 1_555
C7H C2H 1_555 1_555
C6H C5H 1_555 1_555
H3H C6H 1_555 1_555
H4H C7H 1_555 1_555
H1H C3H 1_555 1_555
H2H C4H 1_555 1_555
N1E C5E 1_555 1_555
O2E O4E 1_555 1_555
O3E O5E 1_555 1_555
O4E Zn2 1_555 1_555
O5E C1E 1_555 1_555
C1E O2E 1_555 1_555
C2E C1E 1_555 1_555
C3E C2E 1_555 1_555
H1E C3E 1_555 1_555
C4E C3E 1_555 1_555
H2E C4E 1_555 1_555
C5E C4E 1_555 1_555
C6E C5E 1_555 1_555
H3E C6E 1_555 1_555
C7E C2E 1_555 1_555
H4E C7E 1_555 1_555
C5K N1E 1_555 1_555
C4K C5K 1_555 1_555
C3K C4K 1_555 1_555
C2K C3K 1_555 1_555
C1K C2K 1_555 1_555
O2K C1K 1_555 1_555
O4K C1K 1_555 1_555
O3K C1K 1_555 1_555
O5K C1K 1_555 1_555
C7K C2K 1_555 1_555
C6K C5K 1_555 1_555
H3K C6K 1_555 1_555
H4K C7K 1_555 1_555
H1K C3K 1_555 1_555
H2K C4K 1_555 1_555
C5A N1E 1_555 1_555
C4A C5A 1_555 1_555
C3A C4A 1_555 1_555
C2A C3A 1_555 1_555
C1A C2A 1_555 1_555
O2A C1A 1_555 1_555
O4A C1A 1_555 1_555
O3A C1A 1_555 1_555
O5A C1A 1_555 1_555
C7A C2A 1_555 1_555
C6A C5A 1_555 1_555
H3A C6A 1_555 1_555
H4A C7A 1_555 1_555
H1A C3A 1_555 1_555
H2A C4A 1_555 1_555
Zn2JA O1 1_555 1_555
Zn1J O1 1_555 1_555
Zn1E O1 1_555 1_555
Zn1JA O1 1_555 1_555
Zn1TA O1 1_555 1_555
Zn1OA O1 1_555 1_555
O2TA Zn1 1_555 1_555
O3OA Zn1 1_555 1_555
O4TA Zn1 1_555 1_555
O5OA Zn1 1_555 1_555
O4J Zn2 1_555 1_555
Zn1SA O2C 1_555 1_555
Zn2A O4C 1_555 1_555
Zn1KA O3C 1_555 1_555
Zn1C O5C 1_555 1_555
Zn1NA O2H 1_555 1_555
Zn2D O4H 1_555 1_555
Zn1PA O3H 1_555 1_555
Zn1H O5H 1_555 1_555
Zn1LA O2K 1_555 1_555
Zn2B O4K 1_555 1_555
Zn1QA O3K 1_555 1_555
Zn1K O5K 1_555 1_555
Zn1MA O2A 1_555 1_555
Zn2A_2 O4A 1_555 1_555
Zn1SA_2 O3A 1_555 1_555
Zn1A O5A 1_555 1_555
O4JA Zn2JA 1_555 1_555
O4OA Zn2JA 1_555 1_555
O2OA Zn1J 1_555 1_555
O3JA Zn1J 1_555 1_555
O5J Zn1J 1_555 1_555
O5JA Zn1J 1_555 1_555
O2JA Zn1E 1_555 1_555
O3TA Zn1E 1_555 1_555
O5TA Zn1E 1_555 1_555
O2J Zn1JA 1_555 1_555
O3J Zn1OA 1_555 1_555
Zn1 Zn2JA 1_555 1_555
Zn1 Zn1TA 1_555 1_555
Zn1 Zn1OA 1_555 1_555
Zn2 Zn1JA 1_555 1_555
Zn2 Zn1TA 1_555 1_555
Zn2 Zn1OA 1_555 1_555
O2 Zn1OA 1_555 1_555
O3 C1 1_555 1_555
O3 Zn1TA 1_555 1_555
O4 C1 1_555 1_555
O4 Zn1OA 1_555 1_555
O5 Zn1TA 1_555 1_555
C6 C7 1_555 1_555
O2C O4C 1_555 1_555
O4C Zn1SA 1_555 1_555
O3C O5C 1_555 1_555
O5C Zn1KA 1_555 1_555
C7C C6C 1_555 1_555
O2H O4H 1_555 1_555
O4H Zn1NA 1_555 1_555
O3H O5H 1_555 1_555
O5H Zn1PA 1_555 1_555
C7H C6H 1_555 1_555
O2E Zn1TA 1_555 1_555
O3E Zn1JA 1_555 1_555
O3E C1E 1_555 1_555
O4E Zn1TA 1_555 1_555
O4E C1E 1_555 1_555
O5E Zn1E 1_555 1_555
O5E Zn1JA 1_555 1_555
C6E C7E 1_555 1_555
O2K O4K 1_555 1_555
O4K Zn1LA 1_555 1_555
O3K O5K 1_555 1_555
O5K Zn1QA 1_555 1_555
C7K C6K 1_555 1_555
O2A O4A 1_555 1_555
O4A Zn1MA 1_555 1_555
O3A O5A 1_555 1_555
O5A Zn1SA_2 1_555 1_555
C7A C6A 1_555 1_555
Zn2JA Zn1J 1_555 1_555
Zn2JA Zn1E 1_555 1_555
Zn2JA O4TA 1_555 1_555
Zn1J Zn1OA 1_555 1_555
Zn1J Zn1JA 1_555 1_555
Zn1J O4OA 1_555 1_555
Zn1E Zn1JA 1_555 1_555
Zn1E Zn1TA 1_555 1_555
Zn1E O4JA 1_555 1_555
Zn1JA O4J 1_555 1_555
Zn1JA O5JA 1_555 1_555
Zn1TA O5TA 1_555 1_555
Zn1OA O5J 1_555 1_555
Zn1OA O5OA 1_555 1_555
O2TA O4TA 1_555 1_555
O3OA O5OA 1_555 1_555
O4J O2J 1_555 1_555
Zn1SA Zn1C 1_555 1_555
Zn1SA Zn2A 1_555 1_555
Zn2A Zn1KA 1_555 1_555
Zn1KA Zn1C 1_555 1_555
Zn1NA Zn1H 1_555 1_555
Zn1NA Zn2D 1_555 1_555
Zn2D Zn1PA 1_555 1_555
Zn1PA Zn1H 1_555 1_555
Zn1LA Zn1K 1_555 1_555
Zn1LA Zn2B 1_555 1_555
Zn2B Zn1QA 1_555 1_555
Zn1QA Zn1K 1_555 1_555
Zn1MA Zn1A 1_555 1_555
Zn1MA Zn2A_2 1_555 1_555
Zn2A_2 Zn1SA_2 1_555 1_555
Zn1SA_2 Zn1A 1_555 1_555
O4JA O2JA 1_555 1_555
O4OA O2OA 1_555 1_555
O3JA O5JA 1_555 1_555
O5J O3J 1_555 1_555
O3TA O5TA 1_555 1_555

#END
