
#######################################################################
#
#                 Cambridge Crystallographic Data Centre
#                                CCDC 
#
#######################################################################
#
# If this CIF has been generated from an entry in the Cambridge 
# Structural Database, then it will include bibliographic, chemical, 
# crystal, experimental, refinement or atomic coordinate data resulting 
# from the CCDC's data processing and validation procedures.
#
#######################################################################

data_NAPFUG
_chemical_formula_moiety         '(C42 H24 N2 O13 Zn4)n'
_chemical_name_systematic        
catena-(bis(\m~6~-Nitrilotrisbenzoato)-(\m~4~-oxo)-tetra-zinc(ii))
_symmetry_cell_setting           cubic
_symmetry_space_group_name_H-M   'P a -3'
_symmetry_Int_Tables_number      205
_space_group_name_Hall           '-P 2ac 2ab 3'
loop_
_symmetry_equiv_pos_site_id
_symmetry_equiv_pos_as_xyz
1 x,y,z
2 1/2-x,-y,1/2+z
3 1/2+x,1/2-y,-z
4 z,x,y
5 -x,1/2+y,1/2-z
6 1/2-z,-x,1/2+y
7 1/2+z,1/2-x,-y
8 -z,1/2+x,1/2-y
9 y,z,x
10 1/2+y,1/2-z,-x
11 -y,1/2+z,1/2-x
12 1/2-y,-z,1/2+x
13 -x,-y,-z
14 1/2+x,y,1/2-z
15 1/2-x,1/2+y,z
16 -z,-x,-y
17 x,1/2-y,1/2+z
18 1/2+z,x,1/2-y
19 1/2-z,1/2+x,y
20 z,1/2-x,1/2+y
21 -y,-z,-x
22 1/2-y,1/2+z,x
23 y,1/2-z,1/2+x
24 1/2+y,z,1/2-x
_cell_length_a                   22.393(5)
_cell_length_b                   22.393(5)
_cell_length_c                   22.393(5)
_cell_angle_alpha                90
_cell_angle_beta                 90
_cell_angle_gamma                90
_cell_volume                     11228.9
_exptl_crystal_colour            'pale yellow'
_exptl_crystal_description       rod-like
_cell_formula_units_Z            8
_exptl_crystal_preparation       photoluminescent
loop_
_atom_site_label
_atom_site_type_symbol
_atom_site_fract_x
_atom_site_fract_y
_atom_site_fract_z
O1 O 0.24977(19) 0.75023(19) 0.25023(19)
Zn1 Zn 0.19954(3) 0.80046(3) 0.30046(3)
Zn2 Zn 0.22345(3) 0.66780(3) 0.25134(3)
O2 O 0.1519(3) 0.6646(3) 0.2980(4)
O3 O 0.1272(2) 0.7572(2) 0.3238(2)
N1 N -0.1012(3) 0.6012(3) 0.3988(3)
C1 C 0.1166(3) 0.7026(3) 0.3190(3)
C2 C 0.0594(3) 0.6782(3) 0.3404(3)
C3 C 0.0140(4) 0.7131(3) 0.3609(4)
H1 H 0.0193 0.7543 0.3631
C4 C -0.0387(3) 0.6891(3) 0.3782(4)
H2 H -0.0697 0.7140 0.3901
C5 C -0.0472(3) 0.6272(3) 0.3782(3)
C6 C -0.0011(4) 0.5915(4) 0.3588(5)
H3 H -0.0058 0.5503 0.3589
C7 C 0.05124(13) 0.61577(12) 0.33962(12)
H4 H 0.0817 0.5911 0.3259
O4 O 0.20272(13) 0.63892(12) 0.17219(12)
O5 O 0.20526(13) 0.72143(12) 0.11845(12)
N2 N 0.05747(13) 0.55747(12) -0.05747(12)
C8 C 0.19018(13) 0.66854(12) 0.12692(12)
C9 C 0.15490(13) 0.64029(12) 0.08016(12)
C10 C 0.14357(13) 0.57774(12) 0.08021(12)
H5 H 0.1578 0.5542 0.1114
C11 C 0.1120(4) 0.5520(3) 0.0349(3)
H6 H 0.1056 0.5110 0.0350
C12 C 0.0898(3) 0.5853(3) -0.0102(3)
C13 C 0.1004(4) 0.6469(4) -0.0119(4)
H7 H 0.0863 0.6698 -0.0436
C14 C 0.1317(4) 0.6729(4) 0.0334(4)
H8 H 0.1376 0.7140 0.0327
Zn1D Zn -0.19954(3) 0.30046(3) 0.19954(3)
Zn1B Zn -0.30046(3) 0.69954(3) 0.69954(3)
Zn2J Zn 0.33220(3) 0.75134(3) 0.27655(3)
Zn2E Zn 0.24866(3) 0.77655(3) 0.16780(3)
Zn2F Zn -0.24866(3) 0.27655(3) 0.33220(3)
Zn2K Zn -0.16780(3) 0.74866(3) 0.72345(3)
Zn2G Zn -0.25134(3) 0.72345(3) -0.16780(3)
Zn2K_2 Zn -0.16780(3) 0.74866(3) -0.27655(3)
Zn2I Zn 0.16780(3) 0.24866(3) -0.22345(3)
Zn2A Zn 0.27655(3) 0.33220(3) -0.24866(3)
O2F O -0.2020(4) 0.3481(3) 0.3354(3)
O2K O -0.1646(3) 0.7020(4) 0.6519(3)
O2J O 0.3354(3) 0.7980(4) 0.3481(3)
O2E O 0.2020(4) 0.8481(3) 0.1646(3)
O3F O -0.1762(2) 0.3728(2) 0.2428(2)
O3K O -0.2572(2) 0.6762(2) 0.6272(2)
O3E O 0.1762(2) 0.8728(2) 0.2572(2)
O3J O 0.2428(2) 0.8238(2) 0.3728(2)
C1F C -0.1810(3) 0.3834(3) 0.2974(3)
C1K C -0.2026(3) 0.6810(3) 0.6166(3)
C2F C -0.1596(3) 0.4406(3) 0.3218(3)
C2K C -0.1782(3) 0.6596(3) 0.5594(3)
C3F C -0.1391(4) 0.4860(4) 0.2869(3)
C3K C -0.2131(3) 0.6391(4) 0.5140(4)
H1F H -0.1369 0.4807 0.2457
H1K H -0.2543 0.6369 0.5193
C4F C -0.1218(4) 0.5387(3) 0.3109(3)
C4K C -0.1891(3) 0.6218(4) 0.4613(3)
H2F H -0.1099 0.5697 0.2860
H2K H -0.2140 0.6099 0.4303
C5F C -0.1218(3) 0.5472(3) 0.3728(3)
C5K C -0.1272(3) 0.6218(3) 0.4528(3)
C6F C -0.1412(5) 0.5011(4) 0.4085(4)
C6K C -0.0915(4) 0.6412(5) 0.4989(4)
H3F H -0.1411 0.5058 0.4497
H3K H -0.0503 0.6411 0.4942
C7F C -0.16038(12) 0.44876(13) 0.38423(12)
C7K C -0.11577(12) 0.66038(12) 0.55124(13)
H4F H -0.1741 0.4183 0.4089
H4K H -0.0911 0.6741 0.5817
O4G O -0.17219(12) 0.70272(13) -0.13892(12)
O4I O 0.13892(12) 0.32781(12) -0.20272(13)
O4J O 0.36108(12) 0.67219(12) 0.29728(13)
O4E O 0.32781(12) 0.79728(13) 0.13892(12)
O5G O -0.11845(12) 0.70526(13) -0.22143(12)
O5I O 0.22143(12) 0.38155(12) -0.20526(13)
O5J O 0.27857(12) 0.61845(12) 0.29474(13)
O5E O 0.38155(12) 0.79474(13) 0.22143(12)
C8G C -0.12692(12) 0.69018(13) -0.16854(12)
C8I C 0.16854(12) 0.37308(12) -0.19018(13)
C9G C -0.08016(12) 0.65490(13) -0.14029(12)
C9I C 0.14029(12) 0.41984(12) -0.15490(13)
C10G C -0.08021(12) 0.64357(13) -0.07774(12)
C10I C 0.07774(12) 0.41979(12) -0.14357(13)
H5G H -0.1114 0.6578 -0.0542
H5I H 0.0542 0.3886 -0.1578
C11G C -0.0349(3) 0.6120(4) -0.0520(3)
C11I C 0.0520(3) 0.4651(3) -0.1120(4)
H6G H -0.0350 0.6056 -0.0110
H6I H 0.0110 0.4650 -0.1056
C12G C 0.0102(3) 0.5898(3) -0.0853(3)
C12I C 0.0853(3) 0.5102(3) -0.0898(3)
C13G C 0.0119(4) 0.6004(4) -0.1469(4)
C13I C 0.1469(4) 0.5119(4) -0.1004(4)
H7G H 0.0436 0.5863 -0.1698
H7I H 0.1698 0.5436 -0.0863
C14G C -0.0334(4) 0.6317(4) -0.1729(4)
C14I C 0.1729(4) 0.4666(4) -0.1317(4)
H8G H -0.0327 0.6376 -0.2140
H8I H 0.2140 0.4673 -0.1376
loop_
_geom_bond_atom_site_label_1
_geom_bond_atom_site_label_2
_geom_bond_site_symmetry_1
_geom_bond_site_symmetry_2
O1 Zn1 1_555 1_555
Zn1 O3 1_555 1_555
Zn2 O1 1_555 1_555
O2 Zn2 1_555 1_555
O3 C1 1_555 1_555
N1 C5 1_555 1_555
C1 O2 1_555 1_555
C2 C1 1_555 1_555
C3 C2 1_555 1_555
H1 C3 1_555 1_555
C4 C3 1_555 1_555
H2 C4 1_555 1_555
C5 C4 1_555 1_555
C6 C5 1_555 1_555
H3 C6 1_555 1_555
C7 C2 1_555 1_555
H4 C7 1_555 1_555
O4 Zn2 1_555 1_555
O5 C8 1_555 1_555
N2 C12 1_555 1_555
C8 O4 1_555 1_555
C9 C8 1_555 1_555
C10 C9 1_555 1_555
H5 C10 1_555 1_555
C11 C10 1_555 1_555
H6 C11 1_555 1_555
C12 C11 1_555 1_555
C13 C12 1_555 1_555
H7 C13 1_555 1_555
C14 C9 1_555 1_555
H8 C14 1_555 1_555
Zn1D O3F 1_555 1_555
Zn1B O3K 1_555 1_555
Zn2J O1 1_555 1_555
Zn2E O1 1_555 1_555
Zn2F O2F 1_555 1_555
Zn2K O2K 1_555 1_555
Zn2G O4G 1_555 1_555
Zn2K_2 O5G 1_555 1_555
Zn2I O4I 1_555 1_555
Zn2A O5I 1_555 1_555
O2F C1F 1_555 1_555
O2K C1K 1_555 1_555
O2J Zn2J 1_555 1_555
O2E Zn2E 1_555 1_555
O3F C1F 1_555 1_555
O3K C1K 1_555 1_555
O3E Zn1 1_555 1_555
O3J Zn1 1_555 1_555
C1F C2F 1_555 1_555
C1K C2K 1_555 1_555
C2F C3F 1_555 1_555
C2K C3K 1_555 1_555
C3F H1F 1_555 1_555
C3K H1K 1_555 1_555
C4F C3F 1_555 1_555
C4K C3K 1_555 1_555
H2F C4F 1_555 1_555
H2K C4K 1_555 1_555
C5F N1 1_555 1_555
C5K N1 1_555 1_555
C6F C5F 1_555 1_555
C6K C5K 1_555 1_555
H3F C6F 1_555 1_555
H3K C6K 1_555 1_555
C7F C2F 1_555 1_555
C7K C2K 1_555 1_555
H4F C7F 1_555 1_555
H4K C7K 1_555 1_555
O4G C8G 1_555 1_555
O4I C8I 1_555 1_555
O4J Zn2J 1_555 1_555
O4E Zn2E 1_555 1_555
O5G C8G 1_555 1_555
O5I C8I 1_555 1_555
O5J Zn2 1_555 1_555
O5E Zn2J 1_555 1_555
C8G C9G 1_555 1_555
C8I C9I 1_555 1_555
C9G C10G 1_555 1_555
C9I C10I 1_555 1_555
C10G H5G 1_555 1_555
C10I H5I 1_555 1_555
C11G C10G 1_555 1_555
C11I C10I 1_555 1_555
H6G C11G 1_555 1_555
H6I C11I 1_555 1_555
C12G N2 1_555 1_555
C12I N2 1_555 1_555
C13G C12G 1_555 1_555
C13I C12I 1_555 1_555
H7G C13G 1_555 1_555
H7I C13I 1_555 1_555
C14G C9G 1_555 1_555
C14I C9I 1_555 1_555
H8G C14G 1_555 1_555
H8I C14I 1_555 1_555
C6 C7 1_555 1_555
O5 Zn2E 1_555 1_555
C13 C14 1_555 1_555
C4F C5F 1_555 1_555
C4K C5K 1_555 1_555
C6F C7F 1_555 1_555
C6K C7K 1_555 1_555
C11G C12G 1_555 1_555
C11I C12I 1_555 1_555
C13G C14G 1_555 1_555
C13I C14I 1_555 1_555

#END
