
#######################################################################
#
#                 Cambridge Crystallographic Data Centre
#                                CCDC 
#
#######################################################################
#
# If this CIF has been generated from an entry in the Cambridge 
# Structural Database, then it will include bibliographic, chemical, 
# crystal, experimental, refinement or atomic coordinate data resulting 
# from the CCDC's data processing and validation procedures.
#
#######################################################################

data_XADCIQ
_chemical_formula_moiety         '(C16 H12 Cu2 O12)n,n(C5 H11 N1 O1)'
_chemical_name_systematic        
'catena-(bis(\m~4~-2-Hydroxybenzene-1,4-dicarboxylato)-diaqua-di-copper diethylformamide solvate)'
_symmetry_cell_setting           tetragonal
_symmetry_space_group_name_H-M   'P 4/n m m'
_symmetry_Int_Tables_number      129
_space_group_name_Hall           '-P 4a 2a'
loop_
_symmetry_equiv_pos_site_id
_symmetry_equiv_pos_as_xyz
1 x,y,z
2 1/2+x,-y,-z
3 1/2-x,1/2-y,z
4 -x,1/2+y,-z
5 1/2+y,1/2+x,-z
6 y,1/2-x,z
7 1/2-y,x,z
8 -y,-x,-z
9 -x,-y,-z
10 1/2-x,y,z
11 1/2+x,1/2+y,-z
12 x,1/2-y,z
13 1/2-y,1/2-x,z
14 -y,1/2+x,-z
15 1/2+y,-x,-z
16 y,x,z
_cell_length_a                   10.867(2)
_cell_length_b                   10.867(2)
_cell_length_c                   16.175(3)
_cell_angle_alpha                90
_cell_angle_beta                 90
_cell_angle_gamma                90
_cell_volume                     1910.13
_cell_formula_units_Z            2
loop_
_atom_site_label
_atom_site_type_symbol
_atom_site_fract_x
_atom_site_fract_y
_atom_site_fract_z
Cu1 Cu 0.2500 0.2500 0.20001(11)
Cu2 Cu 0.2500 0.2500 0.36307(12)
C1 C 0.0169(8) 0.2500 0.2820(5)
C2 C -0.1207(9) 0.2500 0.2817(5)
C3 C -0.1864(10) 0.2500 0.3576(7)
C4 C -0.1857(8) 0.2500 0.2075(5)
O1 O 0.0691(5) 0.2500 0.2127(3)
O2 O 0.0714(6) 0.2500 0.3511(4)
O3 O -0.132(2) 0.2500 0.1382(14)
H1 H -0.0575 0.2500 0.1452
O4 O -0.140(3) 0.2500 0.4361(17)
H2 H -0.0645 0.2500 0.4342
O5 O 0.2500 0.2500 0.4981(11)
O6 O 0.2500 0.2500 0.0664(7)
C1B C -0.5169(8) 0.2500 0.2820(5)
C2B C -0.3793(9) 0.2500 0.2817(5)
C3B C -0.3136(10) 0.2500 0.3576(7)
C4B C -0.3143(8) 0.2500 0.2075(5)
O1B O -0.5691(5) 0.2500 0.2127(3)
O2B O -0.5714(6) 0.2500 0.3511(4)
O3B O -0.368(2) 0.2500 0.1382(14)
H1B H -0.4425 0.2500 0.1452
O4B O -0.360(3) 0.2500 0.4361(17)
H2B H -0.4355 0.2500 0.4342
C1E C 0.2500 0.4831(8) 0.2820(5)
C2E C 0.2500 0.6207(9) 0.2817(5)
C3E C 0.2500 0.6864(10) 0.3576(7)
C4E C 0.2500 0.6857(8) 0.2075(5)
O1E O 0.2500 0.4309(5) 0.2127(3)
O2E O 0.2500 0.4286(6) 0.3511(4)
O3E O 0.2500 0.632(2) 0.1382(14)
H1E H 0.2500 0.5575 0.1452
O4E O 0.2500 0.640(3) 0.4361(17)
H2E H 0.2500 0.5645 0.4342
C1F C 0.2500 1.0169(8) 0.2820(5)
C2F C 0.2500 0.8793(9) 0.2817(5)
C3F C 0.2500 0.8136(10) 0.3576(7)
C4F C 0.2500 0.8143(8) 0.2075(5)
O1F O 0.2500 1.0691(5) 0.2127(3)
O2F O 0.2500 1.0714(6) 0.3511(4)
O3F O 0.2500 0.868(2) 0.1382(14)
H1F H 0.2500 0.9425 0.1452
O4F O 0.2500 0.860(3) 0.4361(17)
H2F H 0.2500 0.9355 0.4342
Cu1_2 Cu -0.7500 0.2500 0.20001(11)
Cu1_3 Cu 0.2500 1.2500 0.20001(11)
Cu2_2 Cu -0.7500 0.2500 0.36307(12)
Cu2_3 Cu 0.2500 1.2500 0.36307(12)
O1B_2 O 0.4309(5) 0.2500 0.2127(3)
O1F_2 O 0.2500 0.0691(5) 0.2127(3)
O2B_2 O 0.4286(6) 0.2500 0.3511(4)
O2F_2 O 0.2500 0.0714(6) 0.3511(4)
loop_
_geom_bond_atom_site_label_1
_geom_bond_atom_site_label_2
_geom_bond_site_symmetry_1
_geom_bond_site_symmetry_2
Cu1 O1 1_555 1_555
Cu2 O2 1_555 1_555
C1 C2 1_555 1_555
C2 C3 1_555 1_555
C3 O4 1_555 1_555
C4 C2 1_555 1_555
O1 C1 1_555 1_555
O2 C1 1_555 1_555
O3 C4 1_555 1_555
H1 O3 1_555 1_555
O4 H2 1_555 1_555
O5 Cu2 1_555 1_555
O6 Cu1 1_555 1_555
C1B C2B 1_555 1_555
C2B C3B 1_555 1_555
C3B C3 1_555 1_555
C4B C4 1_555 1_555
O1B C1B 1_555 1_555
O2B C1B 1_555 1_555
O3B C4B 1_555 1_555
H1B O3B 1_555 1_555
O4B C3B 1_555 1_555
H2B O4B 1_555 1_555
C1E C2E 1_555 1_555
C2E C3E 1_555 1_555
C3E O4E 1_555 1_555
C4E C2E 1_555 1_555
O1E Cu1 1_555 1_555
O2E Cu2 1_555 1_555
O3E C4E 1_555 1_555
H1E O3E 1_555 1_555
O4E H2E 1_555 1_555
C1F C2F 1_555 1_555
C2F C3F 1_555 1_555
C3F C3E 1_555 1_555
C4F C4E 1_555 1_555
O1F C1F 1_555 1_555
O2F C1F 1_555 1_555
O3F C4F 1_555 1_555
H1F O3F 1_555 1_555
O4F C3F 1_555 1_555
H2F O4F 1_555 1_555
Cu1_2 O1B 1_555 1_555
Cu1_3 O1F 1_555 1_555
Cu2_2 O2B 1_555 1_555
Cu2_3 O2F 1_555 1_555
O1B_2 Cu1 1_555 1_555
O1F_2 Cu1 1_555 1_555
O2B_2 Cu2 1_555 1_555
O2F_2 Cu2 1_555 1_555
C2B C4B 1_555 1_555
C1E O1E 1_555 1_555
C1E O2E 1_555 1_555
C2F C4F 1_555 1_555

#END
