
#######################################################################
#
#                 Cambridge Crystallographic Data Centre
#                                CCDC 
#
#######################################################################
#
# If this CIF has been generated from an entry in the Cambridge 
# Structural Database, then it will include bibliographic, chemical, 
# crystal, experimental, refinement or atomic coordinate data resulting 
# from the CCDC's data processing and validation procedures.
#
#######################################################################

data_DATMET
_chemical_formula_moiety         '(C36 H52 Ca1 Cu6 N6 O21)n,13(H2 O1)'
_chemical_name_systematic        
"catena-[tris(\m-2,2'-[(1,2-dioxoethane-1,2-diyl)bis(azanidediyl)]bis(4-methylpentanoate))-bis(\m-hydroxo)-(\m-aqua)-calcium-hexa-copper unknown solvate tridecahydrate]"
_symmetry_cell_setting           hexagonal
_symmetry_space_group_name_H-M   'P 63'
_symmetry_Int_Tables_number      173
_space_group_name_Hall           'P 6c'
loop_
_symmetry_equiv_pos_site_id
_symmetry_equiv_pos_as_xyz
1 x,y,z
2 -y,x-y,z
3 -x+y,-x,z
4 -x,-y,1/2+z
5 y,-x+y,1/2+z
6 x-y,x,1/2+z
_cell_length_a                   17.783(3)
_cell_length_b                   17.783(3)
_cell_length_c                   12.889(2)
_cell_angle_alpha                90
_cell_angle_beta                 90
_cell_angle_gamma                120
_cell_volume                     3529.88
_exptl_crystal_colour            blue
_exptl_crystal_description       hexagonal/prism
_cell_formula_units_Z            2
_exptl_crystal_recrystallization_method water/methanol
_exptl_crystal_preparation       porous
loop_
_atom_site_label
_atom_site_type_symbol
_atom_site_fract_x
_atom_site_fract_y
_atom_site_fract_z
Cu1 Cu 0.8632(3) 0.4171(3) 0.2343(2)
Cu2 Cu 0.8627(3) 0.4197(3) 0.4952(2)
Ca1 Ca 0.6667 0.3333 0.3642(18)
O1 O 0.8235(8) 0.3578(8) 0.363(3)
O2 O 0.9741(18) 0.4182(18) 0.219(3)
O3 O 0.7611(16) 0.4394(15) 0.232(2)
O4 O 0.712(3) 0.516(4) 0.149(3)
O5 O 1.2341(18) 0.559(2) -0.003(2)
O6 O 1.2928(18) 0.4951(26) 0.0895(18)
O7 O 1.0177(17) 0.571(2) 0.014(2)
N1 N 0.9059(19) 0.509(2) 0.127(2)
N2 N 1.098(2) 0.503(3) 0.105(4)
C1 C 0.978(3) 0.527(3) 0.088(4)
C2 C 1.017(3) 0.479(3) 0.142(4)
C3 C 0.7676(19) 0.4925(19) 0.160(2)
C4 C 1.237(3) 0.515(5) 0.075(6)
C5 C 1.141(3) 0.449(2) 0.122(3)
H1 H 1.1517 0.4541 0.1983
C6 C 1.105(2) 0.353(2) 0.101(3)
H2 H 1.0456 0.3227 0.1332
C7 C 1.091(3) 0.332(3) -0.012(3)
H3 H 1.0603 0.3597 -0.0419
H4 H 1.0569 0.2694 -0.0211
H5 H 1.1476 0.3547 -0.0458
C8 C 1.156(4) 0.313(4) 0.155(5)
H6 H 1.1275 0.2507 0.1388
H7 H 1.1559 0.3207 0.2301
H8 H 1.2156 0.3420 0.1292
C9 C 0.843(2) 0.533(3) 0.086(2)
H9 H 0.8700 0.5972 0.0891
C10 C 0.8030 0.5016 -0.0245
H10 H 0.7432 0.4564 -0.0027
C11 C 0.826(6) 0.442(5) -0.089(6)
H11 H 0.8301 0.4005 -0.0424
H12 H 0.8825 0.4779 -0.1231
H13 H 0.7815 0.4109 -0.1411
C12 C 0.780(5) 0.572(5) -0.071(7)
H14 H 0.7322 0.5435 -0.1211
H15 H 0.8309 0.6186 -0.1053
H16 H 0.7617 0.5963 -0.0142
Cu1A Cu 0.5829(3) 0.4461(4) 0.2343(2)
Cu2A Cu 0.5803(3) 0.4430(4) 0.4952(2)
O1A O 0.6422(8) 0.4657(11) 0.363(3)
O2A O 0.5818(18) 0.5559(25) 0.219(3)
O3A O 0.5606(15) 0.3217(22) 0.232(2)
O4A O 0.484(4) 0.196(5) 0.149(3)
O5A O 0.441(2) 0.6751(27) -0.003(2)
O6A O 0.5049(26) 0.7977(32) 0.0895(18)
O7A O 0.429(2) 0.4467(26) 0.014(2)
N1A N 0.491(2) 0.3969(28) 0.127(2)
N2A N 0.497(3) 0.595(4) 0.105(4)
C1A C 0.473(3) 0.451(4) 0.088(4)
C2A C 0.521(3) 0.538(4) 0.142(4)
C3A C 0.5075(19) 0.2751(27) 0.160(2)
C4A C 0.485(5) 0.722(6) 0.075(6)
C5A C 0.551(2) 0.692(4) 0.122(3)
H1A H 0.5459 0.6976 0.1983
C6A C 0.647(2) 0.752(3) 0.101(3)
H2A H 0.6773 0.7229 0.1332
C7A C 0.668(3) 0.759(4) -0.012(3)
H3A H 0.6403 0.7006 -0.0419
H4A H 0.7306 0.7875 -0.0211
H5A H 0.6453 0.7929 -0.0458
C8A C 0.687(4) 0.843(6) 0.155(5)
H6A H 0.7493 0.8768 0.1388
H7A H 0.6793 0.8352 0.2301
H8A H 0.6580 0.8736 0.1292
C9A C 0.467(3) 0.310(4) 0.086(2)
H9A H 0.4028 0.2728 0.0891
C10A C 0.4984 0.3014 -0.0245
H10A H 0.5436 0.2868 -0.0027
C11A C 0.558(5) 0.384(8) -0.089(6)
H11A H 0.5995 0.4296 -0.0424
H12A H 0.5221 0.4046 -0.1231
H13A H 0.5891 0.3706 -0.1411
C12A C 0.428(5) 0.208(7) -0.071(7)
H14A H 0.4565 0.1887 -0.1211
H15A H 0.3814 0.2123 -0.1053
H16A H 0.4037 0.1654 -0.0142
Cu1B Cu 0.5539(4) 0.1368(3) 0.2343(2)
Cu2B Cu 0.5570(4) 0.1373(3) 0.4952(2)
O1B O 0.5343(11) 0.1765(8) 0.363(3)
O2B O 0.4441(25) 0.0259(18) 0.219(3)
O3B O 0.6783(22) 0.2389(16) 0.232(2)
O4B O 0.804(5) 0.288(3) 0.149(3)
O5B O 0.3249(27) -0.2341(18) -0.003(2)
O6B O 0.2023(32) -0.2928(18) 0.0895(18)
O7B O 0.5533(26) -0.0177(17) 0.014(2)
N1B N 0.6031(28) 0.0941(19) 0.127(2)
N2B N 0.405(4) -0.098(2) 0.105(4)
C1B C 0.549(4) 0.022(3) 0.088(4)
C2B C 0.462(4) -0.017(3) 0.142(4)
C3B C 0.7249(27) 0.2324(19) 0.160(2)
C4B C 0.278(6) -0.237(3) 0.075(6)
C5B C 0.308(4) -0.141(3) 0.122(3)
H1B H 0.3024 -0.1517 0.1983
C6B C 0.248(3) -0.105(2) 0.101(3)
H2B H 0.2771 -0.0456 0.1332
C7B C 0.241(4) -0.091(3) -0.012(3)
H3B H 0.2994 -0.0603 -0.0419
H4B H 0.2125 -0.0569 -0.0211
H5B H 0.2071 -0.1476 -0.0458
C8B C 0.157(6) -0.156(4) 0.155(5)
H6B H 0.1232 -0.1275 0.1388
H7B H 0.1648 -0.1559 0.2301
H8B H 0.1264 -0.2156 0.1292
C9B C 0.690(4) 0.157(2) 0.086(2)
H9B H 0.7272 0.1300 0.0891
C10B C 0.6986 0.1970 -0.0245
H10B H 0.7132 0.2568 -0.0027
C11B C 0.616(8) 0.174(6) -0.089(6)
H11B H 0.5704 0.1699 -0.0424
H12B H 0.5954 0.1175 -0.1231
H13B H 0.6294 0.2185 -0.1411
C12B C 0.792(7) 0.220(5) -0.071(7)
H14B H 0.8113 0.2678 -0.1211
H15B H 0.7877 0.1691 -0.1053
H16B H 0.8346 0.2383 -0.0142
Cu2C Cu 0.1373(3) -0.4197(3) -0.0048(2)
Cu2C_2 Cu 1.1373(3) 0.5803(3) -0.0048(2)
Cu2D Cu 0.4197(3) 0.5570(4) -0.0048(2)
Cu2D_2 Cu 1.4197(3) 0.5570(4) -0.0048(2)
Cu2E Cu 0.4430(4) -0.1373(3) -0.0048(2)
Cu2E_2 Cu 0.4430(4) 0.8627(3) -0.0048(2)
Ca1C Ca 0.3333 -0.3333 -0.1358(18)
Ca1C_2 Ca 0.3333 0.6667 -0.1358(18)
Ca1C_3 Ca 1.3333 0.6667 -0.1358(18)
O5C O 0.7659(18) 0.441(2) 0.497(2)
O5D O 0.559(2) 0.3249(27) 0.497(2)
O5E O 0.6751(27) 0.2341(18) 0.497(2)
O6C O 0.7072(18) 0.5049(26) 0.5895(18)
O6D O 0.4951(26) 0.2023(32) 0.5895(18)
O6E O 0.7977(32) 0.2928(18) 0.5895(18)
O7C O 0.9823(17) 0.429(2) 0.514(2)
O7D O 0.571(2) 0.5533(26) 0.514(2)
O7E O 0.4467(26) 0.0177(17) 0.514(2)
N2C N 0.902(2) 0.497(3) 0.605(4)
N2D N 0.503(3) 0.405(4) 0.605(4)
N2E N 0.595(4) 0.098(2) 0.605(4)
O8 O 0.3045(15) 0.3327(15) 0.865(4)
O9 O 0.983(4) 0.155(4) 0.362(8)
O10 O 0.969(8) 0.843(8) 0.129(11)
O11 O 0.878(6) 0.885(6) -0.060(6)
O12 O 1.0000 1.0000 0.23(2)
loop_
_geom_bond_atom_site_label_1
_geom_bond_atom_site_label_2
_geom_bond_site_symmetry_1
_geom_bond_site_symmetry_2
Cu1 O1 1_555 1_555
Cu2 O1 1_555 1_555
Ca1 O1 1_555 1_555
O2 Cu1 1_555 1_555
O3 Cu1 1_555 1_555
O4 C3 1_555 1_555
O5 C4 1_555 1_555
O6 C4 1_555 1_555
O7 C1 1_555 1_555
N1 Cu1 1_555 1_555
N2 C2 1_555 1_555
C1 N1 1_555 1_555
C2 O2 1_555 1_555
C3 O3 1_555 1_555
C4 C5 1_555 1_555
C5 N2 1_555 1_555
H1 C5 1_555 1_555
C6 C5 1_555 1_555
H2 C6 1_555 1_555
C7 C6 1_555 1_555
H3 C7 1_555 1_555
H4 C7 1_555 1_555
H5 C7 1_555 1_555
C8 C6 1_555 1_555
H6 C8 1_555 1_555
H7 C8 1_555 1_555
H8 C8 1_555 1_555
C9 N1 1_555 1_555
H9 C9 1_555 1_555
C10 C9 1_555 1_555
H10 C10 1_555 1_555
C11 C10 1_555 1_555
H11 C11 1_555 1_555
H12 C11 1_555 1_555
H13 C11 1_555 1_555
C12 C10 1_555 1_555
H14 C12 1_555 1_555
H15 C12 1_555 1_555
H16 C12 1_555 1_555
Cu1A O4 1_555 1_555
Cu2A O1A 1_555 1_555
O1A Ca1 1_555 1_555
O2A Cu1A 1_555 1_555
O3A Ca1 1_555 1_555
O4A C3A 1_555 1_555
O5A C4A 1_555 1_555
O6A C4A 1_555 1_555
O7A C1A 1_555 1_555
N1A Cu1A 1_555 1_555
N2A C2A 1_555 1_555
C1A N1A 1_555 1_555
C2A O2A 1_555 1_555
C3A O3A 1_555 1_555
C4A C5A 1_555 1_555
C5A N2A 1_555 1_555
H1A C5A 1_555 1_555
C6A C5A 1_555 1_555
H2A C6A 1_555 1_555
C7A C6A 1_555 1_555
H3A C7A 1_555 1_555
H4A C7A 1_555 1_555
H5A C7A 1_555 1_555
C8A C6A 1_555 1_555
H6A C8A 1_555 1_555
H7A C8A 1_555 1_555
H8A C8A 1_555 1_555
C9A N1A 1_555 1_555
H9A C9A 1_555 1_555
C10A C9A 1_555 1_555
H10A C10A 1_555 1_555
C11A C10A 1_555 1_555
H11A C11A 1_555 1_555
H12A C11A 1_555 1_555
H13A C11A 1_555 1_555
C12A C10A 1_555 1_555
H14A C12A 1_555 1_555
H15A C12A 1_555 1_555
H16A C12A 1_555 1_555
Cu1B O4A 1_555 1_555
Cu2B O1B 1_555 1_555
O1B Ca1 1_555 1_555
O2B Cu1B 1_555 1_555
O3B Ca1 1_555 1_555
O4B Cu1 1_555 1_555
O5B C4B 1_555 1_555
O6B C4B 1_555 1_555
O7B C1B 1_555 1_555
N1B Cu1B 1_555 1_555
N2B C2B 1_555 1_555
C1B N1B 1_555 1_555
C2B O2B 1_555 1_555
C3B O3B 1_555 1_555
C4B C5B 1_555 1_555
C5B N2B 1_555 1_555
H1B C5B 1_555 1_555
C6B C5B 1_555 1_555
H2B C6B 1_555 1_555
C7B C6B 1_555 1_555
H3B C7B 1_555 1_555
H4B C7B 1_555 1_555
H5B C7B 1_555 1_555
C8B C6B 1_555 1_555
H6B C8B 1_555 1_555
H7B C8B 1_555 1_555
H8B C8B 1_555 1_555
C9B N1B 1_555 1_555
H9B C9B 1_555 1_555
C10B C9B 1_555 1_555
H10B C10B 1_555 1_555
C11B C10B 1_555 1_555
H11B C11B 1_555 1_555
H12B C11B 1_555 1_555
H13B C11B 1_555 1_555
C12B C10B 1_555 1_555
H14B C12B 1_555 1_555
H15B C12B 1_555 1_555
H16B C12B 1_555 1_555
Cu2C O6B 1_555 1_555
Cu2C_2 O5 1_555 1_555
Cu2D O5A 1_555 1_555
Cu2D_2 O6 1_555 1_555
Cu2E O5B 1_555 1_555
Cu2E_2 O6A 1_555 1_555
Ca1C O5B 1_555 1_555
Ca1C_2 O5A 1_555 1_555
Ca1C_3 O5 1_555 1_555
O5C Cu2 1_555 1_555
O5D Ca1 1_555 1_555
O5E Ca1 1_555 1_555
O6C Cu2A 1_555 1_555
O6D Cu2B 1_555 1_555
O6E Cu2 1_555 1_555
O7C Cu2 1_555 1_555
O7D Cu2A 1_555 1_555
O7E Cu2B 1_555 1_555
N2C Cu2 1_555 1_555
N2D Cu2A 1_555 1_555
N2E Cu2B 1_555 1_555
Ca1 O3 1_555 1_555
Ca1 O5C 1_555 1_555
O7 Cu2C_2 1_555 1_555
N2 Cu2C_2 1_555 1_555
C1 C2 1_555 1_555
C3 C9 1_555 1_555
Cu1A O1A 1_555 1_555
Cu1A O3A 1_555 1_555
Cu2A O5D 1_555 1_555
O7A Cu2D 1_555 1_555
N2A Cu2D 1_555 1_555
C1A C2A 1_555 1_555
C3A C9A 1_555 1_555
Cu1B O1B 1_555 1_555
Cu1B O3B 1_555 1_555
Cu2B O5E 1_555 1_555
O4B C3B 1_555 1_555
O7B Cu2E 1_555 1_555
N2B Cu2E 1_555 1_555
C1B C2B 1_555 1_555
C3B C9B 1_555 1_555

#END
