
#######################################################################
#
#                 Cambridge Crystallographic Data Centre
#                                CCDC 
#
#######################################################################
#
# If this CIF has been generated from an entry in the Cambridge 
# Structural Database, then it will include bibliographic, chemical, 
# crystal, experimental, refinement or atomic coordinate data resulting 
# from the CCDC's data processing and validation procedures.
#
#######################################################################

data_DATMIX
_chemical_formula_moiety         '(C42 H64 Ca1 Cu6 N6 O21)n,11(H2 O1)'
_chemical_name_systematic        
"catena-[tris(\m-2,2'-[(1,2-dioxoethane-1,2-diyl)bis(azanidediyl)]bis(4-methylpentanoate))-bis(\m-hydroxo)-(\m-aqua)-calcium-hexa-copper unknown solvate undecahydrate]"
_symmetry_cell_setting           hexagonal
_symmetry_space_group_name_H-M   'P 63'
_symmetry_Int_Tables_number      173
_space_group_name_Hall           'P 6c'
loop_
_symmetry_equiv_pos_site_id
_symmetry_equiv_pos_as_xyz
1 x,y,z
2 -y,x-y,z
3 -x+y,-x,z
4 -x,-y,1/2+z
5 y,-x+y,1/2+z
6 x-y,x,1/2+z
_cell_length_a                   17.603(6)
_cell_length_b                   17.603(6)
_cell_length_c                   13.045(4)
_cell_angle_alpha                90
_cell_angle_beta                 90
_cell_angle_gamma                120
_cell_volume                     3500.65
_exptl_crystal_colour            blue/green
_exptl_crystal_description       hexagonal/prism
_cell_formula_units_Z            2
_exptl_crystal_recrystallization_method water/methanol
_exptl_crystal_preparation       porous
loop_
_atom_site_label
_atom_site_type_symbol
_atom_site_fract_x
_atom_site_fract_y
_atom_site_fract_z
O8 O 0.1570 0.8506 1.3752
O9 O 0.3333 0.6667 0.2188
O10 O 0.6647 0.9790 0.8531
Cu1 Cu 0.44603(14) 0.86507(14) 0.73258(9)
Cu2 Cu 0.44379(15) 0.86591(16) 0.98843(9)
Ca1 Ca 0.3333 0.6667 0.8619(6)
O1 O 0.4685(4) 0.8272(4) 0.8624(11)
N1 N 0.6043(11) 1.0978(10) 0.5963(12)
N2 N 0.4071(12) 0.9072(11) 0.6269(12)
O2 O 0.5519(8) 0.9826(8) 0.7170(9)
O3 O 0.3243(8) 0.7619(8) 0.7324(10)
O4 O 0.1979(11) 0.7076(18) 0.6449(15)
O5 O 0.6768(7) 1.2343(7) 0.4917(10)
O6 O 0.7983(8) 1.2945(11) 0.5845(8)
O7 O 0.4419(9) 1.0192(8) 0.5113(10)
C1 C 0.2774(12) 0.7578(13) 0.6614(18)
C2 C 0.3086(16) 0.8497(15) 0.5857(13)
H1 H 0.2707 0.8771 0.5872
C3 C 0.4580(12) 0.9801(12) 0.5755(12)
C4 C 0.5456(14) 1.0235(12) 0.6261(12)
C5 C 0.7276(13) 1.2272(12) 0.5646(11)
C6 C 0.6933(13) 1.1503(12) 0.6168(15)
H2 H 0.6971 1.1665 0.6908
C7 C 0.3156 0.8088 0.4821
H3 H 0.2539 0.7670 0.4636
H4 H 0.3355 0.8576 0.4323
C8 C 0.3644 0.7625 0.4511
H5 H 0.3952 0.7687 0.5176
C9 C 0.3333 0.6667 0.4326
C10 C 0.4433 0.7978 0.3824
H6 H 0.4742 0.8621 0.3836
H7 H 0.4245 0.7770 0.3122
H8 H 0.4827 0.7773 0.4067
C11 C 0.7507(9) 1.1083(11) 0.6052(16)
H9 H 0.7236 1.0508 0.6404
H10 H 0.8096 1.1467 0.6347
C12 C 0.757(3) 1.097(4) 0.490(3)
H11 H 0.7033 1.0644 0.4462
C13 C 0.827(4) 1.071(3) 0.494(4)
H12 H 0.8001 1.0076 0.4866
H13 H 0.8580 1.0896 0.5598
H14 H 0.8692 1.1004 0.4381
C14 C 0.821(5) 1.192(4) 0.473(4)
H15 H 0.8478 1.2001 0.4048
H16 H 0.8671 1.2128 0.5253
H17 H 0.7908 1.2260 0.4772
N1A N -0.0978(10) 0.5065(15) 0.5963(12)
N2A N 0.0928(11) 0.4999(16) 0.6269(12)
O2A O 0.0174(8) 0.5693(11) 0.7170(9)
O3A O 0.2381(8) 0.5624(11) 0.7324(10)
O4A O 0.2924(18) 0.4903(21) 0.6449(15)
O5A O -0.2343(7) 0.4425(10) 0.4917(10)
O6A O -0.2945(11) 0.5038(14) 0.5845(8)
O7A O -0.0192(8) 0.4227(12) 0.5113(10)
C1A C 0.2422(13) 0.5196(18) 0.6614(18)
C2A C 0.1503(15) 0.4589(22) 0.5857(13)
H1A H 0.1229 0.3936 0.5872
C3A C 0.0199(12) 0.4779(17) 0.5755(12)
C4A C -0.0235(12) 0.5221(18) 0.6261(12)
C5A C -0.2272(12) 0.5004(18) 0.5646(11)
C6A C -0.1503(12) 0.5430(18) 0.6168(15)
H2A H -0.1665 0.5306 0.6908
C7A C 0.1912 0.5068 0.4821
H3A H 0.2330 0.4869 0.4636
H4A H 0.1424 0.4779 0.4323
C8A C 0.2375 0.6019 0.4511
H5A H 0.2313 0.6265 0.5176
C10A C 0.2022 0.6455 0.3824
H6A H 0.1379 0.6121 0.3836
H7A H 0.2230 0.6475 0.3122
H8A H 0.2227 0.7054 0.4067
C11A C -0.1083(11) 0.6424(14) 0.6052(16)
H9A H -0.0508 0.6728 0.6404
H10A H -0.1467 0.6629 0.6347
C12A C -0.097(4) 0.660(5) 0.490(3)
H11A H -0.0644 0.6389 0.4462
C13A C -0.071(3) 0.756(5) 0.494(4)
H12A H -0.0076 0.7925 0.4866
H13A H -0.0896 0.7684 0.5598
H14A H -0.1004 0.7688 0.4381
C14A C -0.192(4) 0.629(6) 0.473(4)
H15A H -0.2001 0.6477 0.4048
H16A H -0.2128 0.6543 0.5253
H17A H -0.2260 0.5648 0.4772
N1B N 0.4935(15) 0.3957(11) 0.5963(12)
N2B N 0.5001(16) 0.5929(12) 0.6269(12)
O2B O 0.4307(11) 0.4481(8) 0.7170(9)
O3B O 0.4376(11) 0.6757(8) 0.7324(10)
O4B O 0.5097(21) 0.8021(11) 0.6449(15)
O5B O 0.5575(10) 0.3232(7) 0.4917(10)
O6B O 0.4962(14) 0.2017(8) 0.5845(8)
O7B O 0.5773(12) 0.5581(9) 0.5113(10)
C1B C 0.4804(18) 0.7226(12) 0.6614(18)
C2B C 0.5411(22) 0.6914(16) 0.5857(13)
H1B H 0.6064 0.7293 0.5872
C3B C 0.5221(17) 0.5420(12) 0.5755(12)
C4B C 0.4779(18) 0.4544(14) 0.6261(12)
C5B C 0.4996(18) 0.2724(13) 0.5646(11)
C6B C 0.4570(18) 0.3067(13) 0.6168(15)
H2B H 0.4694 0.3029 0.6908
C7B C 0.4932 0.6844 0.4821
H3B H 0.5131 0.7461 0.4636
H4B H 0.5221 0.6645 0.4323
C8B C 0.3981 0.6356 0.4511
H5B H 0.3735 0.6048 0.5176
C10B C 0.3545 0.5567 0.3824
H6B H 0.3879 0.5258 0.3836
H7B H 0.3525 0.5755 0.3122
H8B H 0.2946 0.5173 0.4067
C11B C 0.3576(14) 0.2493(9) 0.6052(16)
H9B H 0.3272 0.2764 0.6404
H10B H 0.3371 0.1904 0.6347
C12B C 0.340(5) 0.243(3) 0.490(3)
H11B H 0.3611 0.2967 0.4462
C13B C 0.244(5) 0.173(4) 0.494(4)
H12B H 0.2075 0.1999 0.4866
H13B H 0.2316 0.1420 0.5598
H14B H 0.2312 0.1308 0.4381
C14B C 0.371(6) 0.179(5) 0.473(4)
H15B H 0.3523 0.1522 0.4048
H16B H 0.3457 0.1329 0.5253
H17B H 0.4352 0.2092 0.4772
Cu1A Cu 0.13493(14) 0.58096(20) 0.73258(9)
Cu2A Cu 0.13409(16) 0.57788(22) 0.98843(9)
O1A O 0.1728(4) 0.6413(6) 0.8624(11)
Cu1B Cu 0.41904(20) 0.55397(14) 0.73258(9)
Cu2B Cu 0.42212(22) 0.55621(15) 0.98843(9)
O1B O 0.3587(6) 0.5315(4) 0.8624(11)
Cu2C Cu 0.55621(15) 0.13409(16) 0.48843(9)
Cu2C_2 Cu 0.55621(15) 1.13409(16) 0.48843(9)
Cu2D Cu -0.13409(16) 0.42212(22) 0.48843(9)
Cu2D_2 Cu 0.86591(16) 1.42212(22) 0.48843(9)
Cu2E Cu -0.42212(22) 0.44379(15) 0.48843(9)
Cu2E_2 Cu 0.57788(22) 0.44379(15) 0.48843(9)
Ca1C Ca -0.3333 0.3333 0.3619(6)
Ca1C_2 Ca 0.6667 0.3333 0.3619(6)
Ca1C_3 Ca 0.6667 1.3333 0.3619(6)
N1C N 0.3957(11) 0.9022(10) 1.0963(12)
N1D N 0.0978(10) 0.4935(15) 1.0963(12)
N1E N 0.5065(15) 0.6043(11) 1.0963(12)
O5C O 0.3232(7) 0.7657(7) 0.9917(10)
O5D O 0.2343(7) 0.5575(10) 0.9917(10)
O5E O 0.4425(10) 0.6768(7) 0.9917(10)
O6C O 0.2017(8) 0.7055(11) 1.0845(8)
O6D O 0.2945(11) 0.4962(14) 1.0845(8)
O6E O 0.5038(14) 0.7983(8) 1.0845(8)
O7C O 0.5581(9) 0.9808(8) 1.0113(10)
O7D O 0.0192(8) 0.5773(12) 1.0113(10)
O7E O 0.4227(12) 0.4419(9) 1.0113(10)
H18? H 0.2908 0.6452 0.3784
H19? H 0.3823 0.6599 0.4136
H20? H 0.3071 0.6340 0.4941
loop_
_geom_bond_atom_site_label_1
_geom_bond_atom_site_label_2
_geom_bond_site_symmetry_1
_geom_bond_site_symmetry_2
Cu1 O1 1_555 1_555
Cu2 O1 1_555 1_555
Ca1 O1 1_555 1_555
N1 C4 1_555 1_555
N2 Cu1 1_555 1_555
O2 Cu1 1_555 1_555
O3 Cu1 1_555 1_555
O4 C1 1_555 1_555
O5 C5 1_555 1_555
O6 C5 1_555 1_555
O7 C3 1_555 1_555
C1 O3 1_555 1_555
C2 N2 1_555 1_555
H1 C2 1_555 1_555
C3 N2 1_555 1_555
C4 O2 1_555 1_555
C5 C6 1_555 1_555
C6 N1 1_555 1_555
H2 C6 1_555 1_555
C7 C2 1_555 1_555
H3 C7 1_555 1_555
H4 C7 1_555 1_555
C8 C7 1_555 1_555
H5 C8 1_555 1_555
C9 C8 1_555 1_555
C10 C8 1_555 1_555
H6 C10 1_555 1_555
H7 C10 1_555 1_555
H8 C10 1_555 1_555
C11 C6 1_555 1_555
H9 C11 1_555 1_555
H10 C11 1_555 1_555
C12 C11 1_555 1_555
H11 C12 1_555 1_555
C13 C12 1_555 1_555
H12 C13 1_555 1_555
H13 C13 1_555 1_555
H14 C13 1_555 1_555
C14 C12 1_555 1_555
H15 C14 1_555 1_555
H16 C14 1_555 1_555
H17 C14 1_555 1_555
N1A C4A 1_555 1_555
N2A C2A 1_555 1_555
O2A C4A 1_555 1_555
O3A Ca1 1_555 1_555
O4A C1A 1_555 1_555
O5A C5A 1_555 1_555
O6A C5A 1_555 1_555
O7A C3A 1_555 1_555
C1A O3A 1_555 1_555
C2A C1A 1_555 1_555
H1A C2A 1_555 1_555
C3A N2A 1_555 1_555
C4A C3A 1_555 1_555
C5A C6A 1_555 1_555
C6A N1A 1_555 1_555
H2A C6A 1_555 1_555
C7A C2A 1_555 1_555
H3A C7A 1_555 1_555
H4A C7A 1_555 1_555
C8A C9 1_555 1_555
H5A C8A 1_555 1_555
C10A C8A 1_555 1_555
H6A C10A 1_555 1_555
H7A C10A 1_555 1_555
H8A C10A 1_555 1_555
C11A C6A 1_555 1_555
H9A C11A 1_555 1_555
H10A C11A 1_555 1_555
C12A C11A 1_555 1_555
H11A C12A 1_555 1_555
C13A C12A 1_555 1_555
H12A C13A 1_555 1_555
H13A C13A 1_555 1_555
H14A C13A 1_555 1_555
C14A C12A 1_555 1_555
H15A C14A 1_555 1_555
H16A C14A 1_555 1_555
H17A C14A 1_555 1_555
N1B C4B 1_555 1_555
N2B C2B 1_555 1_555
O2B C4B 1_555 1_555
O3B Ca1 1_555 1_555
O4B Cu1 1_555 1_555
O5B C5B 1_555 1_555
O6B C5B 1_555 1_555
O7B C3B 1_555 1_555
C1B O3B 1_555 1_555
C2B C1B 1_555 1_555
H1B C2B 1_555 1_555
C3B N2B 1_555 1_555
C4B C3B 1_555 1_555
C5B C6B 1_555 1_555
C6B N1B 1_555 1_555
H2B C6B 1_555 1_555
C7B C2B 1_555 1_555
H3B C7B 1_555 1_555
H4B C7B 1_555 1_555
C8B C9 1_555 1_555
H5B C8B 1_555 1_555
C10B C8B 1_555 1_555
H6B C10B 1_555 1_555
H7B C10B 1_555 1_555
H8B C10B 1_555 1_555
C11B C6B 1_555 1_555
H9B C11B 1_555 1_555
H10B C11B 1_555 1_555
C12B C11B 1_555 1_555
H11B C12B 1_555 1_555
C13B C12B 1_555 1_555
H12B C13B 1_555 1_555
H13B C13B 1_555 1_555
H14B C13B 1_555 1_555
C14B C12B 1_555 1_555
H15B C14B 1_555 1_555
H16B C14B 1_555 1_555
H17B C14B 1_555 1_555
Cu1A O4 1_555 1_555
Cu2A O1A 1_555 1_555
O1A Ca1 1_555 1_555
Cu1B O4A 1_555 1_555
Cu2B O1B 1_555 1_555
O1B Ca1 1_555 1_555
Cu2C O6B 1_555 1_555
Cu2C_2 N1 1_555 1_555
Cu2D N1A 1_555 1_555
Cu2D_2 O6 1_555 1_555
Cu2E O6A 1_555 1_555
Cu2E_2 N1B 1_555 1_555
Ca1C O5A 1_555 1_555
Ca1C_2 O5B 1_555 1_555
Ca1C_3 O5 1_555 1_555
N1C Cu2 1_555 1_555
N1D Cu2A 1_555 1_555
N1E Cu2B 1_555 1_555
O5C Cu2 1_555 1_555
O5D Ca1 1_555 1_555
O5E Ca1 1_555 1_555
O6C Cu2A 1_555 1_555
O6D Cu2B 1_555 1_555
O6E Cu2 1_555 1_555
O7C Cu2 1_555 1_555
O7D Cu2A 1_555 1_555
O7E Cu2B 1_555 1_555
Ca1 O3 1_555 1_555
Ca1 O5C 1_555 1_555
O5 Cu2C_2 1_555 1_555
O7 Cu2C_2 1_555 1_555
C1 C2 1_555 1_555
C3 C4 1_555 1_555
N2A Cu1A 1_555 1_555
O2A Cu1A 1_555 1_555
O3A Cu1A 1_555 1_555
O5A Cu2D 1_555 1_555
O7A Cu2D 1_555 1_555
C7A C8A 1_555 1_555
N2B Cu1B 1_555 1_555
O2B Cu1B 1_555 1_555
O3B Cu1B 1_555 1_555
O4B C1B 1_555 1_555
O5B Cu2E_2 1_555 1_555
O7B Cu2E_2 1_555 1_555
C7B C8B 1_555 1_555
Cu1A O1A 1_555 1_555
Cu2A O5D 1_555 1_555
Cu1B O1B 1_555 1_555
Cu2B O5E 1_555 1_555

#END
