
#######################################################################
#
#                 Cambridge Crystallographic Data Centre
#                                CCDC 
#
#######################################################################
#
# If this CIF has been generated from an entry in the Cambridge 
# Structural Database, then it will include bibliographic, chemical, 
# crystal, experimental, refinement or atomic coordinate data resulting 
# from the CCDC's data processing and validation procedures.
#
#######################################################################

data_ACODUT
_chemical_name_common            UTSA-30
_chemical_formula_moiety         '(C78 H42 O12 Yb2)n,6n(C4 H9 N1 O1)'
_chemical_name_systematic        
"catena-[bis(\m~6~-5,5',5''-Benzene-1,3,5-triyltrinaphthalene-1-carboxylato)-di-ytterbium(iii) N,N'-dimethylacetamide solvate]"
_symmetry_cell_setting           trigonal
_symmetry_space_group_name_H-M   'P -3 m 1'
_symmetry_Int_Tables_number      164
_space_group_name_Hall           '-P 3 2"'
loop_
_symmetry_equiv_pos_site_id
_symmetry_equiv_pos_as_xyz
1 x,y,z
2 -y,x-y,z
3 -x+y,-x,z
4 y,x,-z
5 -x,-x+y,-z
6 x-y,-y,-z
7 -x,-y,-z
8 y,-x+y,-z
9 x-y,x,-z
10 -y,-x,z
11 x,x-y,z
12 -x+y,y,z
_cell_length_a                   17.0600(17)
_cell_length_b                   17.0600(17)
_cell_length_c                   9.2376(18)
_cell_angle_alpha                90
_cell_angle_beta                 90
_cell_angle_gamma                120
_cell_volume                     2328.35
_exptl_crystal_colour            colorless
_exptl_crystal_description       block
_cell_formula_units_Z            1
loop_
_atom_site_label
_atom_site_type_symbol
_atom_site_fract_x
_atom_site_fract_y
_atom_site_fract_z
Yb1 Yb 0.0000 0.0000 0.5000
Yb2 Yb 0.0000 0.0000 0.0000
O1 O 0.06207(16) 0.1241(3) 0.3698(5)
O2 O 0.06173(15) 0.1235(3) 0.1320(5)
C1 C 0.0823(2) 0.1646(4) 0.2498(7)
C2 C 0.1323(2) 0.2645(4) 0.2496(7)
C3 C 0.1844(5) 0.3203(5) 0.1319(8)
C4 C 0.2137(6) 0.2900(7) 0.0266(10)
H1 H 0.1973 0.2282 0.0183
C5 C 0.2670(14) 0.3514(8) -0.066(2)
H2 H 0.2847 0.3276 -0.1440
C6 C 0.3020(7) 0.4415(6) -0.0726(10)
H3 H 0.3451 0.4790 -0.1430
C7 C 0.2688(6) 0.4734(6) 0.0329(10)
C8 C 0.2083(2) 0.4165(5) 0.1389(6)
C9 C 0.1840(6) 0.4481(7) 0.2525(11)
H4 H 0.2014 0.5109 0.2469
C10 C 0.1267(10) 0.3924(8) 0.3671(12)
H5 H 0.1072 0.4172 0.4414
C11 C 0.1005(7) 0.3014(6) 0.3667(10)
H6 H 0.0596 0.2609 0.4384
C12 C 0.2867(3) 0.5734(5) 0.0284(8)
C13 C 0.2397(5) 0.6198(3) 0.0272(8)
H7 H 0.1754 0.5877 0.0256
Yb1_2 Yb 0.0000 1.0000 0.5000
Yb1_3 Yb 1.0000 1.0000 0.5000
Yb1_4 Yb -1.0000 -1.0000 0.5000
Yb1_5 Yb -1.0000 0.0000 0.5000
Yb2_2 Yb 0.0000 1.0000 0.0000
Yb2_3 Yb 1.0000 1.0000 0.0000
Yb2_4 Yb -1.0000 -1.0000 0.0000
Yb2_5 Yb -1.0000 0.0000 0.0000
O1B O 0.06203(34) 0.93793(16) 0.3698(5)
O1A O 0.8759(3) 0.93797(34) 0.3698(5)
O1A_2 O -0.1241(3) -0.06203(34) 0.3698(5)
O1_2 O -0.93793(16) -0.8759(3) 0.3698(5)
O1B_2 O -0.93797(34) -0.06207(16) 0.3698(5)
O1B_3 O 0.06203(34) -0.06207(16) 0.3698(5)
O1C O 0.1241(3) 0.06207(16) 0.6302(5)
O1D O -0.06207(16) 0.06203(34) 0.6302(5)
O1E O -0.06203(34) -0.1241(3) 0.6302(5)
O2B O 0.06177(34) 0.93827(15) 0.1320(5)
O2A O 0.8765(3) 0.93823(34) 0.1320(5)
O2A_2 O -0.1235(3) -0.06177(34) 0.1320(5)
O2_2 O -0.93827(15) -0.8765(3) 0.1320(5)
O2B_2 O -0.93823(34) -0.06173(15) 0.1320(5)
O2B_3 O 0.06177(34) -0.06173(15) 0.1320(5)
O2C O 0.1235(3) 0.06173(15) -0.1320(5)
O2D O -0.06173(15) 0.06177(34) -0.1320(5)
O2E O -0.06177(34) -0.1235(3) -0.1320(5)
C1B C 0.0823(4) 0.9177(2) 0.2498(7)
C1A C 0.8354(4) 0.9177(4) 0.2498(7)
C1A_2 C -0.1646(4) -0.0823(4) 0.2498(7)
C1_2 C -0.9177(2) -0.8354(4) 0.2498(7)
C1B_2 C -0.9177(4) -0.0823(2) 0.2498(7)
C2B C 0.1322(4) 0.8677(2) 0.2496(7)
C2A C 0.7355(4) 0.8678(4) 0.2496(7)
C2A_2 C -0.2645(4) -0.1322(4) 0.2496(7)
C2_2 C -0.8677(2) -0.7355(4) 0.2496(7)
C2B_2 C -0.8678(4) -0.1323(2) 0.2496(7)
C3K C 0.1359(7) 0.3203(5) 0.1319(8)
C3B C 0.1359(7) 0.8156(5) 0.1319(8)
C3J C 0.1844(5) 0.8641(7) 0.1319(8)
C3A C 0.6797(5) 0.8641(7) 0.1319(8)
C3I C 0.6797(5) 0.8156(5) 0.1319(8)
C3A_2 C -0.3203(5) -0.1359(7) 0.1319(8)
C3I_2 C -0.3203(5) -0.1844(5) 0.1319(8)
C3_2 C -0.8156(5) -0.6797(5) 0.1319(8)
C3K_2 C -0.8641(7) -0.6797(5) 0.1319(8)
C3B_2 C -0.8641(7) -0.1844(5) 0.1319(8)
C3J_2 C -0.8156(5) -0.1359(7) 0.1319(8)
C4K C 0.0763(9) 0.2900(7) 0.0266(10)
C4B C 0.0763(9) 0.7863(6) 0.0266(10)
C4J C 0.2137(6) 0.9237(9) 0.0266(10)
C4A C 0.7100(7) 0.9237(9) 0.0266(10)
C4I C 0.7100(7) 0.7863(6) 0.0266(10)
C4A_2 C -0.2900(7) -0.0763(9) 0.0266(10)
C4I_2 C -0.2900(7) -0.2137(6) 0.0266(10)
C4_2 C -0.7863(6) -0.7100(7) 0.0266(10)
C4K_2 C -0.9237(9) -0.7100(7) 0.0266(10)
C4B_2 C -0.9237(9) -0.2137(6) 0.0266(10)
C4J_2 C -0.7863(6) -0.0763(9) 0.0266(10)
H1J H 0.1973 0.9691 0.0183
H1I H 0.7718 0.8027 0.0183
H1A H 0.7718 0.9691 0.0183
H1B H 0.0309 0.8027 0.0183
H1K H 0.0309 0.2282 0.0183
H1A_2 H -0.2282 -0.0309 0.0183
H1K_2 H -0.9691 -0.7718 0.0183
H1J_2 H -0.8027 -0.0309 0.0183
H1B_2 H -0.9691 -0.1973 0.0183
H1_2 H -0.8027 -0.7718 0.0183
H1I_2 H -0.2282 -0.1973 0.0183
C5K C 0.0844(16) 0.3514(8) -0.066(2)
C5B C 0.0844(16) 0.7330(14) -0.066(2)
C5J C 0.2670(14) 0.9156(16) -0.066(2)
C5A C 0.6486(8) 0.9156(16) -0.066(2)
C5I C 0.6486(8) 0.7330(14) -0.066(2)
C5A_2 C -0.3514(8) -0.0844(16) -0.066(2)
C5I_2 C -0.3514(8) -0.2670(14) -0.066(2)
C5_2 C -0.7330(14) -0.6486(8) -0.066(2)
C5K_2 C -0.9156(16) -0.6486(8) -0.066(2)
C5B_2 C -0.9156(16) -0.2670(14) -0.066(2)
C5J_2 C -0.7330(14) -0.0844(16) -0.066(2)
H2J H 0.2847 0.9571 -0.1440
H2I H 0.6724 0.7153 -0.1440
H2A H 0.6724 0.9571 -0.1440
H2B H 0.0429 0.7153 -0.1440
H2K H 0.0429 0.3276 -0.1440
H2A_2 H -0.3276 -0.0429 -0.1440
H2K_2 H -0.9571 -0.6724 -0.1440
H2J_2 H -0.7153 -0.0429 -0.1440
H2B_2 H -0.9571 -0.2847 -0.1440
H2_2 H -0.7153 -0.6724 -0.1440
H2I_2 H -0.3276 -0.2847 -0.1440
C6K C 0.1395(9) 0.4415(6) -0.0726(10)
C6B C 0.1395(9) 0.6980(7) -0.0726(10)
C6J C 0.3020(7) 0.8605(9) -0.0726(10)
C6A C 0.5585(6) 0.8605(9) -0.0726(10)
C6I C 0.5585(6) 0.6980(7) -0.0726(10)
C6A_2 C -0.4415(6) -0.1395(9) -0.0726(10)
C6I_2 C -0.4415(6) -0.3020(7) -0.0726(10)
C6_2 C -0.6980(7) -0.5585(6) -0.0726(10)
C6K_2 C -0.8605(9) -0.5585(6) -0.0726(10)
C6B_2 C -0.8605(9) -0.3020(7) -0.0726(10)
C6J_2 C -0.6980(7) -0.1395(9) -0.0726(10)
H3J H 0.3451 0.8661 -0.1430
H3I H 0.5210 0.6549 -0.1430
H3A H 0.5210 0.8661 -0.1430
H3B H 0.1339 0.6549 -0.1430
H3K H 0.1339 0.4790 -0.1430
H3A_2 H -0.4790 -0.1339 -0.1430
H3K_2 H -0.8661 -0.5210 -0.1430
H3J_2 H -0.6549 -0.1339 -0.1430
H3B_2 H -0.8661 -0.3451 -0.1430
H3_2 H -0.6549 -0.5210 -0.1430
H3I_2 H -0.4790 -0.3451 -0.1430
C7K C 0.2046(8) 0.4734(6) 0.0329(10)
C7B C 0.2046(8) 0.7312(6) 0.0329(10)
C7J C 0.2688(6) 0.7954(8) 0.0329(10)
C7A C 0.5266(6) 0.7954(8) 0.0329(10)
C7I C 0.5266(6) 0.7312(6) 0.0329(10)
C7A_2 C -0.4734(6) -0.2046(8) 0.0329(10)
C7I_2 C -0.4734(6) -0.2688(6) 0.0329(10)
C7_2 C -0.7312(6) -0.5266(6) 0.0329(10)
C7K_2 C -0.7954(8) -0.5266(6) 0.0329(10)
C7B_2 C -0.7954(8) -0.2688(6) 0.0329(10)
C7J_2 C -0.7312(6) -0.2046(8) 0.0329(10)
C8B C 0.2082(5) 0.7917(2) 0.1389(6)
C8A C 0.5835(5) 0.7918(5) 0.1389(6)
C8A_2 C -0.4165(5) -0.2082(5) 0.1389(6)
C8_2 C -0.7917(2) -0.5835(5) 0.1389(6)
C8B_2 C -0.7918(5) -0.2083(2) 0.1389(6)
C9K C 0.2641(9) 0.4481(7) 0.2525(11)
C9A C 0.5519(7) 0.7359(9) 0.2525(11)
C9I C 0.5519(7) 0.8160(6) 0.2525(11)
C9B C 0.2641(9) 0.8160(6) 0.2525(11)
C9J C 0.1840(6) 0.7359(9) 0.2525(11)
C9A_2 C -0.4481(7) -0.2641(9) 0.2525(11)
C9I_2 C -0.4481(7) -0.1840(6) 0.2525(11)
C9B_2 C -0.7359(9) -0.1840(6) 0.2525(11)
C9J_2 C -0.8160(6) -0.2641(9) 0.2525(11)
C9_2 C -0.8160(6) -0.5519(7) 0.2525(11)
C9K_2 C -0.7359(9) -0.5519(7) 0.2525(11)
H4K H 0.3095 0.5109 0.2469
H4I H 0.4891 0.7986 0.2469
H4A H 0.4891 0.6905 0.2469
H4J H 0.2014 0.6905 0.2469
H4B H 0.3095 0.7986 0.2469
H4A_2 H -0.5109 -0.3095 0.2469
H4I_2 H -0.5109 -0.2014 0.2469
H4J_2 H -0.7986 -0.3095 0.2469
H4B_2 H -0.6905 -0.2014 0.2469
H4K_2 H -0.6905 -0.4891 0.2469
H4_2 H -0.7986 -0.4891 0.2469
C10K C 0.2657(13) 0.3924(8) 0.3671(12)
C10I C 0.6076(8) 0.8733(10) 0.3671(12)
C10A C 0.6076(8) 0.7343(13) 0.3671(12)
C10J C 0.1267(10) 0.7343(13) 0.3671(12)
C10B C 0.2657(13) 0.8733(10) 0.3671(12)
C10A_2 C -0.3924(8) -0.2657(13) 0.3671(12)
C10I_2 C -0.3924(8) -0.1267(10) 0.3671(12)
C10J_2 C -0.8733(10) -0.2657(13) 0.3671(12)
C10B_2 C -0.7343(13) -0.1267(10) 0.3671(12)
C10K_2 C -0.7343(13) -0.6076(8) 0.3671(12)
C10_2 C -0.8733(10) -0.6076(8) 0.3671(12)
H5K H 0.3100 0.4172 0.4414
H5I H 0.5828 0.8928 0.4414
H5A H 0.5828 0.6900 0.4414
H5J H 0.1072 0.6900 0.4414
H5B H 0.3100 0.8928 0.4414
H5A_2 H -0.4172 -0.3100 0.4414
H5I_2 H -0.4172 -0.1072 0.4414
H5J_2 H -0.8928 -0.3100 0.4414
H5B_2 H -0.6900 -0.1072 0.4414
H5K_2 H -0.6900 -0.5828 0.4414
H5_2 H -0.8928 -0.5828 0.4414
C11K C 0.2009(9) 0.3014(6) 0.3667(10)
C11I C 0.6986(6) 0.8995(7) 0.3667(10)
C11A C 0.6986(6) 0.7991(9) 0.3667(10)
C11J C 0.1005(7) 0.7991(9) 0.3667(10)
C11B C 0.2009(9) 0.8995(7) 0.3667(10)
C11A_2 C -0.3014(6) -0.2009(9) 0.3667(10)
C11I_2 C -0.3014(6) -0.1005(7) 0.3667(10)
C11J_2 C -0.8995(7) -0.2009(9) 0.3667(10)
C11B_2 C -0.7991(9) -0.1005(7) 0.3667(10)
C11K_2 C -0.7991(9) -0.6986(6) 0.3667(10)
C11_2 C -0.8995(7) -0.6986(6) 0.3667(10)
H6K H 0.2013 0.2609 0.4384
H6A H 0.7391 0.7987 0.4384
H6I H 0.7391 0.9404 0.4384
H6B H 0.2013 0.9404 0.4384
H6J H 0.0596 0.7987 0.4384
H6A_2 H -0.2609 -0.2013 0.4384
H6I_2 H -0.2609 -0.0596 0.4384
H6B_2 H -0.7987 -0.0596 0.4384
H6J_2 H -0.9404 -0.2013 0.4384
H6_2 H -0.9404 -0.7391 0.4384
H6K_2 H -0.7987 -0.7391 0.4384
C12B C 0.2867(6) 0.7133(3) 0.0284(8)
C12A C 0.4266(5) 0.7133(6) 0.0284(8)
C12A_2 C -0.5734(5) -0.2867(6) 0.0284(8)
C12_2 C -0.7133(3) -0.4266(5) 0.0284(8)
C12B_2 C -0.7133(6) -0.2867(3) 0.0284(8)
C13B C 0.3801(6) 0.7603(5) 0.0272(8)
C13A C 0.3802(3) 0.6199(6) 0.0272(8)
C13A_2 C -0.6198(3) -0.3801(6) 0.0272(8)
C13_2 C -0.7603(5) -0.3802(3) 0.0272(8)
C13B_2 C -0.6199(6) -0.2397(5) 0.0272(8)
H7A H 0.4123 0.5877 0.0256
H7B H 0.4123 0.8246 0.0256
H7A_2 H -0.5877 -0.4123 0.0256
H7B_2 H -0.5877 -0.1754 0.0256
H7_2 H -0.8246 -0.4123 0.0256
loop_
_geom_bond_atom_site_label_1
_geom_bond_atom_site_label_2
_geom_bond_site_symmetry_1
_geom_bond_site_symmetry_2
Yb1 O1 1_555 1_555
Yb2 O2 1_555 1_555
O1 C1 1_555 1_555
O2 C1 1_555 1_555
C1 C2 1_555 1_555
C2 C3 1_555 1_555
C3 C4 1_555 1_555
C4 H1 1_555 1_555
C5 C4 1_555 1_555
H2 C5 1_555 1_555
C6 C5 1_555 1_555
H3 C6 1_555 1_555
C7 C6 1_555 1_555
C8 C3 1_555 1_555
C9 C8 1_555 1_555
H4 C9 1_555 1_555
C10 C9 1_555 1_555
H5 C10 1_555 1_555
C11 C2 1_555 1_555
H6 C11 1_555 1_555
C12 C7 1_555 1_555
C13 C12 1_555 1_555
H7 C13 1_555 1_555
Yb1_2 O1B 1_555 1_555
Yb1_3 O1A 1_555 1_555
Yb1_4 O1_2 1_555 1_555
Yb1_5 O1B_2 1_555 1_555
Yb2_2 O2B 1_555 1_555
Yb2_3 O2A 1_555 1_555
Yb2_4 O2_2 1_555 1_555
Yb2_5 O2B_2 1_555 1_555
O1B C1B 1_555 1_555
O1A C1A 1_555 1_555
O1A_2 Yb1 1_555 1_555
O1_2 C1_2 1_555 1_555
O1B_2 C1B_2 1_555 1_555
O1B_3 Yb1 1_555 1_555
O1C Yb1 1_555 1_555
O1D Yb1 1_555 1_555
O1E Yb1 1_555 1_555
O2B C1B 1_555 1_555
O2A C1A 1_555 1_555
O2A_2 Yb2 1_555 1_555
O2_2 C1_2 1_555 1_555
O2B_2 C1B_2 1_555 1_555
O2B_3 Yb2 1_555 1_555
O2C Yb2 1_555 1_555
O2D Yb2 1_555 1_555
O2E Yb2 1_555 1_555
C1B C2B 1_555 1_555
C1A C2A 1_555 1_555
C1A_2 O1A_2 1_555 1_555
C1_2 C2_2 1_555 1_555
C1B_2 C2B_2 1_555 1_555
C2B C3B 1_555 1_555
C2A C3A 1_555 1_555
C2A_2 C1A_2 1_555 1_555
C2_2 C3_2 1_555 1_555
C2B_2 C3B_2 1_555 1_555
C3K C2 1_555 1_555
C3B C3J 1_555 1_555
C3J C2B 1_555 1_555
C3A C3I 1_555 1_555
C3I C2A 1_555 1_555
C3A_2 C2A_2 1_555 1_555
C3I_2 C2A_2 1_555 1_555
C3_2 C3K_2 1_555 1_555
C3K_2 C2_2 1_555 1_555
C3B_2 C3J_2 1_555 1_555
C3J_2 C2B_2 1_555 1_555
C4K C3K 1_555 1_555
C4B C3B 1_555 1_555
C4J C3J 1_555 1_555
C4A C3A 1_555 1_555
C4I C3I 1_555 1_555
C4A_2 C3A_2 1_555 1_555
C4I_2 C3I_2 1_555 1_555
C4_2 C3_2 1_555 1_555
C4K_2 C3K_2 1_555 1_555
C4B_2 C3B_2 1_555 1_555
C4J_2 C3J_2 1_555 1_555
H1J C4J 1_555 1_555
H1I C4I 1_555 1_555
H1A C4A 1_555 1_555
H1B C4B 1_555 1_555
H1K C4K 1_555 1_555
H1A_2 C4A_2 1_555 1_555
H1K_2 C4K_2 1_555 1_555
H1J_2 C4J_2 1_555 1_555
H1B_2 C4B_2 1_555 1_555
H1_2 C4_2 1_555 1_555
H1I_2 C4I_2 1_555 1_555
C5K C4K 1_555 1_555
C5B C4B 1_555 1_555
C5J C4J 1_555 1_555
C5A C4A 1_555 1_555
C5I C4I 1_555 1_555
C5A_2 C4A_2 1_555 1_555
C5I_2 C4I_2 1_555 1_555
C5_2 C4_2 1_555 1_555
C5K_2 C4K_2 1_555 1_555
C5B_2 C4B_2 1_555 1_555
C5J_2 C4J_2 1_555 1_555
H2J C5J 1_555 1_555
H2I C5I 1_555 1_555
H2A C5A 1_555 1_555
H2B C5B 1_555 1_555
H2K C5K 1_555 1_555
H2A_2 C5A_2 1_555 1_555
H2K_2 C5K_2 1_555 1_555
H2J_2 C5J_2 1_555 1_555
H2B_2 C5B_2 1_555 1_555
H2_2 C5_2 1_555 1_555
H2I_2 C5I_2 1_555 1_555
C6K C5K 1_555 1_555
C6B C5B 1_555 1_555
C6J C5J 1_555 1_555
C6A C5A 1_555 1_555
C6I C5I 1_555 1_555
C6A_2 C5A_2 1_555 1_555
C6I_2 C5I_2 1_555 1_555
C6_2 C5_2 1_555 1_555
C6K_2 C5K_2 1_555 1_555
C6B_2 C5B_2 1_555 1_555
C6J_2 C5J_2 1_555 1_555
H3J C6J 1_555 1_555
H3I C6I 1_555 1_555
H3A C6A 1_555 1_555
H3B C6B 1_555 1_555
H3K C6K 1_555 1_555
H3A_2 C6A_2 1_555 1_555
H3K_2 C6K_2 1_555 1_555
H3J_2 C6J_2 1_555 1_555
H3B_2 C6B_2 1_555 1_555
H3_2 C6_2 1_555 1_555
H3I_2 C6I_2 1_555 1_555
C7K C7 1_555 1_555
C7B C6B 1_555 1_555
C7J C6J 1_555 1_555
C7A C6A 1_555 1_555
C7I C6I 1_555 1_555
C7A_2 C6A_2 1_555 1_555
C7I_2 C6I_2 1_555 1_555
C7_2 C6_2 1_555 1_555
C7K_2 C6K_2 1_555 1_555
C7B_2 C6B_2 1_555 1_555
C7J_2 C6J_2 1_555 1_555
C8B C3B 1_555 1_555
C8A C3A 1_555 1_555
C8A_2 C3A_2 1_555 1_555
C8_2 C3_2 1_555 1_555
C8B_2 C3B_2 1_555 1_555
C9K C8 1_555 1_555
C9A C8A 1_555 1_555
C9I C8A 1_555 1_555
C9B C8B 1_555 1_555
C9J C8B 1_555 1_555
C9A_2 C8A_2 1_555 1_555
C9I_2 C8A_2 1_555 1_555
C9B_2 C8B_2 1_555 1_555
C9J_2 C8B_2 1_555 1_555
C9_2 C8_2 1_555 1_555
C9K_2 C8_2 1_555 1_555
H4K C9K 1_555 1_555
H4I C9I 1_555 1_555
H4A C9A 1_555 1_555
H4J C9J 1_555 1_555
H4B C9B 1_555 1_555
H4A_2 C9A_2 1_555 1_555
H4I_2 C9I_2 1_555 1_555
H4J_2 C9J_2 1_555 1_555
H4B_2 C9B_2 1_555 1_555
H4K_2 C9K_2 1_555 1_555
H4_2 C9_2 1_555 1_555
C10K C9K 1_555 1_555
C10I C9I 1_555 1_555
C10A C9A 1_555 1_555
C10J C9J 1_555 1_555
C10B C9B 1_555 1_555
C10A_2 C9A_2 1_555 1_555
C10I_2 C9I_2 1_555 1_555
C10J_2 C9J_2 1_555 1_555
C10B_2 C9B_2 1_555 1_555
C10K_2 C9K_2 1_555 1_555
C10_2 C9_2 1_555 1_555
H5K C10K 1_555 1_555
H5I C10I 1_555 1_555
H5A C10A 1_555 1_555
H5J C10J 1_555 1_555
H5B C10B 1_555 1_555
H5A_2 C10A_2 1_555 1_555
H5I_2 C10I_2 1_555 1_555
H5J_2 C10J_2 1_555 1_555
H5B_2 C10B_2 1_555 1_555
H5K_2 C10K_2 1_555 1_555
H5_2 C10_2 1_555 1_555
C11K C2 1_555 1_555
C11I C2A 1_555 1_555
C11A C2A 1_555 1_555
C11J C2B 1_555 1_555
C11B C2B 1_555 1_555
C11A_2 C2A_2 1_555 1_555
C11I_2 C2A_2 1_555 1_555
C11J_2 C2B_2 1_555 1_555
C11B_2 C2B_2 1_555 1_555
C11K_2 C2_2 1_555 1_555
C11_2 C2_2 1_555 1_555
H6K C11K 1_555 1_555
H6A C11A 1_555 1_555
H6I C11I 1_555 1_555
H6B C11B 1_555 1_555
H6J C11J 1_555 1_555
H6A_2 C11A_2 1_555 1_555
H6I_2 C11I_2 1_555 1_555
H6B_2 C11B_2 1_555 1_555
H6J_2 C11J_2 1_555 1_555
H6_2 C11_2 1_555 1_555
H6K_2 C11K_2 1_555 1_555
C12B C13 1_555 1_555
C12A C7A 1_555 1_555
C12A_2 C7A_2 1_555 1_555
C12_2 C7_2 1_555 1_555
C12B_2 C7B_2 1_555 1_555
C13B C12B 1_555 1_555
C13A C12 1_555 1_555
C13A_2 C12A_2 1_555 1_555
C13_2 C12_2 1_555 1_555
C13B_2 C12A_2 1_555 1_555
H7A C13A 1_555 1_555
H7B C13B 1_555 1_555
H7A_2 C13A_2 1_555 1_555
H7B_2 C13B_2 1_555 1_555
H7_2 C13_2 1_555 1_555
C3 C3K 1_555 1_555
C7 C8 1_555 1_555
C8 C3K 1_555 1_555
C8 C7K 1_555 1_555
C9 C9K 1_555 1_555
C10 C11 1_555 1_555
C12 C7K 1_555 1_555
O2A_2 C1A_2 1_555 1_555
C3J C8B 1_555 1_555
C3I C8A 1_555 1_555
C3A_2 C3I_2 1_555 1_555
C3I_2 C8A_2 1_555 1_555
C3K_2 C8_2 1_555 1_555
C3J_2 C8B_2 1_555 1_555
C6K C7K 1_555 1_555
C7B C7J 1_555 1_555
C7B C8B 1_555 1_555
C7B C12B 1_555 1_555
C7J C8B 1_555 1_555
C7J C12B 1_555 1_555
C7A C7I 1_555 1_555
C7A C8A 1_555 1_555
C7I C8A 1_555 1_555
C7I C12A 1_555 1_555
C7A_2 C7I_2 1_555 1_555
C7A_2 C8A_2 1_555 1_555
C7I_2 C8A_2 1_555 1_555
C7I_2 C12A_2 1_555 1_555
C7_2 C7K_2 1_555 1_555
C7_2 C8_2 1_555 1_555
C7K_2 C8_2 1_555 1_555
C7K_2 C12_2 1_555 1_555
C7B_2 C7J_2 1_555 1_555
C7B_2 C8B_2 1_555 1_555
C7J_2 C8B_2 1_555 1_555
C7J_2 C12B_2 1_555 1_555
C9A C9I 1_555 1_555
C9B C9J 1_555 1_555
C9A_2 C9I_2 1_555 1_555
C9B_2 C9J_2 1_555 1_555
C9_2 C9K_2 1_555 1_555
C10K C11K 1_555 1_555
C10I C11I 1_555 1_555
C10A C11A 1_555 1_555
C10J C11J 1_555 1_555
C10B C11B 1_555 1_555
C10A_2 C11A_2 1_555 1_555
C10I_2 C11I_2 1_555 1_555
C10J_2 C11J_2 1_555 1_555
C10B_2 C11B_2 1_555 1_555
C10K_2 C11K_2 1_555 1_555
C10_2 C11_2 1_555 1_555
C12A C13B 1_555 1_555
C12A C13A 1_555 1_555
C12_2 C13A_2 1_555 1_555
C12B_2 C13_2 1_555 1_555
C12B_2 C13B_2 1_555 1_555

#END
