
#######################################################################
#
#                 Cambridge Crystallographic Data Centre
#                                CCDC 
#
#######################################################################
#
# If this CIF has been generated from an entry in the Cambridge 
# Structural Database, then it will include bibliographic, chemical, 
# crystal, experimental, refinement or atomic coordinate data resulting 
# from the CCDC's data processing and validation procedures.
#
#######################################################################

data_BEPRIZ
_chemical_formula_moiety         '(C57 H34 Co3 N3 O13)n'
_chemical_name_systematic        
"catena-[tris(\m~5~-4,4'-Pyridine-3,5-diyldibenzoato)-(\m~3~-hydroxo)-tri-cobalt unknown solvate]"
_symmetry_cell_setting           rhombohedral
_symmetry_space_group_name_H-M   'R -3 c'
_symmetry_Int_Tables_number      167
_space_group_name_Hall           '-R 3 2"c'
loop_
_symmetry_equiv_pos_site_id
_symmetry_equiv_pos_as_xyz
1 x,y,z
2 -y,x-y,z
3 -x+y,-x,z
4 y,x,1/2-z
5 x-y,-y,1/2-z
6 -x,-x+y,1/2-z
7 2/3+x,1/3+y,1/3+z
8 2/3-y,1/3+x-y,1/3+z
9 2/3-x+y,1/3-x,1/3+z
10 2/3+y,1/3+x,5/6-z
11 2/3+x-y,1/3-y,5/6-z
12 2/3-x,1/3-x+y,5/6-z
13 1/3+x,2/3+y,2/3+z
14 1/3-y,2/3+x-y,2/3+z
15 1/3-x+y,2/3-x,2/3+z
16 1/3+y,2/3+x,1/6-z
17 1/3+x-y,2/3-y,1/6-z
18 1/3-x,2/3-x+y,1/6-z
19 -x,-y,-z
20 y,-x+y,-z
21 x-y,x,-z
22 -y,-x,1/2+z
23 -x+y,y,1/2+z
24 x,x-y,1/2+z
25 1/3-x,2/3-y,2/3-z
26 1/3+y,2/3-x+y,2/3-z
27 1/3+x-y,2/3+x,2/3-z
28 1/3-y,2/3-x,1/6+z
29 1/3-x+y,2/3+y,1/6+z
30 1/3+x,2/3+x-y,1/6+z
31 2/3-x,1/3-y,1/3-z
32 2/3+y,1/3-x+y,1/3-z
33 2/3+x-y,1/3+x,1/3-z
34 2/3-y,1/3-x,5/6+z
35 2/3-x+y,1/3+y,5/6+z
36 2/3+x,1/3+x-y,5/6+z
_cell_length_a                   19.4312(10)
_cell_length_b                   19.4312(10)
_cell_length_c                   45.631(3)
_cell_angle_alpha                90
_cell_angle_beta                 90
_cell_angle_gamma                120
_cell_volume                     14920.7
_exptl_crystal_colour            purple
_exptl_crystal_description       block
_cell_formula_units_Z            6
loop_
_atom_site_label
_atom_site_type_symbol
_atom_site_fract_x
_atom_site_fract_y
_atom_site_fract_z
Co1 Co 0.562273(19) 0.3333 0.0833
O1 O 0.6667 0.3333 0.0833
O2 O 0.60764(10) 0.42720(11) 0.05345(4)
O3 O 0.73899(10) 0.48106(11) 0.04728(4)
N1 N 0.54921(14) 0.6667 -0.0833
C1 C 0.67175(15) 0.46931(15) 0.04043(5)
C2 C 0.66642(16) 0.50894(17) 0.01271(6)
C3 C 0.5926(2) 0.4809(2) -0.00092(7)
H1 H 0.5481 0.4368 0.0068
C4 C 0.5848(2) 0.5173(2) -0.02559(7)
H2 H 0.5360 0.4959 -0.0351
C5 C 0.65050(17) 0.5868(2) -0.03639(7)
C6 C 0.72214(19) 0.6082(2) -0.02471(8)
H3 H 0.7674 0.6492 -0.0334
C7 C 0.73034(18) 0.5710(2) -0.00014(8)
H4 H 0.7806 0.5890 0.0077
C8 C 0.6921(2) 0.6667 -0.0833
H5 H 0.7399 0.6667 -0.0833
C9 C 0.63854(16) 0.6305(2) -0.06069(6)
C10 C 0.56835(15) 0.63366(17) -0.06158(6)
H6 H 0.5329 0.6114 -0.0461
O2J O 0.84711(15) 0.90613(11) -0.22012(4)
O3J O 0.92460(15) 0.85227(11) -0.21395(4)
C1J C 0.86911(21) 0.86402(15) -0.20710(5)
C2J C 0.82415(23) 0.82439(17) -0.17938(6)
C3J C 0.7784(3) 0.8524(2) -0.16575(7)
H1J H 0.7780 0.8965 -0.1735
C4J C 0.7342(3) 0.8160(2) -0.14108(7)
H2J H 0.7068 0.8374 -0.1316
C5J C 0.73037(26) 0.7465(2) -0.13028(7)
C6J C 0.78061(28) 0.7251(2) -0.14196(8)
H3J H 0.7849 0.6841 -0.1333
C7J C 0.82601(27) 0.7623(2) -0.16653(8)
H4J H 0.8583 0.7443 -0.1744
C9J C 0.67471(26) 0.7028(2) -0.10598(6)
C10J C 0.60136(23) 0.69967(17) -0.10509(6)
H6J H 0.5882 0.7219 -0.1206
Co1A Co 0.6667 0.228973(19) 0.0833
O2A O 0.57280(11) 0.18044(15) 0.05345(4)
O3A O 0.51894(11) 0.25793(15) 0.04728(4)
N1A N 0.3333 -0.11749(14) -0.0833
C1A C 0.53069(15) 0.20244(21) 0.04043(5)
C2A C 0.49106(17) 0.15748(23) 0.01271(6)
C3A C 0.5191(2) 0.1117(3) -0.00092(7)
H1A H 0.5632 0.1113 0.0068
C4A C 0.4827(2) 0.0675(3) -0.02559(7)
H2A H 0.5041 0.0401 -0.0351
C5A C 0.4132(2) 0.06370(26) -0.03639(7)
C6A C 0.3918(2) 0.11394(28) -0.02471(8)
H3A H 0.3508 0.1182 -0.0334
C7A C 0.4290(2) 0.15934(27) -0.00014(8)
H4A H 0.4110 0.1916 0.0077
C8A C 0.3333 0.0254(2) -0.0833
H5A H 0.3333 0.0732 -0.0833
C9A C 0.3695(2) 0.00804(26) -0.06069(6)
C10A C 0.36634(17) -0.06531(23) -0.06158(6)
H6A H 0.3886 -0.0785 -0.0461
O2I O 0.09387(11) -0.05903(10) -0.22012(4)
O3I O 0.14773(11) 0.07232(10) -0.21395(4)
C1I C 0.13598(15) 0.00508(15) -0.20710(5)
C2I C 0.17561(17) -0.00025(16) -0.17938(6)
C3I C 0.1476(2) -0.0741(2) -0.16575(7)
H1I H 0.1035 -0.1186 -0.1735
C4I C 0.1840(2) -0.0819(2) -0.14108(7)
H2I H 0.1626 -0.1307 -0.1316
C5I C 0.2535(2) -0.01617(17) -0.13028(7)
C6I C 0.2749(2) 0.05547(19) -0.14196(8)
H3I H 0.3159 0.1007 -0.1333
C7I C 0.2377(2) 0.06367(18) -0.16653(8)
H4I H 0.2557 0.1139 -0.1744
C9I C 0.2972(2) -0.02813(16) -0.10598(6)
C10I C 0.30033(17) -0.09832(15) -0.10509(6)
H6I H 0.2781 -0.1338 -0.1206
Co1B Co 0.771027(19) 0.437727(19) 0.0833
O2B O 0.81956(15) 0.39236(10) 0.05345(4)
O3B O 0.74207(15) 0.26101(10) 0.04728(4)
N1B N 1.11749(14) 0.45079(14) -0.0833
C1B C 0.79756(21) 0.32825(15) 0.04043(5)
C2B C 0.84252(23) 0.33358(16) 0.01271(6)
C3B C 0.8883(3) 0.4074(2) -0.00092(7)
H1B H 0.8887 0.4519 0.0068
C4B C 0.9325(3) 0.4152(2) -0.02559(7)
H2B H 0.9599 0.4640 -0.0351
C5B C 0.93630(26) 0.34950(17) -0.03639(7)
C6B C 0.88606(28) 0.27786(19) -0.02471(8)
H3B H 0.8818 0.2326 -0.0334
C7B C 0.84066(27) 0.26966(18) -0.00014(8)
H4B H 0.8084 0.2194 0.0077
C8B C 0.9746(2) 0.3079(2) -0.0833
H5B H 0.9268 0.2601 -0.0833
C9B C 0.99196(26) 0.36146(16) -0.06069(6)
C10B C 1.06531(23) 0.43165(15) -0.06158(6)
H6B H 1.0785 0.4671 -0.0461
O2K O 1.05903(10) 0.15289(15) -0.22012(4)
O3K O 0.92768(10) 0.07540(15) -0.21395(4)
C1K C 0.99492(15) 0.13089(21) -0.20710(5)
C2K C 1.00025(16) 0.17585(23) -0.17938(6)
C3K C 1.0741(2) 0.2216(3) -0.16575(7)
H1K H 1.1186 0.2220 -0.1735
C4K C 1.0819(2) 0.2658(3) -0.14108(7)
H2K H 1.1307 0.2932 -0.1316
C5K C 1.01617(17) 0.26963(26) -0.13028(7)
C6K C 0.94453(19) 0.21939(28) -0.14196(8)
H3K H 0.8993 0.2151 -0.1333
C7K C 0.93633(18) 0.17399(27) -0.16653(8)
H4K H 0.8861 0.1417 -0.1744
C9K C 1.02813(16) 0.32529(26) -0.10598(6)
C10K C 1.09832(15) 0.39864(23) -0.10509(6)
H6K H 1.1338 0.4118 -0.1206
Co1I Co -0.0000 -0.104394(19) -0.2500
Co1I_2 Co 1.0000 0.895606(19) -0.2500
Co1J Co 0.895640(19) 0.0000 -0.2500
Co1J_2 Co 0.895640(19) 1.0000 -0.2500
Co1K Co 0.104394(19) 0.104360(19) -0.2500
Co1K_2 Co 1.104394(19) 0.104360(19) -0.2500
Co1R Co 0.437727(19) 0.6667 -0.0833
Co1S Co 0.3333 -0.228973(19) -0.0833
Co1T Co 1.228973(19) 0.562273(19) -0.0833
O2O O 0.76053(11) 0.27431(10) 0.11322(4)
O2P O 0.51377(15) 0.23947(11) 0.11322(4)
O2Q O 0.72569(10) 0.48623(15) 0.11322(4)
O3O O 0.81439(11) 0.40566(10) 0.11939(4)
O3P O 0.59126(15) 0.18561(11) 0.11939(4)
O3Q O 0.59434(10) 0.40874(15) 0.11939(4)
N1R N 0.45079(14) 0.3333 0.0833
N1S N 0.6667 0.11749(14) 0.0833
N1T N 0.88251(14) 0.54921(14) 0.0833
H7? H 0.6667 0.3333 0.1048
loop_
_geom_bond_atom_site_label_1
_geom_bond_atom_site_label_2
_geom_bond_site_symmetry_1
_geom_bond_site_symmetry_2
Co1 O1 1_555 1_555
O1 Co1A 1_555 1_555
O2 Co1 1_555 1_555
O3 C1 1_555 1_555
N1 C10 1_555 1_555
C1 O2 1_555 1_555
C2 C1 1_555 1_555
C3 C2 1_555 1_555
H1 C3 1_555 1_555
C4 C3 1_555 1_555
H2 C4 1_555 1_555
C5 C4 1_555 1_555
C6 C5 1_555 1_555
H3 C6 1_555 1_555
C7 C2 1_555 1_555
H4 C7 1_555 1_555
C8 H5 1_555 1_555
C9 C5 1_555 1_555
C10 C9 1_555 1_555
H6 C10 1_555 1_555
O2J C1J 1_555 1_555
O3J C1J 1_555 1_555
C1J C2J 1_555 1_555
C2J C3J 1_555 1_555
C3J H1J 1_555 1_555
C4J C3J 1_555 1_555
H2J C4J 1_555 1_555
C5J C4J 1_555 1_555
C6J C5J 1_555 1_555
H3J C6J 1_555 1_555
C7J C2J 1_555 1_555
H4J C7J 1_555 1_555
C9J C8 1_555 1_555
C10J N1 1_555 1_555
H6J C10J 1_555 1_555
Co1A O2A 1_555 1_555
O2A C1A 1_555 1_555
O3A Co1 1_555 1_555
N1A C10A 1_555 1_555
C1A O3A 1_555 1_555
C2A C1A 1_555 1_555
C3A C2A 1_555 1_555
H1A C3A 1_555 1_555
C4A C3A 1_555 1_555
H2A C4A 1_555 1_555
C5A C4A 1_555 1_555
C6A C5A 1_555 1_555
H3A C6A 1_555 1_555
C7A C2A 1_555 1_555
H4A C7A 1_555 1_555
C8A H5A 1_555 1_555
C9A C5A 1_555 1_555
C10A C9A 1_555 1_555
H6A C10A 1_555 1_555
O2I C1I 1_555 1_555
O3I C1I 1_555 1_555
C1I C2I 1_555 1_555
C2I C3I 1_555 1_555
C3I H1I 1_555 1_555
C4I C3I 1_555 1_555
H2I C4I 1_555 1_555
C5I C4I 1_555 1_555
C6I C5I 1_555 1_555
H3I C6I 1_555 1_555
C7I C2I 1_555 1_555
H4I C7I 1_555 1_555
C9I C8A 1_555 1_555
C10I N1A 1_555 1_555
H6I C10I 1_555 1_555
Co1B O1 1_555 1_555
O2B Co1B 1_555 1_555
O3B Co1A 1_555 1_555
N1B C10B 1_555 1_555
C1B O2B 1_555 1_555
C2B C1B 1_555 1_555
C3B C2B 1_555 1_555
H1B C3B 1_555 1_555
C4B C3B 1_555 1_555
H2B C4B 1_555 1_555
C5B C4B 1_555 1_555
C6B C5B 1_555 1_555
H3B C6B 1_555 1_555
C7B C2B 1_555 1_555
H4B C7B 1_555 1_555
C8B H5B 1_555 1_555
C9B C5B 1_555 1_555
C10B C9B 1_555 1_555
H6B C10B 1_555 1_555
O2K C1K 1_555 1_555
O3K C1K 1_555 1_555
C1K C2K 1_555 1_555
C2K C3K 1_555 1_555
C3K H1K 1_555 1_555
C4K C3K 1_555 1_555
H2K C4K 1_555 1_555
C5K C4K 1_555 1_555
C6K C5K 1_555 1_555
H3K C6K 1_555 1_555
C7K C2K 1_555 1_555
H4K C7K 1_555 1_555
C9K C8B 1_555 1_555
C10K N1B 1_555 1_555
H6K C10K 1_555 1_555
Co1I O2I 1_555 1_555
Co1I_2 O3J 1_555 1_555
Co1J O3K 1_555 1_555
Co1J_2 O2J 1_555 1_555
Co1K O3I 1_555 1_555
Co1K_2 O2K 1_555 1_555
Co1R N1 1_555 1_555
Co1S N1A 1_555 1_555
Co1T N1B 1_555 1_555
O2O Co1A 1_555 1_555
O2P Co1 1_555 1_555
O2Q Co1B 1_555 1_555
O3O Co1B 1_555 1_555
O3P Co1A 1_555 1_555
O3Q Co1 1_555 1_555
N1R Co1 1_555 1_555
N1S Co1A 1_555 1_555
N1T Co1B 1_555 1_555
O3 Co1B 1_555 1_555
C6 C7 1_555 1_555
C8 C9 1_555 1_555
C5J C9J 1_555 1_555
C6J C7J 1_555 1_555
C9J C10J 1_555 1_555
C6A C7A 1_555 1_555
C8A C9A 1_555 1_555
C5I C9I 1_555 1_555
C6I C7I 1_555 1_555
C9I C10I 1_555 1_555
O3B C1B 1_555 1_555
C6B C7B 1_555 1_555
C8B C9B 1_555 1_555
C5K C9K 1_555 1_555
C6K C7K 1_555 1_555
C9K C10K 1_555 1_555

#END
