
#######################################################################
#
#                 Cambridge Crystallographic Data Centre
#                                CCDC 
#
#######################################################################
#
# If this CIF has been generated from an entry in the Cambridge 
# Structural Database, then it will include bibliographic, chemical, 
# crystal, experimental, refinement or atomic coordinate data resulting 
# from the CCDC's data processing and validation procedures.
#
#######################################################################

data_BEPREV01
_chemical_formula_moiety         '(C72 H43 N6 Ni3 O13)n,12n(C3 H7 N1 O1)'
_chemical_name_systematic        
"catena-[tris(\m~5~-4,4'-(4,4'-Bipyridine-2,6-diyl)dibenzoato)-(\m~3~-hydroxo)-tri-nickel N,N-dimethylformamide solvate]"
_symmetry_cell_setting           rhombohedral
_symmetry_space_group_name_H-M   'R -3 c'
_symmetry_Int_Tables_number      167
_space_group_name_Hall           '-R 3 2"c'
loop_
_symmetry_equiv_pos_site_id
_symmetry_equiv_pos_as_xyz
1 x,y,z
2 -y,x-y,z
3 -x+y,-x,z
4 y,x,1/2-z
5 x-y,-y,1/2-z
6 -x,-x+y,1/2-z
7 2/3+x,1/3+y,1/3+z
8 2/3-y,1/3+x-y,1/3+z
9 2/3-x+y,1/3-x,1/3+z
10 2/3+y,1/3+x,5/6-z
11 2/3+x-y,1/3-y,5/6-z
12 2/3-x,1/3-x+y,5/6-z
13 1/3+x,2/3+y,2/3+z
14 1/3-y,2/3+x-y,2/3+z
15 1/3-x+y,2/3-x,2/3+z
16 1/3+y,2/3+x,1/6-z
17 1/3+x-y,2/3-y,1/6-z
18 1/3-x,2/3-x+y,1/6-z
19 -x,-y,-z
20 y,-x+y,-z
21 x-y,x,-z
22 -y,-x,1/2+z
23 -x+y,y,1/2+z
24 x,x-y,1/2+z
25 1/3-x,2/3-y,2/3-z
26 1/3+y,2/3-x+y,2/3-z
27 1/3+x-y,2/3+x,2/3-z
28 1/3-y,2/3-x,1/6+z
29 1/3-x+y,2/3+y,1/6+z
30 1/3+x,2/3+x-y,1/6+z
31 2/3-x,1/3-y,1/3-z
32 2/3+y,1/3-x+y,1/3-z
33 2/3+x-y,1/3+x,1/3-z
34 2/3-y,1/3-x,5/6+z
35 2/3-x+y,1/3+y,5/6+z
36 2/3+x,1/3+x-y,5/6+z
_cell_length_a                   29.151(3)
_cell_length_b                   29.151(3)
_cell_length_c                   23.070(2)
_cell_angle_alpha                90
_cell_angle_beta                 90
_cell_angle_gamma                120
_cell_volume                     16977.9
_exptl_crystal_colour            green
_exptl_crystal_description       plate
_cell_formula_units_Z            6
_exptl_crystal_preparation       quenched
loop_
_atom_site_label
_atom_site_type_symbol
_atom_site_fract_x
_atom_site_fract_y
_atom_site_fract_z
C14 C 0.5852(17) 0.530(2) 0.2406(17)
Ni1 Ni 0.6667 0.40195(3) 0.0833
O1 O 0.6667 0.3333 0.0833
O2 O 0.43488(17) 0.71328(17) -0.0177(3)
O3 O 0.39610(18) 0.62534(17) -0.0245(3)
N1 N 0.6667 0.4733(3) 0.0833
N2 N 0.6667 0.7169(3) 0.0833
C1 C 0.4336(2) 0.6700(2) -0.0112(4)
C2 C 0.4822(3) 0.6718(3) 0.0150(4)
C3 C 0.5294(3) 0.7184(3) 0.0209(5)
H1 H 0.5310 0.7510 0.0118
C4 C 0.5748(3) 0.7187(3) 0.0402(5)
H2 H 0.6069 0.7515 0.0436
C5 C 0.5740(3) 0.6726(3) 0.0542(4)
C6 C 0.5241(3) 0.6259(3) 0.0545(5)
H3 H 0.5210 0.5940 0.0691
C7 C 0.4798(3) 0.6257(3) 0.0340(5)
H4 H 0.4470 0.5934 0.0328
C8 C 0.6228(3) 0.6711(3) 0.0697(4)
C9 C 0.6217(3) 0.6226(3) 0.0697(4)
H5 H 0.5899 0.5909 0.0603
C10 C 0.6667 0.6207(3) 0.0833
C11 C 0.6667 0.5693(3) 0.0833
C12 C 0.7136(3) 0.5680(3) 0.0876(5)
H6 H 0.7466 0.5999 0.0907
C13 C 0.7114(3) 0.5199(3) 0.0872(5)
H7 H 0.7438 0.5197 0.0899
O2Q O 0.89845(17) 0.94507(24) 0.1844(3)
O3Q O 0.93723(18) 0.89591(25) 0.1912(3)
C1Q C 0.8997(2) 0.9031(3) 0.1779(4)
C2Q C 0.8511(3) 0.8563(4) 0.1517(4)
C3Q C 0.8039(3) 0.8557(4) 0.1458(5)
H1Q H 0.8023 0.8867 0.1549
C4Q C 0.7585(3) 0.8106(4) 0.1265(5)
H2Q H 0.7264 0.8113 0.1231
C5Q C 0.7593(3) 0.7653(4) 0.1125(4)
C6Q C 0.8092(3) 0.7685(4) 0.1122(5)
H3Q H 0.8123 0.7397 0.0976
C7Q C 0.8535(3) 0.8126(4) 0.1327(5)
H4Q H 0.8863 0.8131 0.1339
C8Q C 0.7105(3) 0.7150(4) 0.0970(4)
C9Q C 0.7116(3) 0.6676(4) 0.0970(4)
H5Q H 0.7434 0.6677 0.1064
C12Q C 0.6197(3) 0.5211(4) 0.0791(5)
H6Q H 0.5867 0.5200 0.0760
C13Q C 0.6219(3) 0.4752(4) 0.0795(5)
H7Q H 0.5895 0.4426 0.0768
Ni1A Ni 0.59805(3) 0.26475(3) 0.0833
O2A O 0.28672(17) -0.27840(24) -0.0177(3)
O3A O 0.37466(17) -0.22924(25) -0.0245(3)
N1A N 0.5267(3) 0.1934(3) 0.0833
N2A N 0.2831(3) -0.0502(3) 0.0833
C1A C 0.3300(2) -0.2364(3) -0.0112(4)
C2A C 0.3282(3) -0.1896(4) 0.0150(4)
C3A C 0.2816(3) -0.1890(4) 0.0209(5)
H1A H 0.2490 -0.2200 0.0118
C4A C 0.2813(3) -0.1439(4) 0.0402(5)
H2A H 0.2485 -0.1446 0.0436
C5A C 0.3274(3) -0.0986(4) 0.0542(4)
C6A C 0.3741(3) -0.1018(4) 0.0545(5)
H3A H 0.4060 -0.0730 0.0691
C7A C 0.3743(3) -0.1459(4) 0.0340(5)
H4A H 0.4066 -0.1464 0.0328
C8A C 0.3289(3) -0.0483(4) 0.0697(4)
C9A C 0.3774(3) -0.0009(4) 0.0697(4)
H5A H 0.4091 -0.0010 0.0603
C10A C 0.3793(3) 0.0460(3) 0.0833
C11A C 0.4307(3) 0.0974(3) 0.0833
C12A C 0.4320(3) 0.1456(4) 0.0876(5)
H6A H 0.4001 0.1467 0.0907
C13A C 0.4801(3) 0.1915(4) 0.0872(5)
H7A H 0.4803 0.2241 0.0899
O2P O 0.05493(24) -0.04661(17) 0.1844(3)
O3P O 0.10409(25) 0.04133(17) 0.1912(3)
C1P C 0.0969(3) -0.0033(2) 0.1779(4)
C2P C 0.1437(4) -0.0051(3) 0.1517(4)
C3P C 0.1443(4) -0.0517(3) 0.1458(5)
H1P H 0.1133 -0.0843 0.1549
C4P C 0.1894(4) -0.0520(3) 0.1265(5)
H2P H 0.1887 -0.0848 0.1231
C5P C 0.2347(4) -0.0059(3) 0.1125(4)
C6P C 0.2315(4) 0.0408(3) 0.1122(5)
H3P H 0.2603 0.0727 0.0976
C7P C 0.1874(4) 0.0410(3) 0.1327(5)
H4P H 0.1869 0.0733 0.1339
C8P C 0.2850(4) -0.0044(3) 0.0970(4)
C9P C 0.3324(4) 0.0441(3) 0.0970(4)
H5P H 0.3323 0.0758 0.1064
C12P C 0.4789(4) 0.0987(3) 0.0791(5)
H6P H 0.4800 0.0668 0.0760
C13P C 0.5248(4) 0.1468(3) 0.0795(5)
H7P H 0.5574 0.1470 0.0768
Ni1B Ni 0.73525(3) 0.3333 0.0833
O2B O 1.27840(24) 0.56512(17) -0.0177(3)
O3B O 1.22924(25) 0.60390(18) -0.0245(3)
N1B N 0.8066(3) 0.3333 0.0833
N2B N 1.0502(3) 0.3333 0.0833
C1B C 1.2364(3) 0.5664(2) -0.0112(4)
C2B C 1.1896(4) 0.5178(3) 0.0150(4)
C3B C 1.1890(4) 0.4706(3) 0.0209(5)
H1B H 1.2200 0.4690 0.0118
C4B C 1.1439(4) 0.4252(3) 0.0402(5)
H2B H 1.1446 0.3931 0.0436
C5B C 1.0986(4) 0.4260(3) 0.0542(4)
C6B C 1.1018(4) 0.4759(3) 0.0545(5)
H3B H 1.0730 0.4790 0.0691
C7B C 1.1459(4) 0.5202(3) 0.0340(5)
H4B H 1.1464 0.5530 0.0328
C8B C 1.0483(4) 0.3772(3) 0.0697(4)
C9B C 1.0009(4) 0.3783(3) 0.0697(4)
H5B H 1.0010 0.4101 0.0603
C10B C 0.9540(3) 0.3333 0.0833
C11B C 0.9026(3) 0.3333 0.0833
C12B C 0.8544(4) 0.2864(3) 0.0876(5)
H6B H 0.8533 0.2534 0.0907
C13B C 0.8085(4) 0.2886(3) 0.0872(5)
H7B H 0.7759 0.2562 0.0899
O2O O 1.04661(17) 0.10155(17) 0.1844(3)
O3O O 0.95867(17) 0.06277(18) 0.1912(3)
C1O C 1.0033(2) 0.1003(2) 0.1779(4)
C2O C 1.0051(3) 0.1489(3) 0.1517(4)
C3O C 1.0517(3) 0.1961(3) 0.1458(5)
H1O H 1.0843 0.1977 0.1549
C4O C 1.0520(3) 0.2415(3) 0.1265(5)
H2O H 1.0848 0.2736 0.1231
C5O C 1.0059(3) 0.2407(3) 0.1125(4)
C6O C 0.9592(3) 0.1908(3) 0.1122(5)
H3O H 0.9273 0.1877 0.0976
C7O C 0.9590(3) 0.1465(3) 0.1327(5)
H4O H 0.9267 0.1137 0.1339
C8O C 1.0044(3) 0.2895(3) 0.0970(4)
C9O C 0.9559(3) 0.2884(3) 0.0970(4)
H5O H 0.9242 0.2566 0.1064
C12O C 0.9013(3) 0.3803(3) 0.0791(5)
H6O H 0.9332 0.4133 0.0760
C13O C 0.8532(3) 0.3781(3) 0.0795(5)
H7O H 0.8530 0.4105 0.0768
Ni1R Ni 0.3333 0.59805(3) -0.0833
Ni1R_2 Ni 1.3333 0.59805(3) -0.0833
Ni1S Ni 0.40195(3) -0.26475(3) -0.0833
Ni1S_2 Ni 0.40195(3) 0.73525(3) -0.0833
Ni1T Ni 0.26475(3) -0.3333 -0.0833
Ni1T_2 Ni 1.26475(3) 0.6667 -0.0833
Ni1DA Ni -0.0000 -0.06862(3) 0.2500
Ni1DA_2 Ni 1.0000 0.93138(3) 0.2500
Ni1EA Ni 0.06862(3) 0.06858(3) 0.2500
Ni1EA_2 Ni 1.06862(3) 0.06858(3) 0.2500
Ni1FA Ni 0.93142(3) 0.0000 0.2500
Ni1FA_2 Ni 0.93142(3) 1.0000 0.2500
O2R O 0.56512(17) 0.28672(17) 0.0177(3)
O2S O 0.71328(17) 0.27840(24) 0.0177(3)
O2T O 0.72160(24) 0.43488(17) 0.0177(3)
O2AA O 0.62005(17) 0.23179(17) 0.1490(3)
O2BA O 0.61173(24) 0.37995(17) 0.1490(3)
O2CA O 0.76821(17) 0.38827(24) 0.1490(3)
O3R O 0.60390(18) 0.37466(17) 0.0245(3)
O3S O 0.62534(17) 0.22924(25) 0.0245(3)
O3T O 0.77076(25) 0.39610(18) 0.0245(3)
O3AA O 0.70799(17) 0.27057(18) 0.1422(3)
O3BA O 0.56257(25) 0.29201(17) 0.1422(3)
O3CA O 0.72943(18) 0.43743(25) 0.1422(3)
O4? O 0.5360(14) 0.5234(14) 0.3465(6)
H8? H 0.5120 0.5631 0.3202
C15? C 0.5262(17) 0.567(2) 0.2051(15)
H9? H 0.5080 0.5793 0.2278
H10? H 0.5548 0.5960 0.1864
H11? H 0.5018 0.5419 0.1789
H12? H 0.5971 0.5134 0.2669
H13? H 0.5622 0.5035 0.2146
H14? H 0.6153 0.5577 0.2221
H15? H 0.6667 0.3333 0.1267
O5? O 0.6700(10) 0.5241(10) 0.2368(10)
N3? N 0.6905(9) 0.4660(8) 0.2818(10)
C16? C 0.6677(9) 0.4817(10) 0.2398(10)
H16? H 0.6482 0.4567 0.2104
C17? C 0.6873(12) 0.4146(10) 0.2735(13)
H17? H 0.6831 0.4057 0.2322
H18? H 0.6567 0.3873 0.2949
C18? C 0.7211(12) 0.5057(11) 0.3257(11)
O6? O 0.8302(9) 0.6727(9) 0.2260(9)
N4? N 0.7468(10) 0.6576(11) 0.2481(12)
C19? C 0.7845(10) 0.6429(10) 0.2388(13)
H19? H 0.7736 0.6064 0.2427
C20? C 0.6922(10) 0.6174(14) 0.2570(18)
H20? H 0.6897 0.5827 0.2603
H21? H 0.6709 0.6171 0.2241
H22? H 0.6790 0.6250 0.2927
C21? C 0.7586(14) 0.7114(13) 0.2422(19)
H23? H 0.7620 0.7208 0.2010
H24? H 0.7919 0.7350 0.2622
H25? H 0.7299 0.7152 0.2594
H26? H 0.7197 0.4165 0.2880
H27? H 0.7454 0.5394 0.3068
H28? H 0.7414 0.4938 0.3489
H29? H 0.6969 0.5107 0.3511
N5? N 0.5480(6) 0.5480(6) 0.2500
C22? C 0.5446(11) 0.5288(11) 0.1946(6)
loop_
_geom_bond_atom_site_label_1
_geom_bond_atom_site_label_2
_geom_bond_site_symmetry_1
_geom_bond_site_symmetry_2
Ni1 O1 1_555 1_555
O1 Ni1A 1_555 1_555
O2 C1 1_555 1_555
O3 C1 1_555 1_555
N1 Ni1 1_555 1_555
N2 C8 1_555 1_555
C1 C2 1_555 1_555
C2 C3 1_555 1_555
C3 H1 1_555 1_555
C4 C3 1_555 1_555
H2 C4 1_555 1_555
C5 C4 1_555 1_555
C6 C5 1_555 1_555
H3 C6 1_555 1_555
C7 C2 1_555 1_555
H4 C7 1_555 1_555
C8 C5 1_555 1_555
C9 C8 1_555 1_555
H5 C9 1_555 1_555
C10 C9 1_555 1_555
C11 C10 1_555 1_555
C12 C11 1_555 1_555
H6 C12 1_555 1_555
C13 N1 1_555 1_555
H7 C13 1_555 1_555
O2Q C1Q 1_555 1_555
O3Q C1Q 1_555 1_555
C1Q C2Q 1_555 1_555
C2Q C3Q 1_555 1_555
C3Q H1Q 1_555 1_555
C4Q C3Q 1_555 1_555
H2Q C4Q 1_555 1_555
C5Q C4Q 1_555 1_555
C6Q C5Q 1_555 1_555
H3Q C6Q 1_555 1_555
C7Q C2Q 1_555 1_555
H4Q C7Q 1_555 1_555
C8Q N2 1_555 1_555
C9Q C10 1_555 1_555
H5Q C9Q 1_555 1_555
C12Q C11 1_555 1_555
H6Q C12Q 1_555 1_555
C13Q N1 1_555 1_555
H7Q C13Q 1_555 1_555
Ni1A N1A 1_555 1_555
O2A C1A 1_555 1_555
O3A C1A 1_555 1_555
N1A C13A 1_555 1_555
N2A C8A 1_555 1_555
C1A C2A 1_555 1_555
C2A C3A 1_555 1_555
C3A H1A 1_555 1_555
C4A C3A 1_555 1_555
H2A C4A 1_555 1_555
C5A C4A 1_555 1_555
C6A C5A 1_555 1_555
H3A C6A 1_555 1_555
C7A C2A 1_555 1_555
H4A C7A 1_555 1_555
C8A C5A 1_555 1_555
C9A C8A 1_555 1_555
H5A C9A 1_555 1_555
C10A C9A 1_555 1_555
C11A C10A 1_555 1_555
C12A C11A 1_555 1_555
H6A C12A 1_555 1_555
C13A C12A 1_555 1_555
H7A C13A 1_555 1_555
O2P C1P 1_555 1_555
O3P C1P 1_555 1_555
C1P C2P 1_555 1_555
C2P C3P 1_555 1_555
C3P H1P 1_555 1_555
C4P C3P 1_555 1_555
H2P C4P 1_555 1_555
C5P C4P 1_555 1_555
C6P C5P 1_555 1_555
H3P C6P 1_555 1_555
C7P C2P 1_555 1_555
H4P C7P 1_555 1_555
C8P N2A 1_555 1_555
C9P C10A 1_555 1_555
H5P C9P 1_555 1_555
C12P C11A 1_555 1_555
H6P C12P 1_555 1_555
C13P N1A 1_555 1_555
H7P C13P 1_555 1_555
Ni1B O1 1_555 1_555
O2B C1B 1_555 1_555
O3B C1B 1_555 1_555
N1B Ni1B 1_555 1_555
N2B C8B 1_555 1_555
C1B C2B 1_555 1_555
C2B C3B 1_555 1_555
C3B H1B 1_555 1_555
C4B C3B 1_555 1_555
H2B C4B 1_555 1_555
C5B C4B 1_555 1_555
C6B C5B 1_555 1_555
H3B C6B 1_555 1_555
C7B C2B 1_555 1_555
H4B C7B 1_555 1_555
C8B C5B 1_555 1_555
C9B C8B 1_555 1_555
H5B C9B 1_555 1_555
C10B C9B 1_555 1_555
C11B C10B 1_555 1_555
C12B C11B 1_555 1_555
H6B C12B 1_555 1_555
C13B N1B 1_555 1_555
H7B C13B 1_555 1_555
O2O C1O 1_555 1_555
O3O C1O 1_555 1_555
C1O C2O 1_555 1_555
C2O C3O 1_555 1_555
C3O H1O 1_555 1_555
C4O C3O 1_555 1_555
H2O C4O 1_555 1_555
C5O C4O 1_555 1_555
C6O C5O 1_555 1_555
H3O C6O 1_555 1_555
C7O C2O 1_555 1_555
H4O C7O 1_555 1_555
C8O N2B 1_555 1_555
C9O C10B 1_555 1_555
H5O C9O 1_555 1_555
C12O C11B 1_555 1_555
H6O C12O 1_555 1_555
C13O N1B 1_555 1_555
H7O C13O 1_555 1_555
Ni1R O3 1_555 1_555
Ni1R_2 O2B 1_555 1_555
Ni1S O3A 1_555 1_555
Ni1S_2 O2 1_555 1_555
Ni1T O2A 1_555 1_555
Ni1T_2 O3B 1_555 1_555
Ni1DA O2P 1_555 1_555
Ni1DA_2 O3Q 1_555 1_555
Ni1EA O3P 1_555 1_555
Ni1EA_2 O2O 1_555 1_555
Ni1FA O3O 1_555 1_555
Ni1FA_2 O2Q 1_555 1_555
O2R Ni1A 1_555 1_555
O2S Ni1B 1_555 1_555
O2T Ni1 1_555 1_555
O2AA Ni1A 1_555 1_555
O2BA Ni1 1_555 1_555
O2CA Ni1B 1_555 1_555
O3R Ni1 1_555 1_555
O3S Ni1A 1_555 1_555
O3T Ni1B 1_555 1_555
O3AA Ni1B 1_555 1_555
O3BA Ni1A 1_555 1_555
O3CA Ni1 1_555 1_555
C6 C7 1_555 1_555
C12 C13 1_555 1_555
C5Q C8Q 1_555 1_555
C6Q C7Q 1_555 1_555
C8Q C9Q 1_555 1_555
C12Q C13Q 1_555 1_555
C6A C7A 1_555 1_555
C5P C8P 1_555 1_555
C6P C7P 1_555 1_555
C8P C9P 1_555 1_555
C12P C13P 1_555 1_555
C6B C7B 1_555 1_555
C12B C13B 1_555 1_555
C5O C8O 1_555 1_555
C6O C7O 1_555 1_555
C8O C9O 1_555 1_555
C12O C13O 1_555 1_555

#END
