
#######################################################################
#
#                 Cambridge Crystallographic Data Centre
#                                CCDC 
#
#######################################################################
#
# If this CIF has been generated from an entry in the Cambridge 
# Structural Database, then it will include bibliographic, chemical, 
# crystal, experimental, refinement or atomic coordinate data resulting 
# from the CCDC's data processing and validation procedures.
#
#######################################################################

data_KEVCEV
_chemical_formula_moiety         '(C72 H43 N6 Ni3 O13)n'
_chemical_name_systematic        
"catena-(tris(\m~5~-4,4'-(4,4'-Bipyridine-2,6-diyl)dibenzoato)-(\m~3~-hydroxo)-di-nickel(ii)-nickel(iii) unknown solvate)"
_symmetry_cell_setting           rhombohedral
_symmetry_space_group_name_H-M   'R -3 c'
_symmetry_Int_Tables_number      167
_space_group_name_Hall           '-R 3 2"c'
loop_
_symmetry_equiv_pos_site_id
_symmetry_equiv_pos_as_xyz
1 x,y,z
2 -y,x-y,z
3 -x+y,-x,z
4 y,x,1/2-z
5 x-y,-y,1/2-z
6 -x,-x+y,1/2-z
7 2/3+x,1/3+y,1/3+z
8 2/3-y,1/3+x-y,1/3+z
9 2/3-x+y,1/3-x,1/3+z
10 2/3+y,1/3+x,5/6-z
11 2/3+x-y,1/3-y,5/6-z
12 2/3-x,1/3-x+y,5/6-z
13 1/3+x,2/3+y,2/3+z
14 1/3-y,2/3+x-y,2/3+z
15 1/3-x+y,2/3-x,2/3+z
16 1/3+y,2/3+x,1/6-z
17 1/3+x-y,2/3-y,1/6-z
18 1/3-x,2/3-x+y,1/6-z
19 -x,-y,-z
20 y,-x+y,-z
21 x-y,x,-z
22 -y,-x,1/2+z
23 -x+y,y,1/2+z
24 x,x-y,1/2+z
25 1/3-x,2/3-y,2/3-z
26 1/3+y,2/3-x+y,2/3-z
27 1/3+x-y,2/3+x,2/3-z
28 1/3-y,2/3-x,1/6+z
29 1/3-x+y,2/3+y,1/6+z
30 1/3+x,2/3+x-y,1/6+z
31 2/3-x,1/3-y,1/3-z
32 2/3+y,1/3-x+y,1/3-z
33 2/3+x-y,1/3+x,1/3-z
34 2/3-y,1/3-x,5/6+z
35 2/3-x+y,1/3+y,5/6+z
36 2/3+x,1/3+x-y,5/6+z
_cell_length_a                   29.360(4)
_cell_length_b                   29.360(4)
_cell_length_c                   20.776(3)
_cell_angle_alpha                90
_cell_angle_beta                 90
_cell_angle_gamma                120
_cell_volume                     15509.7
_exptl_crystal_colour            green
_exptl_crystal_description       plate
_cell_formula_units_Z            6
loop_
_atom_site_label
_atom_site_type_symbol
_atom_site_fract_x
_atom_site_fract_y
_atom_site_fract_z
Ni1 Ni 0.6667 0.40146(2) 0.0833
O1 O 0.6667 0.3333 0.0833
O2 O 0.43442(10) 0.71226(10) -0.00939(17)
O3 O 0.39426(10) 0.62519(10) -0.01802(17)
N1 N 0.6667 0.47226(15) 0.0833
N2 N 0.6667 0.71410(15) 0.0833
C1 C 0.43266(14) 0.66931(14) -0.0023(2)
C2 C 0.48178(15) 0.67027(15) 0.0195(3)
C3 C 0.52783(9) 0.71707(8) 0.03279(17)
H1 H 0.5284 0.7496 0.0290
C4 C 0.57306(9) 0.71665(8) 0.05155(17)
H2 H 0.6047 0.7488 0.0589
C5 C 0.57194(9) 0.66910(8) 0.05963(17)
C6 C 0.52559(9) 0.62198(8) 0.04895(17)
H3 H 0.5248 0.5895 0.0545
C7 C 0.48036(9) 0.62241(8) 0.03019(17)
H4 H 0.4484 0.5902 0.0246
C8 C 0.62160(16) 0.66785(16) 0.0734(3)
C9 C 0.62142(17) 0.62046(16) 0.0711(3)
H5 H 0.5898 0.5890 0.0609
C10 C 0.6667 0.61854(18) 0.0833
C11 C 0.6667 0.56840(17) 0.0833
C12 C 0.71231(17) 0.56644(17) 0.0833(3)
H6 H 0.7452 0.5982 0.0839
C13 C 0.71104(18) 0.51831(17) 0.0825(3)
H7 H 0.7435 0.5185 0.0813
O2Q O 0.89891(10) 0.94451(14) 0.17606(17)
O3Q O 0.93907(10) 0.89760(14) 0.18469(17)
C1Q C 0.90067(14) 0.90332(20) 0.1690(2)
C2Q C 0.85155(15) 0.85516(21) 0.1472(3)
C3Q C 0.80550(9) 0.85591(12) 0.13388(17)
H1Q H 0.8049 0.8879 0.1377
C4Q C 0.76027(9) 0.81026(12) 0.11512(17)
H2Q H 0.7286 0.8108 0.1078
C5Q C 0.76139(9) 0.76383(12) 0.10704(17)
C6Q C 0.80774(9) 0.76306(12) 0.11772(17)
H3Q H 0.8085 0.7314 0.1122
C7Q C 0.85297(9) 0.80872(12) 0.13648(17)
H4Q H 0.8849 0.8085 0.1421
C8Q C 0.71173(16) 0.71292(23) 0.0933(3)
C9Q C 0.71191(17) 0.66571(23) 0.0956(3)
H5Q H 0.7435 0.6659 0.1058
C12Q C 0.62102(17) 0.52080(24) 0.0834(3)
H6Q H 0.5881 0.5197 0.0828
C13Q C 0.62229(18) 0.47394(25) 0.0842(3)
H7Q H 0.5898 0.4417 0.0854
Ni1A Ni 0.59854(2) 0.26524(2) 0.0833
O2A O 0.28774(10) -0.27784(14) -0.00939(17)
O3A O 0.37481(10) -0.23093(14) -0.01802(17)
N1A N 0.52774(15) 0.19444(15) 0.0833
N2A N 0.28590(15) -0.04740(15) 0.0833
C1A C 0.33069(14) -0.23665(20) -0.0023(2)
C2A C 0.32973(15) -0.18849(21) 0.0195(3)
C3A C 0.28293(8) -0.18924(12) 0.03279(17)
H1A H 0.2504 -0.2212 0.0290
C4A C 0.28335(8) -0.14359(12) 0.05155(17)
H2A H 0.2512 -0.1441 0.0589
C5A C 0.33090(8) -0.09716(12) 0.05963(17)
C6A C 0.37802(8) -0.09639(12) 0.04895(17)
H3A H 0.4105 -0.0647 0.0545
C7A C 0.37759(8) -0.14205(12) 0.03019(17)
H4A H 0.4098 -0.1418 0.0246
C8A C 0.33215(16) -0.04625(23) 0.0734(3)
C9A C 0.37954(16) 0.00096(23) 0.0711(3)
H5A H 0.4110 0.0008 0.0609
C10A C 0.38146(18) 0.04816(18) 0.0833
C11A C 0.43160(17) 0.09830(17) 0.0833
C12A C 0.43356(17) 0.14587(24) 0.0833(3)
H6A H 0.4018 0.1470 0.0839
C13A C 0.48169(17) 0.19273(25) 0.0825(3)
H7A H 0.4815 0.2250 0.0813
O2P O 0.05549(14) -0.04559(10) 0.17606(17)
O3P O 0.10240(14) 0.04148(10) 0.18469(17)
C1P C 0.09668(20) -0.00264(14) 0.1690(2)
C2P C 0.14484(21) -0.00360(15) 0.1472(3)
C3P C 0.14409(12) -0.05040(8) 0.13388(17)
H1P H 0.1121 -0.0829 0.1377
C4P C 0.18974(12) -0.04998(8) 0.11512(17)
H2P H 0.1892 -0.0821 0.1078
C5P C 0.23617(12) -0.00243(8) 0.10704(17)
C6P C 0.23694(12) 0.04469(8) 0.11772(17)
H3P H 0.2686 0.0772 0.1122
C7P C 0.19128(12) 0.04426(8) 0.13648(17)
H4P H 0.1915 0.0765 0.1421
C8P C 0.28708(23) -0.00118(16) 0.0933(3)
C9P C 0.33429(23) 0.04621(16) 0.0956(3)
H5P H 0.3341 0.0777 0.1058
C12P C 0.47920(24) 0.10023(17) 0.0834(3)
H6P H 0.4803 0.0685 0.0828
C13P C 0.52606(25) 0.14836(17) 0.0842(3)
H7P H 0.5583 0.1482 0.0854
Ni1B Ni 0.73476(2) 0.3333 0.0833
O2B O 1.27784(14) 0.56558(10) -0.00939(17)
O3B O 1.23093(14) 0.60574(10) -0.01802(17)
N1B N 0.80556(15) 0.3333 0.0833
N2B N 1.04740(15) 0.3333 0.0833
C1B C 1.23665(20) 0.56734(14) -0.0023(2)
C2B C 1.18849(21) 0.51822(15) 0.0195(3)
C3B C 1.18924(12) 0.47217(9) 0.03279(17)
H1B H 1.2212 0.4716 0.0290
C4B C 1.14359(12) 0.42694(9) 0.05155(17)
H2B H 1.1441 0.3953 0.0589
C5B C 1.09716(12) 0.42806(9) 0.05963(17)
C6B C 1.09639(12) 0.47441(9) 0.04895(17)
H3B H 1.0647 0.4752 0.0545
C7B C 1.14205(12) 0.51964(9) 0.03019(17)
H4B H 1.1418 0.5516 0.0246
C8B C 1.04625(23) 0.37840(16) 0.0734(3)
C9B C 0.99904(23) 0.37858(17) 0.0711(3)
H5B H 0.9992 0.4102 0.0609
C10B C 0.95184(18) 0.3333 0.0833
C11B C 0.90170(17) 0.3333 0.0833
C12B C 0.85413(24) 0.28769(17) 0.0833(3)
H6B H 0.8530 0.2548 0.0839
C13B C 0.80727(25) 0.28896(18) 0.0825(3)
H7B H 0.7750 0.2565 0.0813
O2O O 1.04559(10) 0.10109(10) 0.17606(17)
O3O O 0.95852(10) 0.06093(10) 0.18469(17)
C1O C 1.00264(14) 0.09933(14) 0.1690(2)
C2O C 1.00360(15) 0.14845(15) 0.1472(3)
C3O C 1.05040(8) 0.19450(9) 0.13388(17)
H1O H 1.0829 0.1951 0.1377
C4O C 1.04998(8) 0.23973(9) 0.11512(17)
H2O H 1.0821 0.2714 0.1078
C5O C 1.00243(8) 0.23861(9) 0.10704(17)
C6O C 0.95531(8) 0.19226(9) 0.11772(17)
H3O H 0.9228 0.1915 0.1122
C7O C 0.95574(8) 0.14703(9) 0.13648(17)
H4O H 0.9235 0.1151 0.1421
C8O C 1.00118(16) 0.28827(16) 0.0933(3)
C9O C 0.95379(16) 0.28809(17) 0.0956(3)
H5O H 0.9223 0.2565 0.1058
C12O C 0.89977(17) 0.37898(17) 0.0834(3)
H6O H 0.9315 0.4119 0.0828
C13O C 0.85164(17) 0.37771(18) 0.0842(3)
H7O H 0.8518 0.4102 0.0854
Ni1R Ni 0.3333 0.59854(2) -0.0833
Ni1R_2 Ni 1.3333 0.59854(2) -0.0833
Ni1S Ni 0.40146(2) -0.26524(2) -0.0833
Ni1S_2 Ni 0.40146(2) 0.73476(2) -0.0833
Ni1T Ni 0.26524(2) -0.3333 -0.0833
Ni1T_2 Ni 1.26524(2) 0.6667 -0.0833
Ni1DA Ni -0.0000 -0.06813(2) 0.2500
Ni1DA_2 Ni 1.0000 0.93187(2) 0.2500
Ni1EA Ni 0.06813(2) 0.06809(2) 0.2500
Ni1EA_2 Ni 1.06813(2) 0.06809(2) 0.2500
Ni1FA Ni 0.93191(2) 0.0000 0.2500
Ni1FA_2 Ni 0.93191(2) 1.0000 0.2500
O2R O 0.56558(10) 0.28774(10) 0.00939(17)
O2S O 0.71226(10) 0.27784(14) 0.00939(17)
O2T O 0.72216(14) 0.43442(10) 0.00939(17)
O2AA O 0.62107(10) 0.23225(10) 0.15728(17)
O2BA O 0.61117(14) 0.37893(10) 0.15728(17)
O2CA O 0.76775(10) 0.38883(14) 0.15728(17)
O3R O 0.60574(10) 0.37481(10) 0.01802(17)
O3S O 0.62519(10) 0.23093(14) 0.01802(17)
O3T O 0.76907(14) 0.39426(10) 0.01802(17)
O3AA O 0.70814(10) 0.27241(10) 0.14865(17)
O3BA O 0.56426(14) 0.29186(10) 0.14865(17)
O3CA O 0.72759(10) 0.43574(14) 0.14865(17)
H8? H 0.6667 0.3333 0.0352
loop_
_geom_bond_atom_site_label_1
_geom_bond_atom_site_label_2
_geom_bond_site_symmetry_1
_geom_bond_site_symmetry_2
Ni1 O1 1_555 1_555
O1 Ni1A 1_555 1_555
O2 C1 1_555 1_555
O3 C1 1_555 1_555
N1 Ni1 1_555 1_555
N2 C8 1_555 1_555
C1 C2 1_555 1_555
C2 C3 1_555 1_555
C3 H1 1_555 1_555
C4 C3 1_555 1_555
H2 C4 1_555 1_555
C5 C4 1_555 1_555
C6 C5 1_555 1_555
H3 C6 1_555 1_555
C7 C2 1_555 1_555
H4 C7 1_555 1_555
C8 C5 1_555 1_555
C9 C8 1_555 1_555
H5 C9 1_555 1_555
C10 C9 1_555 1_555
C11 C10 1_555 1_555
C12 C11 1_555 1_555
H6 C12 1_555 1_555
C13 N1 1_555 1_555
H7 C13 1_555 1_555
O2Q C1Q 1_555 1_555
O3Q C1Q 1_555 1_555
C1Q C2Q 1_555 1_555
C2Q C3Q 1_555 1_555
C3Q H1Q 1_555 1_555
C4Q C3Q 1_555 1_555
H2Q C4Q 1_555 1_555
C5Q C4Q 1_555 1_555
C6Q C5Q 1_555 1_555
H3Q C6Q 1_555 1_555
C7Q C2Q 1_555 1_555
H4Q C7Q 1_555 1_555
C8Q N2 1_555 1_555
C9Q C10 1_555 1_555
H5Q C9Q 1_555 1_555
C12Q C11 1_555 1_555
H6Q C12Q 1_555 1_555
C13Q N1 1_555 1_555
H7Q C13Q 1_555 1_555
Ni1A N1A 1_555 1_555
O2A C1A 1_555 1_555
O3A C1A 1_555 1_555
N1A C13A 1_555 1_555
N2A C8A 1_555 1_555
C1A C2A 1_555 1_555
C2A C3A 1_555 1_555
C3A H1A 1_555 1_555
C4A C3A 1_555 1_555
H2A C4A 1_555 1_555
C5A C4A 1_555 1_555
C6A C5A 1_555 1_555
H3A C6A 1_555 1_555
C7A C2A 1_555 1_555
H4A C7A 1_555 1_555
C8A C5A 1_555 1_555
C9A C8A 1_555 1_555
H5A C9A 1_555 1_555
C10A C9A 1_555 1_555
C11A C10A 1_555 1_555
C12A C11A 1_555 1_555
H6A C12A 1_555 1_555
C13A C12A 1_555 1_555
H7A C13A 1_555 1_555
O2P C1P 1_555 1_555
O3P C1P 1_555 1_555
C1P C2P 1_555 1_555
C2P C3P 1_555 1_555
C3P H1P 1_555 1_555
C4P C3P 1_555 1_555
H2P C4P 1_555 1_555
C5P C4P 1_555 1_555
C6P C5P 1_555 1_555
H3P C6P 1_555 1_555
C7P C2P 1_555 1_555
H4P C7P 1_555 1_555
C8P N2A 1_555 1_555
C9P C10A 1_555 1_555
H5P C9P 1_555 1_555
C12P C11A 1_555 1_555
H6P C12P 1_555 1_555
C13P N1A 1_555 1_555
H7P C13P 1_555 1_555
Ni1B O1 1_555 1_555
O2B C1B 1_555 1_555
O3B C1B 1_555 1_555
N1B Ni1B 1_555 1_555
N2B C8B 1_555 1_555
C1B C2B 1_555 1_555
C2B C3B 1_555 1_555
C3B H1B 1_555 1_555
C4B C3B 1_555 1_555
H2B C4B 1_555 1_555
C5B C4B 1_555 1_555
C6B C5B 1_555 1_555
H3B C6B 1_555 1_555
C7B C2B 1_555 1_555
H4B C7B 1_555 1_555
C8B C5B 1_555 1_555
C9B C8B 1_555 1_555
H5B C9B 1_555 1_555
C10B C9B 1_555 1_555
C11B C10B 1_555 1_555
C12B C11B 1_555 1_555
H6B C12B 1_555 1_555
C13B N1B 1_555 1_555
H7B C13B 1_555 1_555
O2O C1O 1_555 1_555
O3O C1O 1_555 1_555
C1O C2O 1_555 1_555
C2O C3O 1_555 1_555
C3O H1O 1_555 1_555
C4O C3O 1_555 1_555
H2O C4O 1_555 1_555
C5O C4O 1_555 1_555
C6O C5O 1_555 1_555
H3O C6O 1_555 1_555
C7O C2O 1_555 1_555
H4O C7O 1_555 1_555
C8O N2B 1_555 1_555
C9O C10B 1_555 1_555
H5O C9O 1_555 1_555
C12O C11B 1_555 1_555
H6O C12O 1_555 1_555
C13O N1B 1_555 1_555
H7O C13O 1_555 1_555
Ni1R O3 1_555 1_555
Ni1R_2 O2B 1_555 1_555
Ni1S O3A 1_555 1_555
Ni1S_2 O2 1_555 1_555
Ni1T O2A 1_555 1_555
Ni1T_2 O3B 1_555 1_555
Ni1DA O2P 1_555 1_555
Ni1DA_2 O3Q 1_555 1_555
Ni1EA O3P 1_555 1_555
Ni1EA_2 O2O 1_555 1_555
Ni1FA O3O 1_555 1_555
Ni1FA_2 O2Q 1_555 1_555
O2R Ni1A 1_555 1_555
O2S Ni1B 1_555 1_555
O2T Ni1 1_555 1_555
O2AA Ni1A 1_555 1_555
O2BA Ni1 1_555 1_555
O2CA Ni1B 1_555 1_555
O3R Ni1 1_555 1_555
O3S Ni1A 1_555 1_555
O3T Ni1B 1_555 1_555
O3AA Ni1B 1_555 1_555
O3BA Ni1A 1_555 1_555
O3CA Ni1 1_555 1_555
C6 C7 1_555 1_555
C12 C13 1_555 1_555
C5Q C8Q 1_555 1_555
C6Q C7Q 1_555 1_555
C8Q C9Q 1_555 1_555
C12Q C13Q 1_555 1_555
C6A C7A 1_555 1_555
C5P C8P 1_555 1_555
C6P C7P 1_555 1_555
C8P C9P 1_555 1_555
C12P C13P 1_555 1_555
C6B C7B 1_555 1_555
C12B C13B 1_555 1_555
C5O C8O 1_555 1_555
C6O C7O 1_555 1_555
C8O C9O 1_555 1_555
C12O C13O 1_555 1_555

#END
