
#######################################################################
#
#                 Cambridge Crystallographic Data Centre
#                                CCDC 
#
#######################################################################
#
# If this CIF has been generated from an entry in the Cambridge 
# Structural Database, then it will include bibliographic, chemical, 
# crystal, experimental, refinement or atomic coordinate data resulting 
# from the CCDC's data processing and validation procedures.
#
#######################################################################

data_BUYDAC
_chemical_formula_moiety         '(C20 H16 N12 O8 Zn4)n'
_chemical_name_systematic        
'catena-[tetrakis(\m~3~-1,2,4-Triazolyl)-bis(\m~2~-trans,trans-1,3-butadiene-1,4-dicarboxylato)-tetra-zinc unknown solvate]'
_symmetry_cell_setting           orthorhombic
_symmetry_space_group_name_H-M   'P n a 21'
_symmetry_Int_Tables_number      33
_space_group_name_Hall           'P 2c -2n'
loop_
_symmetry_equiv_pos_site_id
_symmetry_equiv_pos_as_xyz
1 x,y,z
2 -x,-y,1/2+z
3 1/2-x,1/2+y,1/2+z
4 1/2+x,1/2-y,z
_cell_length_a                   27.0505(9)
_cell_length_b                   13.5009(4)
_cell_length_c                   13.5576(5)
_cell_angle_alpha                90
_cell_angle_beta                 90
_cell_angle_gamma                90
_cell_volume                     4951.32
_exptl_crystal_colour            colorless
_exptl_crystal_description       block
_cell_formula_units_Z            4
loop_
_atom_site_label
_atom_site_type_symbol
_atom_site_fract_x
_atom_site_fract_y
_atom_site_fract_z
Zn1 Zn 0.79815(4) 0.99128(7) 0.55757(8)
Zn2 Zn 0.79610(4) 1.10036(8) 1.12909(8)
Zn3 Zn 0.80595(4) 0.67419(7) 1.01595(8)
Zn4 Zn 0.69215(3) 1.05771(7) 0.94490(8)
C1 C 1.1126(6) 0.9864(17) 1.0713(18)
C2 C 0.9368(6) 1.1024(15) 1.076(2)
H1 H 0.9421 1.1539 1.0317
C3 C 1.0579(5) 0.9847(17) 1.097(2)
H2 H 1.0484 0.9350 1.1409
C4 C 0.4549(4) 0.8513(10) 1.0297(14)
H3 H 0.4767 0.8110 1.0644
C5 C 0.8908(7) 1.0896(12) 1.1203(15)
C6 C 0.7475(3) 1.0169(7) 0.7526(8)
H4 H 0.7684 0.9711 0.7822
C7 C 0.4011(4) 0.8221(9) 1.0364(11)
C8 C 0.7463(4) 0.8613(7) 0.9724(8)
H5 H 0.7268 0.8298 0.9253
C9 C 0.5959(4) 1.0573(12) 0.9393(15)
C10 C 0.8010(4) 0.8885(8) 1.0784(9)
H6 H 0.8269 0.8781 1.1223
C11 C 0.6908(3) 1.2798(8) 0.9980(7)
H7 H 0.6638 1.2917 0.9573
C12 C 0.9744(5) 1.0369(17) 1.0995(17)
H8 H 0.9652 0.9845 1.1401
C13 C 0.7479(4) 1.2959(7) 1.0932(9)
H9 H 0.7711 1.3251 1.1345
C14 C 0.4738(5) 0.9197(12) 0.9856(14)
H10 H 0.4526 0.9557 0.9452
C15 C 0.5410(4) 1.0337(10) 0.9358(19)
H11 H 0.5192 1.0729 0.8998
C16 C 1.0257(8) 1.0378(19) 1.070(2)
H12 H 1.0346 1.0859 1.0245
C17 C 0.5249(5) 0.9536(14) 0.9868(17)
H13 H 0.5476 0.9186 1.0246
C18 C 0.6920(3) 1.1257(6) 0.7328(8)
H14 H 0.6664 1.1698 0.7450
C19 C 0.7585(4) 0.6398(7) 0.8183(8)
H15 H 0.7808 0.6814 0.7865
C20 C 0.7005(3) 0.5426(8) 0.8401(10)
H16 H 0.6740 0.4998 0.8297
N1 N 0.7210(3) 0.5928(6) 0.7720(6)
N2 N 0.7808(3) 0.8179(5) 1.0199(7)
N3 N 0.7113(3) 1.0673(6) 0.8031(6)
N4 N 0.7496(3) 1.0397(5) 0.6592(6)
N5 N 0.7411(3) 0.9541(5) 0.9965(6)
N6 N 0.7599(3) 0.6199(5) 0.9136(6)
N7 N 0.7110(3) 1.1882(5) 1.0127(7)
N8 N 0.7128(3) 1.1154(6) 0.6435(7)
N9 N 0.7213(3) 0.5582(6) 0.9287(6)
N10 N 0.7133(2) 1.3473(4) 1.0468(6)
N11 N 0.7465(3) 1.1982(6) 1.0757(7)
N12 N 0.7791(3) 0.9726(6) 1.0645(8)
O1 O 1.1420(4) 0.9532(10) 1.1182(12)
O2 O 1.1207(5) 1.0364(12) 0.9924(14)
O3 O 0.3734(3) 0.8627(8) 0.9763(10)
O4 O 0.6274(3) 0.9976(6) 0.9747(8)
O5 O 0.6097(3) 1.1366(8) 0.8912(10)
O6 O 0.8766(3) 1.0303(11) 1.1726(9)
O7 O 0.8576(4) 1.1522(8) 1.0787(11)
O8 O 0.3852(3) 0.7681(7) 1.0933(10)
Zn1A Zn 1.20185(4) 1.00872(7) 1.05757(8)
Zn1B Zn 0.70185(4) 0.49128(7) 1.05757(8)
Zn1B_2 Zn 0.70185(4) 1.49128(7) 1.05757(8)
Zn2B Zn 0.70390(4) 0.60036(8) 0.62909(8)
Zn3B Zn 0.69405(4) 1.17419(7) 0.51595(8)
Zn3C Zn 0.30595(4) 0.82581(7) 1.01595(8)
N1B N 0.7790(3) 1.0928(6) 1.2720(6)
N8B N 0.7872(3) 0.6154(6) 1.1435(7)
N9B N 0.7787(3) 1.0582(6) 0.4287(6)
N10B N 0.7867(2) 0.8473(4) 0.5468(6)
O1A O 0.8580(4) 1.0468(10) 0.6182(12)
O2A O 0.8793(5) 0.9636(12) 0.4924(14)
O3C O 0.8734(3) 0.6373(8) 0.9763(10)
O8C O 0.8852(3) 0.7319(7) 1.0933(10)
loop_
_geom_bond_atom_site_label_1
_geom_bond_atom_site_label_2
_geom_bond_site_symmetry_1
_geom_bond_site_symmetry_2
Zn1 N4 1_555 1_555
Zn2 N11 1_555 1_555
Zn3 N2 1_555 1_555
Zn4 N3 1_555 1_555
C1 C3 1_555 1_555
C2 H1 1_555 1_555
C3 H2 1_555 1_555
C4 H3 1_555 1_555
C5 C2 1_555 1_555
C6 H4 1_555 1_555
C7 C4 1_555 1_555
C8 H5 1_555 1_555
C9 C15 1_555 1_555
C10 H6 1_555 1_555
C11 H7 1_555 1_555
C12 C2 1_555 1_555
H8 C12 1_555 1_555
C13 H9 1_555 1_555
C14 C4 1_555 1_555
H10 C14 1_555 1_555
C15 H11 1_555 1_555
C16 C3 1_555 1_555
H12 C16 1_555 1_555
C17 C14 1_555 1_555
H13 C17 1_555 1_555
C18 H14 1_555 1_555
C19 H15 1_555 1_555
C20 H16 1_555 1_555
N1 C19 1_555 1_555
N2 C8 1_555 1_555
N3 C6 1_555 1_555
N4 C6 1_555 1_555
N5 Zn4 1_555 1_555
N6 Zn3 1_555 1_555
N7 Zn4 1_555 1_555
N8 C18 1_555 1_555
N9 C20 1_555 1_555
N10 C11 1_555 1_555
N11 C13 1_555 1_555
N12 Zn2 1_555 1_555
O1 C1 1_555 1_555
O2 C1 1_555 1_555
O3 C7 1_555 1_555
O4 Zn4 1_555 1_555
O5 Zn4 1_555 1_555
O6 Zn2 1_555 1_555
O7 Zn2 1_555 1_555
O8 C7 1_555 1_555
Zn1A O1 1_555 1_555
Zn1B N9 1_555 1_555
Zn1B_2 N10 1_555 1_555
Zn2B N1 1_555 1_555
Zn3B N8 1_555 1_555
Zn3C O3 1_555 1_555
N1B Zn2 1_555 1_555
N8B Zn3 1_555 1_555
N9B Zn1 1_555 1_555
N10B Zn1 1_555 1_555
O1A Zn1 1_555 1_555
O2A Zn1 1_555 1_555
O3C Zn3 1_555 1_555
O8C Zn3 1_555 1_555
C5 O6 1_555 1_555
C5 O7 1_555 1_555
C8 N5 1_555 1_555
C9 O4 1_555 1_555
C9 O5 1_555 1_555
C10 N2 1_555 1_555
C10 N12 1_555 1_555
C11 N7 1_555 1_555
C12 C16 1_555 1_555
C13 N10 1_555 1_555
C15 C17 1_555 1_555
C18 N3 1_555 1_555
C19 N6 1_555 1_555
C20 N1 1_555 1_555
N4 N8 1_555 1_555
N5 N12 1_555 1_555
N6 N9 1_555 1_555
N7 N11 1_555 1_555
O2 Zn1A 1_555 1_555
O8 Zn3C 1_555 1_555

#END
