
#######################################################################
#
#                 Cambridge Crystallographic Data Centre
#                                CCDC 
#
#######################################################################
#
# If this CIF has been generated from an entry in the Cambridge 
# Structural Database, then it will include bibliographic, chemical, 
# crystal, experimental, refinement or atomic coordinate data resulting 
# from the CCDC's data processing and validation procedures.
#
#######################################################################

data_OZOGAN
_chemical_formula_moiety         '(C30 H30 N3 O6 Zn2 1+)n,Cl1 1-'
_chemical_name_systematic        
"catena-[(\m-4,4',4''-(1,4,7-Triazonane-1,4,7-triyltris(methylene))tribenzoato)-di-zinc chloride]"
_symmetry_cell_setting           cubic
_symmetry_space_group_name_H-M   'I -4 3 d'
_symmetry_Int_Tables_number      220
_space_group_name_Hall           'I -4bd 2c 3'
loop_
_symmetry_equiv_pos_site_id
_symmetry_equiv_pos_as_xyz
1 x,y,z
2 -x,1/2-y,z
3 x,-y,1/2-z
4 1/2-x,y,-z
5 z,x,y
6 y,z,x
7 -z,1/2-x,y
8 1/2-y,z,-x
9 z,-x,1/2-y
10 -y,1/2-z,x
11 1/2-z,x,-y
12 y,-z,1/2-x
13 1/4+y,1/4+x,1/4+z
14 3/4-y,1/4-x,1/4+z
15 1/4-y,1/4+x,3/4-z
16 1/4+y,3/4-x,1/4-z
17 1/4+x,1/4+z,1/4+y
18 1/4+z,1/4+y,1/4+x
19 3/4-x,1/4-z,1/4+y
20 1/4+z,3/4-y,1/4-x
21 1/4-x,1/4+z,3/4-y
22 3/4-z,1/4-y,1/4+x
23 1/4+x,3/4-z,1/4-y
24 1/4-z,1/4+y,3/4-x
25 1/2+x,1/2+y,1/2+z
26 1/2-x,-y,1/2+z
27 1/2+x,1/2-y,-z
28 -x,1/2+y,1/2-z
29 1/2+z,1/2+x,1/2+y
30 1/2+y,1/2+z,1/2+x
31 1/2-z,-x,1/2+y
32 -y,1/2+z,1/2-x
33 1/2+z,1/2-x,-y
34 1/2-y,-z,1/2+x
35 -z,1/2+x,1/2-y
36 1/2+y,1/2-z,-x
37 3/4+y,3/4+x,3/4+z
38 1/4-y,3/4-x,3/4+z
39 3/4-y,3/4+x,1/4-z
40 3/4+y,1/4-x,3/4-z
41 3/4+x,3/4+z,3/4+y
42 3/4+z,3/4+y,3/4+x
43 1/4-x,3/4-z,3/4+y
44 3/4+z,1/4-y,3/4-x
45 3/4-x,3/4+z,1/4-y
46 1/4-z,3/4-y,3/4+x
47 3/4+x,1/4-z,3/4-y
48 3/4-z,3/4+y,1/4-x
_cell_length_a                   25.8200
_cell_length_b                   25.8200
_cell_length_c                   25.8200
_cell_angle_alpha                90
_cell_angle_beta                 90
_cell_angle_gamma                90
_cell_volume                     17213.5
_cell_formula_units_Z            16
loop_
_atom_site_label
_atom_site_type_symbol
_atom_site_fract_x
_atom_site_fract_y
_atom_site_fract_z
_atom_site_U_iso_or_equiv
_atom_site_thermal_displace_type
C1 C 0.3479 0.7846 0.3018 0.0000 Uiso
C2 C 0.3641 0.8118 0.3510 0.0000 Uiso
C3 C 0.3705 0.7883 0.3961 0.0000 Uiso
C4 C 0.3826 0.8113 0.4411 0.0000 Uiso
C5 C 0.3914 0.8647 0.4427 0.0000 Uiso
C6 C 0.3851 0.8916 0.3961 0.0000 Uiso
C7 C 0.3703 0.8667 0.3520 0.0000 Uiso
C8 C 0.4065 0.8949 0.4907 0.0000 Uiso
C9 C 0.2663 0.7516 0.3389 0.0000 Uiso
C10 C 0.2679 0.8300 0.2856 0.0000 Uiso
H1 H 0.3661 0.7525 0.3966 0.0000 Uiso
H2 H 0.3851 0.7918 0.4712 0.0000 Uiso
H3 H 0.3910 0.9271 0.3952 0.0000 Uiso
H4 H 0.3640 0.8858 0.3221 0.0000 Uiso
H5 H 0.2944 0.8557 0.2925 0.0000 Uiso
H6 H 0.2398 0.8364 0.3097 0.0000 Uiso
H7 H 0.3630 0.7502 0.3011 0.0000 Uiso
H8 H 0.3611 0.8036 0.2722 0.0000 Uiso
H9 H 0.2656 0.7738 0.3692 0.0000 Uiso
H10 H 0.2887 0.7225 0.3468 0.0000 Uiso
N1 N 0.2892 0.7801 0.2973 0.0000 Uiso
O1 O 0.4003 0.8676 0.5302 0.0000 Uiso
O2 O 0.4198 0.9384 0.4887 0.0000 Uiso
Zn1 Zn 0.2692 0.7308 0.2308 0.0000 Uiso
Zn2 Zn 0.4024 0.9024 0.5976 0.0000 Uiso
C1DA C 0.1982 0.6521 0.2846 0.0000 Uiso
C2DA C 0.1490 0.6359 0.3118 0.0000 Uiso
C3DA C 0.1039 0.6295 0.2883 0.0000 Uiso
C4DA C 0.0589 0.6174 0.3113 0.0000 Uiso
C5DA C 0.0573 0.6086 0.3647 0.0000 Uiso
C6DA C 0.1039 0.6149 0.3916 0.0000 Uiso
C7DA C 0.1480 0.6297 0.3667 0.0000 Uiso
C8DA C 0.0093 0.5935 0.3949 0.0000 Uiso
C9DA C 0.1611 0.7337 0.2516 0.0000 Uiso
C10DA C 0.2144 0.7321 0.3300 0.0000 Uiso
H1DA H 0.1034 0.6339 0.2525 0.0000 Uiso
H2DA H 0.0288 0.6149 0.2918 0.0000 Uiso
H3DA H 0.1048 0.6090 0.4271 0.0000 Uiso
H4DA H 0.1779 0.6360 0.3858 0.0000 Uiso
H5DA H 0.2075 0.7056 0.3557 0.0000 Uiso
H6DA H 0.1903 0.7602 0.3364 0.0000 Uiso
H7DA H 0.1989 0.6370 0.2502 0.0000 Uiso
H8DA H 0.2278 0.6389 0.3036 0.0000 Uiso
H9DA H 0.1308 0.7344 0.2738 0.0000 Uiso
H10DA H 0.1532 0.7113 0.2225 0.0000 Uiso
N1DA N 0.2027 0.7108 0.2801 0.0000 Uiso
O1DA O -0.0302 0.5997 0.3676 0.0000 Uiso
O2DA O 0.0113 0.5802 0.4384 0.0000 Uiso
C1EA C 0.2154 0.8018 0.1521 0.0000 Uiso
C2EA C 0.1882 0.8510 0.1359 0.0000 Uiso
C3EA C 0.2117 0.8961 0.1295 0.0000 Uiso
C4EA C 0.1887 0.9411 0.1174 0.0000 Uiso
C5EA C 0.1353 0.9427 0.1086 0.0000 Uiso
C6EA C 0.1084 0.8961 0.1149 0.0000 Uiso
C7EA C 0.1333 0.8520 0.1297 0.0000 Uiso
C8EA C 0.1051 0.9907 0.0935 0.0000 Uiso
C9EA C 0.2484 0.8389 0.2337 0.0000 Uiso
C10EA C 0.1700 0.7856 0.2321 0.0000 Uiso
H1EA H 0.2475 0.8966 0.1339 0.0000 Uiso
H2EA H 0.2082 0.9712 0.1149 0.0000 Uiso
H3EA H 0.0729 0.8952 0.1090 0.0000 Uiso
H4EA H 0.1142 0.8221 0.1360 0.0000 Uiso
H5EA H 0.1443 0.7925 0.2056 0.0000 Uiso
H6EA H 0.1636 0.8097 0.2602 0.0000 Uiso
H7EA H 0.2498 0.8011 0.1370 0.0000 Uiso
H8EA H 0.1964 0.7722 0.1389 0.0000 Uiso
H9EA H 0.2262 0.8692 0.2344 0.0000 Uiso
H10EA H 0.2775 0.8468 0.2113 0.0000 Uiso
N1EA N 0.2199 0.7973 0.2108 0.0000 Uiso
O1EA O 0.1324 1.0302 0.0997 0.0000 Uiso
O2EA O 0.0616 0.9887 0.0802 0.0000 Uiso
O1HA O 0.4698 0.9003 0.6324 0.0000 Uiso
O1IA O 0.3676 0.9698 0.5997 0.0000 Uiso
O2N O 0.3116 0.6698 0.2613 0.0000 Uiso
O2R O 0.3302 0.7613 0.1884 0.0000 Uiso
O2OA O 0.2387 0.6884 0.1698 0.0000 Uiso
Zn1L Zn -0.0192 0.5192 0.4808 0.0000 Uiso
Zn1Q Zn 0.4808 0.9808 0.5192 0.0000 Uiso
Zn1LA Zn 0.0192 1.0192 0.0192 0.0000 Uiso
Zn2E Zn -0.0976 0.5976 0.4024 0.0000 Uiso
Zn2Y Zn 0.0976 1.0976 0.0976 0.0000 Uiso
loop_
_geom_bond_atom_site_label_1
_geom_bond_atom_site_label_2
_geom_bond_site_symmetry_1
_geom_bond_site_symmetry_2
C1 C2 1_555 1_555
C2 C3 1_555 1_555
C3 C4 1_555 1_555
C4 C5 1_555 1_555
C5 C6 1_555 1_555
C6 C7 1_555 1_555
C7 C2 1_555 1_555
C8 C5 1_555 1_555
C9 H9 1_555 1_555
C10 H5 1_555 1_555
H1 C3 1_555 1_555
H2 C4 1_555 1_555
H3 C6 1_555 1_555
H4 C7 1_555 1_555
H6 C10 1_555 1_555
H7 C1 1_555 1_555
H8 C1 1_555 1_555
H10 C9 1_555 1_555
N1 C1 1_555 1_555
O1 C8 1_555 1_555
O2 C8 1_555 1_555
Zn1 N1 1_555 1_555
Zn2 O1 1_555 1_555
C1DA C2DA 1_555 1_555
C2DA C3DA 1_555 1_555
C3DA C4DA 1_555 1_555
C4DA C5DA 1_555 1_555
C5DA C6DA 1_555 1_555
C6DA C7DA 1_555 1_555
C7DA C2DA 1_555 1_555
C8DA C5DA 1_555 1_555
C9DA H9DA 1_555 1_555
C10DA C9 1_555 1_555
H1DA C3DA 1_555 1_555
H2DA C4DA 1_555 1_555
H3DA C6DA 1_555 1_555
H4DA C7DA 1_555 1_555
H5DA C10DA 1_555 1_555
H6DA C10DA 1_555 1_555
H7DA C1DA 1_555 1_555
H8DA C1DA 1_555 1_555
H10DA C9DA 1_555 1_555
N1DA Zn1 1_555 1_555
O1DA C8DA 1_555 1_555
O2DA C8DA 1_555 1_555
C1EA C2EA 1_555 1_555
C2EA C3EA 1_555 1_555
C3EA C4EA 1_555 1_555
C4EA C5EA 1_555 1_555
C5EA C6EA 1_555 1_555
C6EA C7EA 1_555 1_555
C7EA C2EA 1_555 1_555
C8EA C5EA 1_555 1_555
C9EA C10 1_555 1_555
C10EA C9DA 1_555 1_555
H1EA C3EA 1_555 1_555
H2EA C4EA 1_555 1_555
H3EA C6EA 1_555 1_555
H4EA C7EA 1_555 1_555
H5EA C10EA 1_555 1_555
H6EA C10EA 1_555 1_555
H7EA C1EA 1_555 1_555
H8EA C1EA 1_555 1_555
H9EA C9EA 1_555 1_555
H10EA C9EA 1_555 1_555
N1EA Zn1 1_555 1_555
O1EA C8EA 1_555 1_555
O2EA C8EA 1_555 1_555
O1HA Zn2 1_555 1_555
O1IA Zn2 1_555 1_555
O2N Zn1 1_555 1_555
O2R Zn1 1_555 1_555
O2OA Zn1 1_555 1_555
Zn1L O2DA 1_555 1_555
Zn1Q O2 1_555 1_555
Zn1LA O2EA 1_555 1_555
Zn2E O1DA 1_555 1_555
Zn2Y O1EA 1_555 1_555
C9 N1 1_555 1_555
C10 N1 1_555 1_555
C1DA N1DA 1_555 1_555
C9DA N1DA 1_555 1_555
C10DA N1DA 1_555 1_555
C1EA N1EA 1_555 1_555
C9EA N1EA 1_555 1_555
C10EA N1EA 1_555 1_555

#END
