
#######################################################################
#
#                 Cambridge Crystallographic Data Centre
#                                CCDC 
#
#######################################################################
#
# If this CIF has been generated from an entry in the Cambridge 
# Structural Database, then it will include bibliographic, chemical, 
# crystal, experimental, refinement or atomic coordinate data resulting 
# from the CCDC's data processing and validation procedures.
#
#######################################################################

data_PUGYUN
_chemical_formula_moiety         '(C46 H32 F4 N8 Ni1)n,2n(C3 H7 N1 O1)'
_chemical_name_systematic        
'catena-[(\m~3~-5,15-bis(Pyridin-4-yl)-10,20-bis(3-dimethylamino-4,5-difluorophenyl)porphyrinato)-nickel(ii) N,N-dimethylformamide solvate]'
_symmetry_cell_setting           monoclinic
_symmetry_space_group_name_H-M   'P 21/c'
_symmetry_Int_Tables_number      14
_space_group_name_Hall           '-P 2ybc'
loop_
_symmetry_equiv_pos_site_id
_symmetry_equiv_pos_as_xyz
1 x,y,z
2 -x,1/2+y,1/2-z
3 -x,-y,-z
4 x,1/2-y,1/2+z
_cell_length_a                   13.1562(15)
_cell_length_b                   14.1101(17)
_cell_length_c                   14.0702(16)
_cell_angle_alpha                90
_cell_angle_beta                 114.826(2)
_cell_angle_gamma                90
_cell_volume                     2370.55
_cell_formula_units_Z            2
loop_
_atom_site_label
_atom_site_type_symbol
_atom_site_fract_x
_atom_site_fract_y
_atom_site_fract_z
Ni1 Ni 0.0000 0.0000 0.0000
C1 C 0.27950(16) 0.05723(15) 0.12918(15)
C2 C 0.21598(16) 0.10161(14) 0.03365(15)
C3 C 0.26002(19) 0.17356(17) -0.01207(18)
H1 H 0.3336 0.1949 0.0143
C4 C 0.17429(18) 0.20375(17) -0.09998(17)
H2 H 0.1775 0.2500 -0.1457
C5 C 0.07653(16) 0.15090(13) -0.10998(14)
N1 N 0.10349(12) 0.08796(11) -0.02735(11)
C6 C -0.02957(16) 0.16185(13) -0.19145(14)
C7 C -0.12347(15) 0.10950(14) -0.20311(14)
C8 C -0.23200(18) 0.12000(17) -0.28941(17)
H3 H -0.2506 0.1617 -0.3454
C9 C -0.30185(18) 0.05779(18) -0.27362(17)
H4 H -0.3771 0.0480 -0.3169
C10 C -0.23587(17) 0.00945(14) -0.17564(15)
N2 N -0.12676(12) 0.04164(11) -0.13343(11)
C11 C 0.40273(18) 0.08310(16) 0.18340(17)
C12 C 0.47562(19) 0.0577(2) 0.1382(2)
H5 H 0.4501 0.0227 0.0766
C13 C 0.5853(2) 0.0857(2) 0.1869(2)
C14 C 0.6253(2) 0.13622(19) 0.2783(2)
C15 C 0.55674(19) 0.16342(17) 0.3262(2)
C16 C 0.44317(18) 0.13470(17) 0.27572(19)
H6 H 0.3944 0.1510 0.3054
F1 F 0.73725(12) 0.15574(15) 0.32570(17)
F2 F 0.65850(12) 0.05991(17) 0.14587(14)
C17 C 0.5260(3) 0.2225(3) 0.4723(2)
H7 H 0.4639 0.2622 0.4307
H8 H 0.5658 0.2507 0.5400
H9 H 0.4987 0.1612 0.4802
C18 C 0.6624(3) 0.3003(3) 0.4250(3)
H10 H 0.7174 0.2871 0.3986
H11 H 0.6991 0.3224 0.4959
H12 H 0.6118 0.3481 0.3825
N3 N 0.59907(18) 0.21271(18) 0.42186(19)
C19 C -0.04041(16) 0.23762(14) -0.27103(14)
C20 C -0.03696(19) 0.21690(16) -0.36496(16)
H13 H -0.0342 0.1543 -0.3843
C21 C -0.0376(2) 0.29050(16) -0.43072(16)
H14 H -0.0360 0.2749 -0.4943
C22 C -0.05014(19) 0.40104(15) -0.32039(16)
H15 H -0.0576 0.4641 -0.3052
C23 C -0.04996(19) 0.33245(16) -0.25002(16)
H16 H -0.0562 0.3498 -0.1889
N4 N -0.04019(14) 0.38155(12) -0.40880(12)
C1B C -0.27950(16) -0.05723(15) -0.12918(15)
C2B C -0.21598(16) -0.10161(14) -0.03365(15)
C3B C -0.26002(19) -0.17356(17) 0.01207(18)
H1B H -0.3336 -0.1949 -0.0143
C4B C -0.17429(18) -0.20375(17) 0.09998(17)
H2B H -0.1775 -0.2500 0.1457
C5B C -0.07653(16) -0.15090(13) 0.10998(14)
N1B N -0.10349(12) -0.08796(11) 0.02735(11)
C6B C 0.02957(16) -0.16185(13) 0.19145(14)
C7B C 0.12347(15) -0.10950(14) 0.20311(14)
C8B C 0.23200(18) -0.12000(17) 0.28941(17)
H3B H 0.2506 -0.1617 0.3454
C9B C 0.30185(18) -0.05779(18) 0.27362(17)
H4B H 0.3771 -0.0480 0.3169
C10B C 0.23587(17) -0.00945(14) 0.17564(15)
N2B N 0.12676(12) -0.04164(11) 0.13343(11)
C11B C -0.40273(18) -0.08310(16) -0.18340(17)
C12B C -0.47562(19) -0.0577(2) -0.1382(2)
H5B H -0.4501 -0.0227 -0.0766
C13B C -0.5853(2) -0.0857(2) -0.1869(2)
C14B C -0.6253(2) -0.13622(19) -0.2783(2)
C15B C -0.55674(19) -0.16342(17) -0.3262(2)
C16B C -0.44317(18) -0.13470(17) -0.27572(19)
H6B H -0.3944 -0.1510 -0.3054
F1B F -0.73725(12) -0.15574(15) -0.32570(17)
F2B F -0.65850(12) -0.05991(17) -0.14587(14)
C17B C -0.5260(3) -0.2225(3) -0.4723(2)
H7B H -0.4639 -0.2622 -0.4307
H8B H -0.5658 -0.2507 -0.5400
H9B H -0.4987 -0.1612 -0.4802
C18B C -0.6624(3) -0.3003(3) -0.4250(3)
H10B H -0.7174 -0.2871 -0.3986
H11B H -0.6991 -0.3224 -0.4959
H12B H -0.6118 -0.3481 -0.3825
N3B N -0.59907(18) -0.21271(18) -0.42186(19)
C19B C 0.04041(16) -0.23762(14) 0.27103(14)
C20B C 0.03696(19) -0.21690(16) 0.36496(16)
H13B H 0.0342 -0.1543 0.3843
C21B C 0.0376(2) -0.29050(16) 0.43072(16)
H14B H 0.0360 -0.2749 0.4943
C22B C 0.05014(19) -0.40104(15) 0.32039(16)
H15B H 0.0576 -0.4641 0.3052
C23B C 0.04996(19) -0.33245(16) 0.25002(16)
H16B H 0.0562 -0.3498 0.1889
N4B N 0.04019(14) -0.38155(12) 0.40880(12)
Ni1A Ni 0.0000 -0.5000 0.5000
Ni1A_2 Ni 0.0000 0.5000 -0.5000
N4A N 0.04019(14) -0.11845(12) -0.09120(12)
N4C N -0.04019(14) 0.11845(12) 0.09120(12)
O1 O 0.5999(5) 0.9387(5) 0.4314(6)
C24 C 0.7141(7) 0.9613(8) 0.4855(6)
H17 H 0.7550 0.9911 0.5492
C25 C 0.7174(9) 0.8724(6) 0.3298(5)
H18 H 0.7561 0.8130 0.3495
H19 H 0.7396 0.9044 0.2813
H20 H 0.6381 0.8613 0.2974
C26 C 0.8619(6) 0.9657(8) 0.4716(8)
H21 H 0.9064 0.9228 0.5263
H22 H 0.8584 1.0260 0.5015
H23 H 0.8954 0.9732 0.4231
N5 N 0.7426(3) 0.9253(2) 0.4136(3)
loop_
_geom_bond_atom_site_label_1
_geom_bond_atom_site_label_2
_geom_bond_site_symmetry_1
_geom_bond_site_symmetry_2
Ni1 N1 1_555 1_555
C1 C2 1_555 1_555
C2 C3 1_555 1_555
C3 H1 1_555 1_555
C4 C3 1_555 1_555
H2 C4 1_555 1_555
C5 C4 1_555 1_555
N1 C2 1_555 1_555
C6 C5 1_555 1_555
C7 C6 1_555 1_555
C8 C7 1_555 1_555
H3 C8 1_555 1_555
C9 C8 1_555 1_555
H4 C9 1_555 1_555
C10 C9 1_555 1_555
N2 Ni1 1_555 1_555
C11 C1 1_555 1_555
C12 C11 1_555 1_555
H5 C12 1_555 1_555
C13 C12 1_555 1_555
C14 C13 1_555 1_555
C15 C14 1_555 1_555
C16 C11 1_555 1_555
H6 C16 1_555 1_555
F1 C14 1_555 1_555
F2 C13 1_555 1_555
C17 H7 1_555 1_555
H8 C17 1_555 1_555
H9 C17 1_555 1_555
C18 H10 1_555 1_555
H11 C18 1_555 1_555
H12 C18 1_555 1_555
N3 C15 1_555 1_555
C19 C6 1_555 1_555
C20 C19 1_555 1_555
H13 C20 1_555 1_555
C21 C20 1_555 1_555
H14 C21 1_555 1_555
C22 H15 1_555 1_555
C23 C19 1_555 1_555
H16 C23 1_555 1_555
N4 C21 1_555 1_555
O1 C24 1_555 1_555
C24 H17 1_555 1_555
C25 H18 1_555 1_555
H19 C25 1_555 1_555
H20 C25 1_555 1_555
C26 H21 1_555 1_555
H22 C26 1_555 1_555
H23 C26 1_555 1_555
N5 C24 1_555 1_555
C1B C10 1_555 1_555
C2B C1B 1_555 1_555
C3B C2B 1_555 1_555
H1B C3B 1_555 1_555
C4B C3B 1_555 1_555
H2B C4B 1_555 1_555
C5B C4B 1_555 1_555
N1B Ni1 1_555 1_555
C6B C5B 1_555 1_555
C7B C6B 1_555 1_555
C8B C7B 1_555 1_555
H3B C8B 1_555 1_555
C9B C8B 1_555 1_555
H4B C9B 1_555 1_555
C10B C1 1_555 1_555
N2B Ni1 1_555 1_555
C11B C1B 1_555 1_555
C12B C11B 1_555 1_555
H5B C12B 1_555 1_555
C13B C12B 1_555 1_555
C14B C13B 1_555 1_555
C15B C14B 1_555 1_555
C16B C11B 1_555 1_555
H6B C16B 1_555 1_555
F1B C14B 1_555 1_555
F2B C13B 1_555 1_555
C17B H7B 1_555 1_555
H8B C17B 1_555 1_555
H9B C17B 1_555 1_555
C18B H10B 1_555 1_555
H11B C18B 1_555 1_555
H12B C18B 1_555 1_555
N3B C15B 1_555 1_555
C19B C6B 1_555 1_555
C20B C19B 1_555 1_555
H13B C20B 1_555 1_555
C21B C20B 1_555 1_555
H14B C21B 1_555 1_555
C22B H15B 1_555 1_555
C23B C19B 1_555 1_555
H16B C23B 1_555 1_555
N4B C21B 1_555 1_555
Ni1A N4B 1_555 1_555
Ni1A_2 N4 1_555 1_555
N4A Ni1 1_555 1_555
N4C Ni1 1_555 1_555
C5 N1 1_555 1_555
C7 N2 1_555 1_555
C10 N2 1_555 1_555
C15 C16 1_555 1_555
C17 N3 1_555 1_555
C18 N3 1_555 1_555
C22 C23 1_555 1_555
C22 N4 1_555 1_555
C25 N5 1_555 1_555
C26 N5 1_555 1_555
C2B N1B 1_555 1_555
C5B N1B 1_555 1_555
C7B N2B 1_555 1_555
C9B C10B 1_555 1_555
C10B N2B 1_555 1_555
C15B C16B 1_555 1_555
C17B N3B 1_555 1_555
C18B N3B 1_555 1_555
C22B C23B 1_555 1_555
C22B N4B 1_555 1_555

#END
