
#######################################################################
#
#                 Cambridge Crystallographic Data Centre
#                                CCDC 
#
#######################################################################
#
# If this CIF has been generated from an entry in the Cambridge 
# Structural Database, then it will include bibliographic, chemical, 
# crystal, experimental, refinement or atomic coordinate data resulting 
# from the CCDC's data processing and validation procedures.
#
#######################################################################

data_HAGTIV
_chemical_formula_moiety         '(C44 H30 Co1 N6)n'
_chemical_name_systematic        
catena-[(\m-5,15-bis(4-methylphenyl)-10,20-bis(pyridin-4-yl)porphyrinato)-cobalt]
_symmetry_cell_setting           rhombohedral
_symmetry_space_group_name_H-M   'R -3'
_symmetry_Int_Tables_number      148
_space_group_name_Hall           '-R 3'
loop_
_symmetry_equiv_pos_site_id
_symmetry_equiv_pos_as_xyz
1 x,y,z
2 -y,x-y,z
3 -x+y,-x,z
4 2/3+x,1/3+y,1/3+z
5 2/3-y,1/3+x-y,1/3+z
6 2/3-x+y,1/3-x,1/3+z
7 1/3+x,2/3+y,2/3+z
8 1/3-y,2/3+x-y,2/3+z
9 1/3-x+y,2/3-x,2/3+z
10 -x,-y,-z
11 y,-x+y,-z
12 x-y,x,-z
13 1/3-x,2/3-y,2/3-z
14 1/3+y,2/3-x+y,2/3-z
15 1/3+x-y,2/3+x,2/3-z
16 2/3-x,1/3-y,1/3-z
17 2/3+y,1/3-x+y,1/3-z
18 2/3+x-y,1/3+x,1/3-z
_cell_length_a                   32.6467(11)
_cell_length_b                   32.6467(11)
_cell_length_c                   9.2525(4)
_cell_angle_alpha                90
_cell_angle_beta                 90
_cell_angle_gamma                120
_cell_volume                     8540.21
_exptl_crystal_description       needle
_cell_formula_units_Z            9
loop_
_atom_site_label
_atom_site_type_symbol
_atom_site_fract_x
_atom_site_fract_y
_atom_site_fract_z
Co1 Co 0.5000 1.0000 0.5000
N1 N 0.53320(7) 0.99792(7) 0.3211(2)
N2 N 0.44167(7) 0.94321(7) 0.4292(2)
N3 N 0.23991(10) 0.86317(7) 0.7388(2)
C1 C 0.58084(8) 1.02491(8) 0.2941(3)
C2 C 0.59315(9) 1.00912(9) 0.1648(3)
H1 H 0.6232 1.0220 0.1245
C3 C 0.55313(9) 0.97226(9) 0.1130(3)
H2 H 0.5502 0.9549 0.0302
C4 C 0.51583(8) 0.96503(8) 0.2103(3)
C5 C 0.46947(8) 0.92782(8) 0.1988(3)
C6 C 0.43489(8) 0.91833(8) 0.3021(3)
C7 C 0.38622(8) 0.88199(9) 0.2888(3)
H3 H 0.3730 0.8604 0.2133
C8 C 0.36338(9) 0.88492(9) 0.4054(3)
H4 H 0.3314 0.8657 0.4260
C9 C 0.39756(8) 0.92338(8) 0.4924(3)
C10 C 0.38666(8) 0.93831(8) 0.6192(3)
C11 C 0.45586(8) 0.89616(9) 0.0692(3)
C12 C 0.45600(9) 0.91327(9) -0.0676(3)
H5 H 0.4653 0.9450 -0.0795
C13 C 0.44247(9) 0.88380(10) -0.1876(3)
H6 H 0.4424 0.8961 -0.2782
C14 C 0.42904(9) 0.83645(10) -0.1748(3)
C15 C 0.42897(9) 0.81918(10) -0.0379(3)
H7 H 0.4199 0.7875 -0.0267
C16 C 0.44215(9) 0.84839(9) 0.0830(3)
H8 H 0.4418 0.8360 0.1737
C17 C 0.41613(11) 0.80524(11) -0.3067(3)
H9 H 0.4022 0.8159 -0.3780
H10 H 0.3939 0.7732 -0.2802
H11 H 0.4441 0.8068 -0.3459
C18 C 0.33598(9) 0.91302(9) 0.6643(3)
C19 C 0.31972(9) 0.87999(9) 0.7743(3)
H12 H 0.3406 0.8738 0.8253
C20 C 0.27211(13) 0.85626(9) 0.8073(3)
H13 H 0.2618 0.8341 0.8817
C21 C 0.25597(13) 0.89521(9) 0.6326(3)
H14 H 0.2343 0.9006 0.5831
C22 C 0.30307(9) 0.92072(9) 0.5922(3)
H15 H 0.3126 0.9427 0.5177
N1I N 0.46680(7) 1.00208(7) 0.6789(2)
N2I N 0.55833(7) 1.05679(7) 0.5708(2)
C1I C 0.41916(8) 0.97509(8) 0.7059(3)
C2I C 0.40685(9) 0.99088(9) 0.8352(3)
H1I H 0.3768 0.9780 0.8755
C3I C 0.44687(9) 1.02774(9) 0.8870(3)
H2I H 0.4498 1.0451 0.9698
C4I C 0.48417(8) 1.03497(8) 0.7897(3)
C5I C 0.53053(8) 1.07218(8) 0.8012(3)
C6I C 0.56511(8) 1.08167(8) 0.6979(3)
C7I C 0.61378(8) 1.11801(9) 0.7112(3)
H3I H 0.6270 1.1396 0.7867
C8I C 0.63662(9) 1.11508(9) 0.5946(3)
H4I H 0.6686 1.1343 0.5740
C9I C 0.60244(8) 1.07662(8) 0.5076(3)
C10I C 0.61334(8) 1.06169(8) 0.3808(3)
C11I C 0.54414(8) 1.10384(9) 0.9308(3)
C12I C 0.54400(9) 1.08673(9) 1.0676(3)
H5I H 0.5347 1.0550 1.0795
C13I C 0.55753(9) 1.11620(10) 1.1876(3)
H6I H 0.5576 1.1039 1.2782
C14I C 0.57096(9) 1.16355(10) 1.1748(3)
C15I C 0.57103(9) 1.18082(10) 1.0379(3)
H7I H 0.5801 1.2125 1.0267
C16I C 0.55785(9) 1.15161(9) 0.9170(3)
H8I H 0.5582 1.1640 0.8263
C17I C 0.58387(11) 1.19476(11) 1.3067(3)
H9I H 0.5978 1.1841 1.3780
H10I H 0.6061 1.2268 1.2802
H11I H 0.5559 1.1932 1.3459
C18I C 0.66402(9) 1.08698(9) 0.3357(3)
C19I C 0.68028(9) 1.12001(9) 0.2257(3)
H12I H 0.6594 1.1262 0.1747
C22I C 0.69693(9) 1.07928(9) 0.4078(3)
H15I H 0.6874 1.0573 0.4823
N3I N 0.76009(10) 1.13683(7) 0.2612(2)
C20I C 0.72789(13) 1.14374(9) 0.1927(3)
H13I H 0.7382 1.1659 0.1183
C21I C 0.74403(13) 1.10479(9) 0.3674(3)
H14I H 0.7657 1.0994 0.4169
Co1E Co 0.1667 0.8333 0.8333
Co1H Co 0.8333 1.1667 0.1667
N3G N 0.47016(7) 1.04341(12) 0.4055(2)
N3P N 0.52984(7) 0.95659(12) 0.5945(2)
loop_
_geom_bond_atom_site_label_1
_geom_bond_atom_site_label_2
_geom_bond_site_symmetry_1
_geom_bond_site_symmetry_2
Co1 N1 1_555 1_555
N1 C1 1_555 1_555
N2 Co1 1_555 1_555
N3 C20 1_555 1_555
C1 C2 1_555 1_555
C2 H1 1_555 1_555
C3 C2 1_555 1_555
H2 C3 1_555 1_555
C4 N1 1_555 1_555
C5 C4 1_555 1_555
C6 N2 1_555 1_555
C7 C6 1_555 1_555
H3 C7 1_555 1_555
C8 C7 1_555 1_555
H4 C8 1_555 1_555
C9 N2 1_555 1_555
C10 C9 1_555 1_555
C11 C5 1_555 1_555
C12 C11 1_555 1_555
H5 C12 1_555 1_555
C13 C12 1_555 1_555
H6 C13 1_555 1_555
C14 C13 1_555 1_555
C15 C14 1_555 1_555
H7 C15 1_555 1_555
C16 C11 1_555 1_555
H8 C16 1_555 1_555
C17 C14 1_555 1_555
H9 C17 1_555 1_555
H10 C17 1_555 1_555
H11 C17 1_555 1_555
C18 C10 1_555 1_555
C19 C18 1_555 1_555
H12 C19 1_555 1_555
C20 C19 1_555 1_555
H13 C20 1_555 1_555
C21 N3 1_555 1_555
H14 C21 1_555 1_555
C22 C18 1_555 1_555
H15 C22 1_555 1_555
N1I Co1 1_555 1_555
N2I Co1 1_555 1_555
C1I C10 1_555 1_555
C2I C1I 1_555 1_555
H1I C2I 1_555 1_555
C3I C2I 1_555 1_555
H2I C3I 1_555 1_555
C4I N1I 1_555 1_555
C5I C4I 1_555 1_555
C6I N2I 1_555 1_555
C7I C6I 1_555 1_555
H3I C7I 1_555 1_555
C8I C7I 1_555 1_555
H4I C8I 1_555 1_555
C9I N2I 1_555 1_555
C10I C1 1_555 1_555
C11I C5I 1_555 1_555
C12I C11I 1_555 1_555
H5I C12I 1_555 1_555
C13I C12I 1_555 1_555
H6I C13I 1_555 1_555
C14I C13I 1_555 1_555
C15I C14I 1_555 1_555
H7I C15I 1_555 1_555
C16I C11I 1_555 1_555
H8I C16I 1_555 1_555
C17I C14I 1_555 1_555
H9I C17I 1_555 1_555
H10I C17I 1_555 1_555
H11I C17I 1_555 1_555
C18I C10I 1_555 1_555
C19I C18I 1_555 1_555
H12I C19I 1_555 1_555
C22I C18I 1_555 1_555
H15I C22I 1_555 1_555
N3I C20I 1_555 1_555
C20I C19I 1_555 1_555
H13I C20I 1_555 1_555
C21I C22I 1_555 1_555
H14I C21I 1_555 1_555
Co1E N3 1_555 1_555
Co1H N3I 1_555 1_555
N3G Co1 1_555 1_555
N3P Co1 1_555 1_555
C3 C4 1_555 1_555
C5 C6 1_555 1_555
C8 C9 1_555 1_555
C15 C16 1_555 1_555
C21 C22 1_555 1_555
N1I C1I 1_555 1_555
C3I C4I 1_555 1_555
C5I C6I 1_555 1_555
C8I C9I 1_555 1_555
C9I C10I 1_555 1_555
C15I C16I 1_555 1_555
N3I C21I 1_555 1_555

#END
