
#######################################################################
#
#                 Cambridge Crystallographic Data Centre
#                                CCDC 
#
#######################################################################
#
# If this CIF has been generated from an entry in the Cambridge 
# Structural Database, then it will include bibliographic, chemical, 
# crystal, experimental, refinement or atomic coordinate data resulting 
# from the CCDC's data processing and validation procedures.
#
#######################################################################

data_YUQDUL
_chemical_formula_moiety         '(C54 H33 Al3 O21)n'
_chemical_name_systematic        
"catena-[bis(\m-4,4',4''-(benzene-1,3,5-triyltris(oxy))tribenzoato)-tris(\m-hydroxo)-tri-aluminium unknown solvate]"
_symmetry_cell_setting           orthorhombic
_symmetry_space_group_name_H-M   'C c c a'
_symmetry_Int_Tables_number      68
_space_group_name_Hall           '-C 2a 2ac'
loop_
_symmetry_equiv_pos_site_id
_symmetry_equiv_pos_as_xyz
1 x,y,z
2 1/2-x,-y,z
3 -x,y,1/2-z
4 1/2+x,-y,1/2-z
5 1/2+x,1/2+y,z
6 -x,1/2-y,z
7 1/2-x,1/2+y,1/2-z
8 x,1/2-y,1/2-z
9 -x,-y,-z
10 1/2+x,y,-z
11 x,-y,1/2+z
12 1/2-x,y,1/2+z
13 1/2-x,1/2-y,-z
14 x,1/2+y,-z
15 1/2+x,1/2-y,1/2+z
16 -x,1/2+y,1/2+z
_cell_length_a                   27.1386(15)
_cell_length_b                   29.9214(19)
_cell_length_c                   17.1971(9)
_cell_angle_alpha                90
_cell_angle_beta                 90
_cell_angle_gamma                90
_cell_volume                     13964.5
_exptl_crystal_colour            colorless
_exptl_crystal_description       Prism
_cell_formula_units_Z            8
loop_
_atom_site_label
_atom_site_type_symbol
_atom_site_fract_x
_atom_site_fract_y
_atom_site_fract_z
_atom_site_U_iso_or_equiv
_atom_site_thermal_displace_type
Al1 Al 0.02535(3) 0.05415(3) 0.83645(4) 0.0236 Uani
Al2 Al 0.0000 0.0000 1.0000 0.0242 Uani
C1 C 0.06003(10) 0.10731(9) 0.70946(15) 0.0269 Uani
C2 C 0.09562(11) 0.13932(10) 0.67524(16) 0.0351 Uani
C3 C 0.08778(13) 0.15447(11) 0.59948(18) 0.0449 Uani
H1 H 0.0605 0.1445 0.5718 0.0540 Uiso
C4 C 0.12024(12) 0.18408(11) 0.56531(17) 0.0464 Uani
H2 H 0.1147 0.1942 0.5149 0.0560 Uiso
C5 C 0.16075(12) 0.19858(10) 0.60604(18) 0.0404 Uani
C6 C 0.16902(14) 0.18432(13) 0.68114(19) 0.0554 Uani
H3 H 0.1962 0.1945 0.7088 0.0670 Uiso
C7 C 0.13628(13) 0.15458(12) 0.71472(18) 0.0515 Uani
H4 H 0.1419 0.1447 0.7652 0.0620 Uiso
C8 C 0.44402(10) 0.08270(9) 0.49093(16) 0.0285 Uani
C9 C 0.41799(11) 0.11819(10) 0.53483(16) 0.0369 Uani
C10 C 0.40109(14) 0.15626(11) 0.49763(18) 0.0518 Uani
H5 H 0.4053 0.1591 0.4442 0.0620 Uiso
C11 C 0.37830(15) 0.18976(12) 0.5384(2) 0.0597 Uani
H6 H 0.3663 0.2148 0.5126 0.0720 Uiso
C12 C 0.37337(13) 0.18606(11) 0.61708(19) 0.0463 Uani
C13 C 0.38910(14) 0.14892(12) 0.65503(19) 0.0559 Uani
H7 H 0.3848 0.1464 0.7085 0.0670 Uiso
C14 C 0.41166(15) 0.11476(11) 0.61375(19) 0.0538 Uani
H8 H 0.4226 0.0894 0.6397 0.0650 Uiso
C15 C 0.41827(10) 0.47840(9) 0.60601(15) 0.0291 Uani
C16 C 0.37904(11) 0.44539(10) 0.62313(17) 0.0374 Uani
C17 C 0.36507(13) 0.41408(12) 0.56804(19) 0.0533 Uani
H9 H 0.3805 0.4139 0.5198 0.0640 Uiso
C18 C 0.32882(14) 0.38337(13) 0.5836(2) 0.0633 Uani
H10 H 0.3202 0.3622 0.5464 0.0760 Uiso
C19 C 0.30532(12) 0.38420(11) 0.6546(2) 0.0460 Uani
C20 C 0.31815(13) 0.41470(12) 0.7096(2) 0.0523 Uani
H11 H 0.3024 0.4150 0.7576 0.0630 Uiso
C21 C 0.35480(13) 0.44519(11) 0.69327(19) 0.0490 Uani
H12 H 0.3634 0.4662 0.7308 0.0590 Uiso
C22 C 0.27342(13) 0.22139(11) 0.61234(18) 0.0452 Uani
H13 H 0.2742 0.1912 0.5997 0.0540 Uiso
C23 C 0.23171(12) 0.24665(11) 0.60130(17) 0.0397 Uani
C24 C 0.22933(12) 0.29109(11) 0.6199(2) 0.0435 Uani
H14 H 0.2004 0.3072 0.6126 0.0520 Uiso
C25 C 0.27041(12) 0.31137(10) 0.64938(19) 0.0420 Uani
C26 C 0.31326(13) 0.28778(11) 0.66159(19) 0.0456 Uani
H15 H 0.3410 0.3018 0.6819 0.0550 Uiso
C27 C 0.31436(12) 0.24289(11) 0.64316(18) 0.0440 Uani
O1 O 0.07039(7) 0.08875(6) 0.77324(10) 0.0304 Uani
O2 O 0.02093(7) 0.10135(6) 0.67150(10) 0.0282 Uani
O3 O 0.46266(8) 0.05141(7) 0.52901(11) 0.0381 Uani
O4 O 0.44488(7) 0.08701(6) 0.41848(10) 0.0311 Uani
O5 O 0.42479(7) 0.50935(6) 0.65440(10) 0.0307 Uani
O6 O 0.44203(7) 0.47326(7) 0.54423(11) 0.0378 Uani
O7 O 0.0000 0.02646(8) 0.7500 0.0253 Uani
H16 H 0.0000 -0.0020 0.7500 0.0300 Uiso
O8 O -0.01515(6) 0.02464(6) 0.90578(10) 0.0258 Uani
H17 H -0.0451 0.0223 0.8920 0.0310 Uiso
O9 O 0.19068(9) 0.22739(8) 0.56543(13) 0.0543 Uani
O10 O 0.35690(9) 0.22071(9) 0.66331(14) 0.0634 Uani
O11 O 0.26634(9) 0.35551(7) 0.67110(16) 0.0612 Uani
Al1B Al -0.02535(3) 0.05415(3) 0.66355(4) 0.0236 Uani
C1B C -0.06003(10) 0.10731(9) 0.79054(15) 0.0269 Uani
C2B C -0.09562(11) 0.13932(10) 0.82476(16) 0.0351 Uani
C3B C -0.08778(13) 0.15447(11) 0.90052(18) 0.0449 Uani
H1B H -0.0605 0.1445 0.9282 0.0540 Uiso
C4B C -0.12024(12) 0.18408(11) 0.93469(17) 0.0464 Uani
H2B H -0.1147 0.1942 0.9851 0.0560 Uiso
C5B C -0.16075(12) 0.19858(10) 0.89396(18) 0.0404 Uani
C6B C -0.16902(14) 0.18432(13) 0.81886(19) 0.0554 Uani
H3B H -0.1962 0.1945 0.7912 0.0670 Uiso
C7B C -0.13628(13) 0.15458(12) 0.78528(18) 0.0515 Uani
H4B H -0.1419 0.1447 0.7348 0.0620 Uiso
C8B C -0.44402(10) 0.08270(9) 1.00907(16) 0.0285 Uani
C9B C -0.41799(11) 0.11819(10) 0.96517(16) 0.0369 Uani
C10B C -0.40109(14) 0.15626(11) 1.00237(18) 0.0518 Uani
H5B H -0.4053 0.1591 1.0558 0.0620 Uiso
C11B C -0.37830(15) 0.18976(12) 0.9616(2) 0.0597 Uani
H6B H -0.3663 0.2148 0.9874 0.0720 Uiso
C12B C -0.37337(13) 0.18606(11) 0.88292(19) 0.0463 Uani
C13B C -0.38910(14) 0.14892(12) 0.84497(19) 0.0559 Uani
H7B H -0.3848 0.1464 0.7915 0.0670 Uiso
C14B C -0.41166(15) 0.11476(11) 0.88625(19) 0.0538 Uani
H8B H -0.4226 0.0894 0.8603 0.0650 Uiso
C15B C -0.41827(10) 0.47840(9) 0.89399(15) 0.0291 Uani
C16B C -0.37904(11) 0.44539(10) 0.87687(17) 0.0374 Uani
C17B C -0.36507(13) 0.41408(12) 0.93196(19) 0.0533 Uani
H9B H -0.3805 0.4139 0.9802 0.0640 Uiso
C18B C -0.32882(14) 0.38337(13) 0.9164(2) 0.0633 Uani
H10B H -0.3202 0.3622 0.9536 0.0760 Uiso
C19B C -0.30532(12) 0.38420(11) 0.8454(2) 0.0460 Uani
C20B C -0.31815(13) 0.41470(12) 0.7904(2) 0.0523 Uani
H11B H -0.3024 0.4150 0.7424 0.0630 Uiso
C21B C -0.35480(13) 0.44519(11) 0.80673(19) 0.0490 Uani
H12B H -0.3634 0.4662 0.7692 0.0590 Uiso
C22B C -0.27342(13) 0.22139(11) 0.88766(18) 0.0452 Uani
H13B H -0.2742 0.1912 0.9003 0.0540 Uiso
C23B C -0.23171(12) 0.24665(11) 0.89870(17) 0.0397 Uani
C24B C -0.22933(12) 0.29109(11) 0.8801(2) 0.0435 Uani
H14B H -0.2004 0.3072 0.8874 0.0520 Uiso
C25B C -0.27041(12) 0.31137(10) 0.85062(19) 0.0420 Uani
C26B C -0.31326(13) 0.28778(11) 0.83841(19) 0.0456 Uani
H15B H -0.3410 0.3018 0.8181 0.0550 Uiso
C27B C -0.31436(12) 0.24289(11) 0.85684(18) 0.0440 Uani
O1B O -0.07039(7) 0.08875(6) 0.72676(10) 0.0304 Uani
O2B O -0.02093(7) 0.10135(6) 0.82850(10) 0.0282 Uani
O3B O -0.46266(8) 0.05141(7) 0.97099(11) 0.0381 Uani
O4B O -0.44488(7) 0.08701(6) 1.08152(10) 0.0311 Uani
O5B O -0.42479(7) 0.50935(6) 0.84560(10) 0.0307 Uani
O6B O -0.44203(7) 0.47326(7) 0.95577(11) 0.0378 Uani
O8B O 0.01515(6) 0.02464(6) 0.59422(10) 0.0258 Uani
H17B H 0.0451 0.0223 0.6080 0.0310 Uiso
O9B O -0.19068(9) 0.22739(8) 0.93457(13) 0.0543 Uani
O10B O -0.35690(9) 0.22071(9) 0.83669(14) 0.0634 Uani
O11B O -0.26634(9) 0.35551(7) 0.82890(16) 0.0612 Uani
Al1D Al -0.47465(3) 0.55415(3) 0.83645(4) 0.0236 Uani
Al1F Al 0.47465(3) 0.55415(3) 0.66355(4) 0.0236 Uani
Al1I Al -0.47465(3) 0.05415(3) 1.16355(4) 0.0236 Uani
Al1K Al 0.47465(3) 0.05415(3) 0.33645(4) 0.0236 Uani
Al2A Al -0.5000 0.0000 1.0000 0.0242 Uani
Al2B Al 0.0000 0.0000 0.5000 0.0242 Uani
Al2C Al 0.5000 0.0000 0.5000 0.0242 Uani
Al2D Al -0.5000 0.5000 1.0000 0.0242 Uani
Al2F Al 0.5000 0.5000 0.5000 0.0242 Uani
O3C O -0.03734(8) -0.05141(7) 0.97099(11) 0.0381 Uani
O3K O 0.03734(8) 0.05141(7) 1.02901(11) 0.0381 Uani
O4I O -0.05512(7) 0.08701(6) 0.58152(10) 0.0311 Uani
O4K O 0.05512(7) 0.08701(6) 0.91848(10) 0.0311 Uani
O5D O -0.07521(7) 0.00935(6) 0.65440(10) 0.0307 Uani
O5F O 0.07521(7) 0.00935(6) 0.84560(10) 0.0307 Uani
O6F O 0.05797(7) -0.02674(7) 0.95577(11) 0.0378 Uani
O6N O -0.05797(7) 0.02674(7) 1.04423(11) 0.0378 Uani
O8H O 0.01515(6) -0.02464(6) 1.09422(10) 0.0258 Uani
loop_
_atom_site_aniso_label
_atom_site_aniso_U_11
_atom_site_aniso_U_22
_atom_site_aniso_U_33
_atom_site_aniso_U_23
_atom_site_aniso_U_13
_atom_site_aniso_U_12
Al1 0.0269(5) 0.0249(5) 0.0189(4) 0.0017(3) 0.0006(3) 0.0001(4)
Al2 0.0274(6) 0.0248(6) 0.0204(6) 0.0019(5) 0.0007(5) -0.0020(5)
C1 0.0313(16) 0.0246(15) 0.0248(15) -0.0018(12) 0.0035(12) -0.0029(13)
C2 0.0399(18) 0.0358(17) 0.0296(15) -0.0001(13) 0.0011(13) -0.0069(15)
C3 0.0469(19) 0.051(2) 0.0367(17) 0.0069(15) -0.0058(15) -0.0180(17)
C4 0.056(2) 0.053(2) 0.0303(16) 0.0105(15) -0.0036(15) -0.0173(18)
C5 0.048(2) 0.0367(17) 0.0365(17) 0.0039(14) 0.0027(14) -0.0144(16)
C6 0.058(2) 0.069(3) 0.0391(19) 0.0094(17) -0.0124(16) -0.034(2)
C7 0.061(2) 0.060(2) 0.0334(17) 0.0136(16) -0.0082(16) -0.0277(19)
C8 0.0306(16) 0.0274(16) 0.0276(16) -0.0003(12) 0.0019(12) 0.0022(13)
C9 0.0464(19) 0.0370(18) 0.0273(16) 0.0003(13) 0.0022(13) 0.0037(15)
C10 0.080(3) 0.0422(19) 0.0332(18) 0.0042(15) 0.0047(17) 0.0170(19)
C11 0.094(3) 0.040(2) 0.045(2) -0.0030(16) -0.003(2) 0.029(2)
C12 0.049(2) 0.042(2) 0.048(2) -0.0149(16) -0.0018(16) 0.0111(17)
C13 0.079(3) 0.055(2) 0.0336(18) -0.0034(16) 0.0114(17) 0.017(2)
C14 0.079(3) 0.043(2) 0.0395(19) 0.0034(16) 0.0079(17) 0.020(2)
C15 0.0293(16) 0.0318(16) 0.0261(15) -0.0005(13) 0.0044(12) -0.0004(13)
C16 0.0411(18) 0.0325(17) 0.0387(17) -0.0046(14) 0.0046(14) -0.0045(15)
C17 0.060(2) 0.055(2) 0.045(2) -0.0160(17) 0.0186(17) -0.022(2)
C18 0.067(3) 0.058(2) 0.065(2) -0.026(2) 0.017(2) -0.028(2)
C19 0.0370(19) 0.0330(18) 0.068(2) -0.0043(16) 0.0138(16) -0.0080(15)
C20 0.056(2) 0.048(2) 0.053(2) -0.0063(17) 0.0213(17) -0.0125(18)
C21 0.057(2) 0.047(2) 0.0431(19) -0.0100(16) 0.0135(16) -0.0162(18)
C22 0.058(2) 0.0331(18) 0.0446(19) -0.0035(15) 0.0047(16) -0.0060(17)
C23 0.0418(19) 0.0381(19) 0.0392(17) 0.0038(15) 0.0033(14) -0.0134(16)
C24 0.0316(18) 0.0368(19) 0.062(2) 0.0060(16) 0.0074(16) -0.0042(15)
C25 0.042(2) 0.0269(17) 0.057(2) -0.0047(15) 0.0166(16) -0.0029(15)
C26 0.0399(19) 0.043(2) 0.054(2) -0.0130(16) 0.0066(15) -0.0020(17)
C27 0.044(2) 0.043(2) 0.0451(19) -0.0077(16) 0.0043(15) 0.0064(17)
O1 0.0317(11) 0.0341(11) 0.0254(10) 0.0065(8) 0.0001(8) -0.0064(9)
O2 0.0338(11) 0.0247(10) 0.0262(10) 0.0021(8) -0.0014(8) -0.0059(9)
O3 0.0552(13) 0.0339(12) 0.0252(11) 0.0032(9) 0.0052(9) 0.0142(11)
O4 0.0375(11) 0.0334(11) 0.0223(11) 0.0012(8) 0.0025(8) 0.0084(9)
O5 0.0309(11) 0.0322(11) 0.0289(10) -0.0073(9) 0.0059(8) -0.0066(9)
O6 0.0430(12) 0.0434(13) 0.0270(11) -0.0078(9) 0.0080(9) -0.0146(10)
O7 0.0349(15) 0.0192(13) 0.0217(13) 0.000 0.0028(11) 0.000
O8 0.0229(10) 0.0322(11) 0.0224(9) 0.0039(8) -0.0019(7) -0.0048(8)
O9 0.0599(15) 0.0570(16) 0.0461(13) 0.0156(12) -0.0047(11) -0.0308(13)
O10 0.0625(17) 0.0668(18) 0.0608(16) -0.0293(13) -0.0120(12) 0.0282(14)
O11 0.0461(14) 0.0326(13) 0.105(2) -0.0116(13) 0.0274(14) -0.0108(11)
Al1B 0.0269 0.0249 0.0189 -0.0017 0.0006 -0.0001
C1B 0.0313 0.0246 0.0248 0.0018 0.0035 0.0029
C2B 0.0399 0.0358 0.0296 0.0001 0.0011 0.0069
C3B 0.0469 0.051 0.0367 -0.0069 -0.0058 0.018
C4B 0.056 0.053 0.0303 -0.0105 -0.0036 0.0173
C5B 0.048 0.0367 0.0365 -0.0039 0.0027 0.0144
C6B 0.058 0.069 0.0391 -0.0094 -0.0124 0.034
C7B 0.061 0.06 0.0334 -0.0136 -0.0082 0.0277
C8B 0.0306 0.0274 0.0276 0.0003 0.0019 -0.0022
C9B 0.0464 0.037 0.0273 -0.0003 0.0022 -0.0037
C10B 0.08 0.0422 0.0332 -0.0042 0.0047 -0.017
C11B 0.094 0.04 0.045 0.003 -0.003 -0.029
C12B 0.049 0.042 0.048 0.0149 -0.0018 -0.0111
C13B 0.079 0.055 0.0336 0.0034 0.0114 -0.017
C14B 0.079 0.043 0.0395 -0.0034 0.0079 -0.02
C15B 0.0293 0.0318 0.0261 0.0005 0.0044 0.0004
C16B 0.0411 0.0325 0.0387 0.0046 0.0046 0.0045
C17B 0.06 0.055 0.045 0.016 0.0186 0.022
C18B 0.067 0.058 0.065 0.026 0.017 0.028
C19B 0.037 0.033 0.068 0.0043 0.0138 0.008
C20B 0.056 0.048 0.053 0.0063 0.0213 0.0125
C21B 0.057 0.047 0.0431 0.01 0.0135 0.0162
C22B 0.058 0.0331 0.0446 0.0035 0.0047 0.006
C23B 0.0418 0.0381 0.0392 -0.0038 0.0033 0.0134
C24B 0.0316 0.0368 0.062 -0.006 0.0074 0.0042
C25B 0.042 0.0269 0.057 0.0047 0.0166 0.0029
C26B 0.0399 0.043 0.054 0.013 0.0066 0.002
C27B 0.044 0.043 0.0451 0.0077 0.0043 -0.0064
O1B 0.0317 0.0341 0.0254 -0.0065 0.0001 0.0064
O2B 0.0338 0.0247 0.0262 -0.0021 -0.0014 0.0059
O3B 0.0552 0.0339 0.0252 -0.0032 0.0052 -0.0142
O4B 0.0375 0.0334 0.0223 -0.0012 0.0025 -0.0084
O5B 0.0309 0.0322 0.0289 0.0073 0.0059 0.0066
O6B 0.043 0.0434 0.027 0.0078 0.008 0.0146
O8B 0.0229 0.0322 0.0224 -0.0039 -0.0019 0.0048
O9B 0.0599 0.057 0.0461 -0.0156 -0.0047 0.0308
O10B 0.0625 0.0668 0.0608 0.0293 -0.012 -0.0282
O11B 0.0461 0.0326 0.105 0.0116 0.0274 0.0108
Al1D 0.0269 0.0249 0.0189 0.0017 0.0006 0.0001
Al1F 0.0269 0.0249 0.0189 -0.0017 0.0006 -0.0001
Al1I 0.0269 0.0249 0.0189 -0.0017 -0.0006 0.0001
Al1K 0.0269 0.0249 0.0189 0.0017 -0.0006 -0.0001
Al2A 0.0274 0.0248 0.0204 -0.0019 -0.0007 -0.002
Al2B 0.0274 0.0248 0.0204 -0.0019 0.0007 0.002
Al2C 0.0274 0.0248 0.0204 0.0019 -0.0007 0.002
Al2D 0.0274 0.0248 0.0204 0.0019 0.0007 -0.002
Al2F 0.0274 0.0248 0.0204 -0.0019 0.0007 0.002
O3C 0.0552 0.0339 0.0252 0.0032 -0.0052 -0.0142
O3K 0.0552 0.0339 0.0252 0.0032 -0.0052 -0.0142
O4I 0.0375 0.0334 0.0223 -0.0012 -0.0025 0.0084
O4K 0.0375 0.0334 0.0223 0.0012 -0.0025 -0.0084
O5D 0.0309 0.0322 0.0289 -0.0073 0.0059 -0.0066
O5F 0.0309 0.0322 0.0289 0.0073 0.0059 0.0066
O6F 0.043 0.0434 0.027 0.0078 0.008 0.0146
O6N 0.043 0.0434 0.027 0.0078 0.008 0.0146
O8H 0.0229 0.0322 0.0224 0.0039 -0.0019 -0.0048
loop_
_geom_bond_atom_site_label_1
_geom_bond_atom_site_label_2
_geom_bond_site_symmetry_1
_geom_bond_site_symmetry_2
Al1 O1 1_555 1_555
Al2 O8 1_555 1_555
C1 C2 1_555 1_555
C2 C3 1_555 1_555
C3 H1 1_555 1_555
C4 C3 1_555 1_555
H2 C4 1_555 1_555
C5 C4 1_555 1_555
C6 C5 1_555 1_555
H3 C6 1_555 1_555
C7 C2 1_555 1_555
H4 C7 1_555 1_555
C8 C9 1_555 1_555
C9 C10 1_555 1_555
C10 H5 1_555 1_555
C11 C10 1_555 1_555
H6 C11 1_555 1_555
C12 C11 1_555 1_555
C13 C12 1_555 1_555
H7 C13 1_555 1_555
C14 C9 1_555 1_555
H8 C14 1_555 1_555
C15 C16 1_555 1_555
C16 C17 1_555 1_555
C17 H9 1_555 1_555
C18 C17 1_555 1_555
H10 C18 1_555 1_555
C19 C18 1_555 1_555
C20 C19 1_555 1_555
H11 C20 1_555 1_555
C21 C16 1_555 1_555
H12 C21 1_555 1_555
C22 H13 1_555 1_555
C23 C22 1_555 1_555
C24 C23 1_555 1_555
H14 C24 1_555 1_555
C25 C24 1_555 1_555
C26 C25 1_555 1_555
H15 C26 1_555 1_555
C27 C22 1_555 1_555
O1 C1 1_555 1_555
O2 C1 1_555 1_555
O3 C8 1_555 1_555
O4 C8 1_555 1_555
O5 C15 1_555 1_555
O6 C15 1_555 1_555
O7 Al1 1_555 1_555
H16 O7 1_555 1_555
O8 Al1 1_555 1_555
H17 O8 1_555 1_555
O9 C5 1_555 1_555
O10 C12 1_555 1_555
O11 C19 1_555 1_555
Al1B O2 1_555 1_555
C1B C2B 1_555 1_555
C2B C3B 1_555 1_555
C3B H1B 1_555 1_555
C4B C3B 1_555 1_555
H2B C4B 1_555 1_555
C5B C4B 1_555 1_555
C6B C5B 1_555 1_555
H3B C6B 1_555 1_555
C7B C2B 1_555 1_555
H4B C7B 1_555 1_555
C8B C9B 1_555 1_555
C9B C10B 1_555 1_555
C10B H5B 1_555 1_555
C11B C10B 1_555 1_555
H6B C11B 1_555 1_555
C12B C11B 1_555 1_555
C13B C12B 1_555 1_555
H7B C13B 1_555 1_555
C14B C9B 1_555 1_555
H8B C14B 1_555 1_555
C15B C16B 1_555 1_555
C16B C17B 1_555 1_555
C17B H9B 1_555 1_555
C18B C17B 1_555 1_555
H10B C18B 1_555 1_555
C19B C18B 1_555 1_555
C20B C19B 1_555 1_555
H11B C20B 1_555 1_555
C21B C16B 1_555 1_555
H12B C21B 1_555 1_555
C22B H13B 1_555 1_555
C23B C22B 1_555 1_555
C24B C23B 1_555 1_555
H14B C24B 1_555 1_555
C25B C24B 1_555 1_555
C26B C25B 1_555 1_555
H15B C26B 1_555 1_555
C27B C22B 1_555 1_555
O1B Al1B 1_555 1_555
O2B Al1 1_555 1_555
O3B C8B 1_555 1_555
O4B C8B 1_555 1_555
O5B C15B 1_555 1_555
O6B C15B 1_555 1_555
O8B Al1B 1_555 1_555
H17B O8B 1_555 1_555
O9B C5B 1_555 1_555
O10B C12B 1_555 1_555
O11B C19B 1_555 1_555
Al1D O5B 1_555 1_555
Al1F O5 1_555 1_555
Al1I O4B 1_555 1_555
Al1K O4 1_555 1_555
Al2A O3B 1_555 1_555
Al2B O8B 1_555 1_555
Al2C O3 1_555 1_555
Al2D O6B 1_555 1_555
Al2F O6 1_555 1_555
O3C Al2 1_555 1_555
O3K Al2 1_555 1_555
O4I Al1B 1_555 1_555
O4K Al1 1_555 1_555
O5D Al1B 1_555 1_555
O5F Al1 1_555 1_555
O6F Al2 1_555 1_555
O6N Al2 1_555 1_555
O8H Al2 1_555 1_555
C6 C7 1_555 1_555
C13 C14 1_555 1_555
C20 C21 1_555 1_555
C23 O9 1_555 1_555
C25 O11 1_555 1_555
C26 C27 1_555 1_555
C27 O10 1_555 1_555
O7 Al1B 1_555 1_555
C1B O1B 1_555 1_555
C1B O2B 1_555 1_555
C6B C7B 1_555 1_555
C13B C14B 1_555 1_555
C20B C21B 1_555 1_555
C23B O9B 1_555 1_555
C25B O11B 1_555 1_555
C26B C27B 1_555 1_555
C27B O10B 1_555 1_555

#END
