
#######################################################################
#
#                 Cambridge Crystallographic Data Centre
#                                CCDC 
#
#######################################################################
#
# If this CIF has been generated from an entry in the Cambridge 
# Structural Database, then it will include bibliographic, chemical, 
# crystal, experimental, refinement or atomic coordinate data resulting 
# from the CCDC's data processing and validation procedures.
#
#######################################################################

data_IDUDES
_chemical_name_common            NJU-Bai7
_chemical_formula_moiety         '(C13 H7 Cu1 N1 O4)n,n(C3 H7 N1 O1)'
_chemical_name_systematic        
'catena-[(\m~5~- 5-(Pyridin-3-yl)isophthalato)-copper(ii) N,N-dimethylformamide solvate]'
_symmetry_cell_setting           monoclinic
_symmetry_space_group_name_H-M   'P 21/c'
_symmetry_Int_Tables_number      14
_space_group_name_Hall           '-P 2ybc'
loop_
_symmetry_equiv_pos_site_id
_symmetry_equiv_pos_as_xyz
1 x,y,z
2 -x,1/2+y,1/2-z
3 -x,-y,-z
4 x,1/2-y,1/2+z
_cell_length_a                   10.5385(9)
_cell_length_b                   10.7768(9)
_cell_length_c                   14.7694(12)
_cell_angle_alpha                90
_cell_angle_beta                 108.7200(10)
_cell_angle_gamma                90
_cell_volume                     1588.64
_exptl_crystal_colour            green
_exptl_crystal_description       block
_cell_formula_units_Z            4
loop_
_atom_site_label
_atom_site_type_symbol
_atom_site_fract_x
_atom_site_fract_y
_atom_site_fract_z
Cu1 Cu 0.90651(2) -0.08595(2) -0.011142(19)
O1 O 0.80851(15) 0.03757(14) 0.03911(12)
O2 O 0.97432(15) 0.17798(14) 0.06773(12)
O3 O 0.80990(15) 0.52009(14) 0.36089(11)
O4 O 0.97199(15) 0.37819(15) 0.38077(12)
N1 N 0.21728(17) 0.24552(16) 0.01078(14)
C1 C 0.8618(2) 0.1402(2) 0.06992(16)
C2 C 0.4336(2) 0.3419(2) 0.06959(16)
C3 C 0.8620(2) 0.42723(19) 0.33384(17)
C4 C 0.5818(2) 0.32590(19) 0.11409(16)
C5 C 0.8552(2) 0.2876(2) 0.19783(17)
H1 H 0.9467 0.2747 0.2260
C6 C 0.7871(2) 0.22576(19) 0.11445(16)
C7 C 0.3731(2) 0.4582(2) 0.05128(18)
H2 H 0.4244 0.5301 0.0671
C8 C 0.6519(2) 0.39065(19) 0.19572(17)
H3 H 0.6077 0.4490 0.2211
C9 C 0.6493(2) 0.24293(19) 0.07326(16)
H4 H 0.6025 0.1990 0.0185
C10 C 0.7883(2) 0.3691(2) 0.24039(17)
C11 C 0.1618(2) 0.3581(2) -0.01011(19)
H5 H 0.0695 0.3639 -0.0388
C12 C 0.3509(2) 0.2391(2) 0.04816(16)
H6 H 0.3903 0.1610 0.0604
C13 C 0.2360(2) 0.4651(2) 0.0092(2)
H7 H 0.1942 0.5419 -0.0059
Cu1A Cu 1.09349(2) 0.41405(2) 0.511142(19)
Cu1B Cu 0.09349(2) 0.08595(2) 0.011142(19)
Cu1B_2 Cu 1.09349(2) 0.08595(2) 0.011142(19)
Cu1C Cu 0.90651(2) 0.58595(2) 0.488858(19)
O2B O 1.02568(15) -0.17798(14) -0.06773(12)
O3C O 0.80990(15) -0.02009(14) -0.13911(11)
O4A O 1.02801(15) -0.12181(15) 0.11923(12)
N1B N 0.78272(17) -0.24552(16) -0.01078(14)
O5 O 0.5112(3) 0.2108(2) 0.3321(2)
N2 N 0.3478(2) 0.3592(2) 0.29215(18)
C14 C 0.3954(5) 0.2435(3) 0.2928(3)
H8 H 0.3349 0.1829 0.2605
C15 C 0.2098(3) 0.3900(4) 0.2464(3)
H9 H 0.1656 0.3224 0.2063
H10 H 0.2038 0.4632 0.2081
H11 H 0.1675 0.4051 0.2940
C16 C 0.4349(3) 0.4570(2) 0.3442(2)
H12 H 0.4073 0.4822 0.3974
H13 H 0.4299 0.5266 0.3026
H14 H 0.5255 0.4271 0.3673
loop_
_geom_bond_atom_site_label_1
_geom_bond_atom_site_label_2
_geom_bond_site_symmetry_1
_geom_bond_site_symmetry_2
Cu1 O1 1_555 1_555
O1 C1 1_555 1_555
O2 C1 1_555 1_555
O3 C3 1_555 1_555
O4 C3 1_555 1_555
N1 C11 1_555 1_555
C1 C6 1_555 1_555
C2 C4 1_555 1_555
C3 C10 1_555 1_555
C4 C8 1_555 1_555
C5 H1 1_555 1_555
C6 C5 1_555 1_555
C7 C2 1_555 1_555
H2 C7 1_555 1_555
C8 H3 1_555 1_555
C9 C4 1_555 1_555
H4 C9 1_555 1_555
C10 C5 1_555 1_555
C11 H5 1_555 1_555
C12 N1 1_555 1_555
H6 C12 1_555 1_555
C13 C7 1_555 1_555
H7 C13 1_555 1_555
O5 C14 1_555 1_555
N2 C14 1_555 1_555
C14 H8 1_555 1_555
C15 N2 1_555 1_555
H9 C15 1_555 1_555
H10 C15 1_555 1_555
H11 C15 1_555 1_555
C16 N2 1_555 1_555
H12 C16 1_555 1_555
H13 C16 1_555 1_555
H14 C16 1_555 1_555
Cu1A O4 1_555 1_555
Cu1B N1 1_555 1_555
Cu1B_2 Cu1 1_555 1_555
Cu1C O3 1_555 1_555
O2B Cu1 1_555 1_555
O3C Cu1 1_555 1_555
O4A Cu1 1_555 1_555
N1B Cu1 1_555 1_555
O2 Cu1B_2 1_555 1_555
C2 C12 1_555 1_555
C6 C9 1_555 1_555
C8 C10 1_555 1_555
C11 C13 1_555 1_555
Cu1A Cu1C 1_555 1_555

#END
