
#######################################################################
#
#                 Cambridge Crystallographic Data Centre
#                                CCDC 
#
#######################################################################
#
# If this CIF has been generated from an entry in the Cambridge 
# Structural Database, then it will include bibliographic, chemical, 
# crystal, experimental, refinement or atomic coordinate data resulting 
# from the CCDC's data processing and validation procedures.
#
#######################################################################

data_VOJGOS
_chemical_formula_moiety         '(C13 H7 N1 O4 Zn1)n,C3 H7 N1 O1'
_chemical_name_systematic        
'catena-((\m- 5-(pyridin-4-yl)isophthalato)-zinc N,N-dimethylformamide unknown solvate)'
_symmetry_cell_setting           monoclinic
_symmetry_space_group_name_H-M   'P 21/c'
_symmetry_Int_Tables_number      14
_space_group_name_Hall           '-P 2ybc'
loop_
_symmetry_equiv_pos_site_id
_symmetry_equiv_pos_as_xyz
1 x,y,z
2 -x,1/2+y,1/2-z
3 -x,-y,-z
4 x,1/2-y,1/2+z
_cell_length_a                   11.877(2)
_cell_length_b                   13.855(3)
_cell_length_c                   13.921(3)
_cell_angle_alpha                90
_cell_angle_beta                 114.403(2)
_cell_angle_gamma                90
_cell_volume                     2086.13
_exptl_crystal_colour            colorless
_exptl_crystal_description       block
_cell_formula_units_Z            4
_chemical_properties_physical    Moisture-sensitive
loop_
_atom_site_label
_atom_site_type_symbol
_atom_site_fract_x
_atom_site_fract_y
_atom_site_fract_z
C1 C 0.4282(2) 0.89565(17) 0.11732(18)
C2 C 0.3597(2) 0.83893(16) 0.16884(18)
C3 C 0.4164(2) 0.76581(17) 0.24037(18)
H1 H 0.5001 0.7532 0.2609
C4 C 0.3489(2) 0.71144(17) 0.28141(18)
C5 C 0.2240(2) 0.73120(17) 0.25240(18)
H2 H 0.1783 0.6931 0.2782
C6 C 0.1676(2) 0.80781(17) 0.18492(19)
C7 C 0.2363(2) 0.86013(17) 0.14282(19)
H3 H 0.1989 0.9104 0.0962
C8 C 0.4100(2) 0.63242(17) 0.35957(19)
C9 C 0.0369(2) 0.83539(17) 0.15771(19)
C10 C -0.0545(2) 0.76882(18) 0.1458(2)
H4 H -0.0350 0.7036 0.1566
C11 C -0.1741(2) 0.79872(18) 0.11797(19)
H5 H -0.2340 0.7524 0.1099
C12 C -0.1192(2) 0.95654(18) 0.1155(2)
H6 H -0.1408 1.0215 0.1059
C13 C 0.0014(2) 0.93176(18) 0.1427(2)
H7 H 0.0599 0.9794 0.1513
N1 N -0.20819(17) 0.89106(14) 0.10203(15)
O1 O 0.37033(16) 0.96393(13) 0.05868(15)
O2 O 0.53649(15) 0.87016(12) 0.13481(14)
O3 O 0.51896(16) 0.64698(12) 0.42483(13)
O4 O 0.34662(16) 0.55809(12) 0.35318(15)
Zn1 Zn 0.61518(2) 0.940250(18) 0.049625(19)
N1_2 N 0.79181(17) 0.89106(14) 0.10203(15)
O1B O 0.62967(16) 1.03607(13) -0.05868(15)
O3C O 0.51896(16) 0.85302(12) -0.07517(13)
O4A O 0.65338(16) 1.05809(12) 0.14682(15)
Zn1_2 Zn -0.38482(2) 0.940250(18) 0.049625(19)
Zn1A Zn 0.38482(2) 0.440250(18) 0.450375(19)
Zn1B Zn 0.38482(2) 1.059750(18) -0.049625(19)
Zn1C Zn 0.61518(2) 0.559750(18) 0.549625(19)
C14 C 0.4595(8) 0.5186(4) 0.1444(5)
H8 H 0.4627 0.4566 0.1149
H9 H 0.3867 0.5225 0.1580
H10 H 0.5315 0.5271 0.2092
C15 C 0.3249(8) 0.6054(7) 0.0044(5)
H11 H 0.2957 0.5539 -0.0460
H12 H 0.3181 0.6655 -0.0320
H13 H 0.2761 0.6082 0.0447
C16 C 0.5310(16) 0.6365(5) 0.0500(9)
H14 H 0.5086 0.6823 -0.0036
N2 N 0.4561(5) 0.5880(3) 0.0761(3)
O5 O 0.6575(6) 0.6081(5) 0.1181(7)
loop_
_geom_bond_atom_site_label_1
_geom_bond_atom_site_label_2
_geom_bond_site_symmetry_1
_geom_bond_site_symmetry_2
C1 C2 1_555 1_555
C2 C3 1_555 1_555
C3 H1 1_555 1_555
C4 C3 1_555 1_555
C5 C4 1_555 1_555
H2 C5 1_555 1_555
C6 C5 1_555 1_555
C7 C2 1_555 1_555
H3 C7 1_555 1_555
C8 C4 1_555 1_555
C9 C6 1_555 1_555
C10 C9 1_555 1_555
H4 C10 1_555 1_555
C11 C10 1_555 1_555
H5 C11 1_555 1_555
C12 H6 1_555 1_555
C13 C9 1_555 1_555
H7 C13 1_555 1_555
N1 C11 1_555 1_555
O1 C1 1_555 1_555
O2 C1 1_555 1_555
O3 C8 1_555 1_555
O4 C8 1_555 1_555
Zn1 O2 1_555 1_555
C14 H8 1_555 1_555
H9 C14 1_555 1_555
H10 C14 1_555 1_555
C15 H11 1_555 1_555
H12 C15 1_555 1_555
H13 C15 1_555 1_555
C16 H14 1_555 1_555
N2 C14 1_555 1_555
O5 C16 1_555 1_555
N1_2 Zn1 1_555 1_555
O1B Zn1 1_555 1_555
O3C Zn1 1_555 1_555
O4A Zn1 1_555 1_555
Zn1_2 N1 1_555 1_555
Zn1A O4 1_555 1_555
Zn1B O1 1_555 1_555
Zn1C O3 1_555 1_555
C6 C7 1_555 1_555
C12 C13 1_555 1_555
C12 N1 1_555 1_555
C15 N2 1_555 1_555
C16 N2 1_555 1_555

#END
