
#######################################################################
#
#                 Cambridge Crystallographic Data Centre
#                                CCDC 
#
#######################################################################
#
# If this CIF has been generated from an entry in the Cambridge 
# Structural Database, then it will include bibliographic, chemical, 
# crystal, experimental, refinement or atomic coordinate data resulting 
# from the CCDC's data processing and validation procedures.
#
#######################################################################

data_TONQOD
_chemical_formula_moiety         '(C40 H32 N2 O10 Zn2)n'
_chemical_name_systematic        
"catena-((\m~8~-4,4',4'',4'''-Benzene-1,2,4,5-tetrayltetrabenzoato)-bis(dimethylformamide)-di-zinc(ii) unknown solvate)"
_symmetry_cell_setting           orthorhombic
_symmetry_space_group_name_H-M   'I m m a'
_symmetry_Int_Tables_number      74
_space_group_name_Hall           '-I 2b 2'
loop_
_symmetry_equiv_pos_site_id
_symmetry_equiv_pos_as_xyz
1 x,y,z
2 -x,1/2-y,z
3 -x,1/2+y,-z
4 x,-y,-z
5 1/2+x,1/2+y,1/2+z
6 1/2-x,-y,1/2+z
7 1/2-x,y,1/2-z
8 1/2+x,1/2-y,1/2-z
9 -x,-y,-z
10 x,1/2+y,-z
11 x,1/2-y,z
12 -x,y,z
13 1/2-x,1/2-y,1/2-z
14 1/2+x,y,1/2-z
15 1/2+x,-y,1/2+z
16 1/2-x,1/2+y,1/2+z
_cell_length_a                   21.6546(16)
_cell_length_b                   30.901(2)
_cell_length_c                   9.2945(8)
_cell_angle_alpha                90
_cell_angle_beta                 90
_cell_angle_gamma                90
_cell_volume                     6219.4
_exptl_crystal_colour            colorless
_exptl_crystal_description       plate
_cell_formula_units_Z            4
loop_
_atom_site_label
_atom_site_type_symbol
_atom_site_fract_x
_atom_site_fract_y
_atom_site_fract_z
_atom_site_U_iso_or_equiv
_atom_site_thermal_displace_type
C1 C 0.4202(2) 0.05783(12) 0.4335(7) 0.0616 Uani
C2 C 0.3811(2) 0.09667(12) 0.3991(7) 0.0673 Uani
C3 C 0.35897(19) 0.10244(12) 0.2595(7) 0.0621 Uani
H1 H 0.3677 0.0813 0.1882 0.0740 Uiso
C4 C 0.3247(2) 0.13845(13) 0.2233(7) 0.0730 Uani
H2 H 0.3093 0.1419 0.1282 0.0880 Uiso
C5 C 0.3125(2) 0.17033(12) 0.3303(7) 0.0755 Uani
C6 C 0.3350(2) 0.16467(12) 0.4668(7) 0.0801 Uani
H3 H 0.3275 0.1860 0.5382 0.0960 Uiso
C7 C 0.3685(2) 0.12789(12) 0.5011(7) 0.0694 Uani
H4 H 0.3831 0.1241 0.5966 0.0830 Uiso
C8 C 0.2788(2) 0.21065(12) 0.2888(8) 0.0806 Uani
C9 C 0.3037(3) 0.2500 0.3278(10) 0.0837 Uani
H5 H 0.3401 0.2500 0.3849 0.1000 Uiso
C10 C 0.5000 -0.0567(3) 0.0323(13) 0.0990 Uani
H6 H 0.5000 -0.0442 -0.0611 0.1190 Uiso
C11 C 0.5000 -0.1261(3) -0.0893(14) 0.1140 Uani
C12 C 0.5000 -0.1236(4) 0.1807(14) 0.1390 Uani
N1 N 0.5000 -0.09890(17) 0.0482(9) 0.0747 Uani
O1 O 0.43564(15) 0.03397(10) 0.3319(4) 0.0703 Uani
O2 O 0.43513(15) 0.05379(9) 0.5631(5) 0.0742 Uani
O3 O 0.5000 -0.03165(17) 0.1484(7) 0.0980 Uani
Zn1 Zn 0.5000 -0.014011(18) 0.34723(9) 0.0522 Uani
C1F C 0.0798(2) 0.05783(12) 0.0665(7) 0.0616 Uani
C1L C 0.0798(2) 0.44217(12) 0.0665(7) 0.0616 Uani
C1J C 0.4202(2) 0.44217(12) 0.4335(7) 0.0616 Uani
C2F C 0.1189(2) 0.09667(12) 0.1009(7) 0.0673 Uani
C2L C 0.1189(2) 0.40333(12) 0.1009(7) 0.0673 Uani
C2J C 0.3811(2) 0.40333(12) 0.3991(7) 0.0673 Uani
C3F C 0.14103(19) 0.10244(12) 0.2405(7) 0.0621 Uani
C3L C 0.14103(19) 0.39756(12) 0.2405(7) 0.0621 Uani
C3J C 0.35897(19) 0.39756(12) 0.2595(7) 0.0621 Uani
H1F H 0.1323 0.0813 0.3118 0.0740 Uiso
H1L H 0.1323 0.4187 0.3118 0.0740 Uiso
H1J H 0.3677 0.4187 0.1882 0.0740 Uiso
C4F C 0.1753(2) 0.13845(13) 0.2767(7) 0.0730 Uani
C4L C 0.1753(2) 0.36155(13) 0.2767(7) 0.0730 Uani
C4J C 0.3247(2) 0.36155(13) 0.2233(7) 0.0730 Uani
H2F H 0.1907 0.1419 0.3718 0.0880 Uiso
H2L H 0.1907 0.3581 0.3718 0.0880 Uiso
H2J H 0.3093 0.3581 0.1282 0.0880 Uiso
C5F C 0.1875(2) 0.17033(12) 0.1697(7) 0.0755 Uani
C5L C 0.1875(2) 0.32967(12) 0.1697(7) 0.0755 Uani
C5J C 0.3125(2) 0.32967(12) 0.3303(7) 0.0755 Uani
C6F C 0.1650(2) 0.16467(12) 0.0332(7) 0.0801 Uani
C6L C 0.1650(2) 0.33533(12) 0.0332(7) 0.0801 Uani
C6J C 0.3350(2) 0.33533(12) 0.4668(7) 0.0801 Uani
H3F H 0.1725 0.1860 -0.0382 0.0960 Uiso
H3L H 0.1725 0.3140 -0.0382 0.0960 Uiso
H3J H 0.3275 0.3140 0.5382 0.0960 Uiso
C7F C 0.1315(2) 0.12789(12) -0.0011(7) 0.0694 Uani
C7L C 0.1315(2) 0.37211(12) -0.0011(7) 0.0694 Uani
C7J C 0.3685(2) 0.37211(12) 0.5011(7) 0.0694 Uani
H4F H 0.1169 0.1241 -0.0966 0.0830 Uiso
H4L H 0.1169 0.3759 -0.0966 0.0830 Uiso
H4J H 0.3831 0.3759 0.5966 0.0830 Uiso
C8F C 0.2212(2) 0.21065(12) 0.2112(8) 0.0806 Uani
C8L C 0.2212(2) 0.28935(12) 0.2112(8) 0.0806 Uani
C8J C 0.2788(2) 0.28935(12) 0.2888(8) 0.0806 Uani
C9F C 0.1963(3) 0.2500 0.1722(10) 0.0837 Uani
H5F H 0.1599 0.2500 0.1151 0.1000 Uiso
C10F C 0.0000 -0.0567(3) 0.4677(13) 0.0990 Uani
H6F H 0.0000 -0.0442 0.5611 0.1190 Uiso
C11F C 0.0000 -0.1261(3) 0.5893(14) 0.1140 Uani
C12F C 0.0000 -0.1236(4) 0.3193(14) 0.1390 Uani
N1F N 0.0000 -0.09890(17) 0.4518(9) 0.0747 Uani
O1F O 0.06436(15) 0.03397(10) 0.1681(4) 0.0703 Uani
O1L O 0.06436(15) 0.46603(10) 0.1681(4) 0.0703 Uani
O1J O 0.43564(15) 0.46603(10) 0.3319(4) 0.0703 Uani
O1K O 0.56436(15) 0.03397(10) 0.3319(4) 0.0703 Uani
O1M O -0.06436(15) 0.03397(10) 0.1681(4) 0.0703 Uani
O2F O 0.06487(15) 0.05379(9) -0.0631(5) 0.0742 Uani
O2L O 0.06487(15) 0.44621(9) -0.0631(5) 0.0742 Uani
O2J O 0.43513(15) 0.44621(9) 0.5631(5) 0.0742 Uani
O2C O 0.43513(15) -0.05379(9) 0.4369(5) 0.0742 Uani
O2H O 0.56487(15) -0.05379(9) 0.4369(5) 0.0742 Uani
O2E O 0.06487(15) -0.05379(9) 0.0631(5) 0.0742 Uani
O2N O -0.06487(15) -0.05379(9) 0.0631(5) 0.0742 Uani
O3F O 0.0000 -0.03165(17) 0.3516(7) 0.0980 Uani
Zn1F Zn 0.0000 -0.014011(18) 0.15277(9) 0.0522 Uani
Zn1C Zn 0.5000 0.014011(18) 0.65277(9) 0.0522 Uani
Zn1E Zn 0.0000 0.014011(18) -0.15277(9) 0.0522 Uani
Zn1G Zn 0.0000 0.514011(18) 0.15277(9) 0.0522 Uani
Zn1D Zn 0.0000 0.485989(18) -0.15277(9) 0.0522 Uani
Zn1A Zn 0.5000 0.514011(18) 0.34723(9) 0.0522 Uani
Zn1B Zn 0.5000 0.485989(18) 0.65277(9) 0.0522 Uani
H7? H 0.4716 -0.1132 -0.1595 0.1710 Uiso
H8? H 0.4866 -0.1556 -0.0669 0.1710 Uiso
H9? H 0.5418 -0.1268 -0.1298 0.1710 Uiso
H10? H 0.5026 -0.1546 0.1583 0.2080 Uiso
H11? H 0.5382 -0.1178 0.2340 0.2080 Uiso
H12? H 0.4644 -0.1152 0.2395 0.2080 Uiso
loop_
_atom_site_aniso_label
_atom_site_aniso_U_11
_atom_site_aniso_U_22
_atom_site_aniso_U_33
_atom_site_aniso_U_23
_atom_site_aniso_U_13
_atom_site_aniso_U_12
C1 0.038 0.0148 0.132 0.027 -0.001 -0.0018
C2 0.036 0.015 0.151 0.021 -0.019 -0.0007
C3 0.045 0.0214 0.12 0.001 -0.013 0.0026
C4 0.052 0.025 0.142 0.002 -0.041 -0.0025
C5 0.046 0.0125 0.168 0.005 -0.044 0.0004
C6 0.067 0.0173 0.156 0 -0.049 0.0098
C7 0.053 0.0231 0.132 0.006 -0.031 0.0081
C8 0.051 0.0099 0.181 -0.001 -0.06 0.0017
C9 0.044 0.016 0.191 0 -0.059 0
C10 0.071 0.058 0.168 0.045 0 0
C11 0.079 0.102 0.161 -0.003 0 0
C12 0.161 0.075 0.181 0.016 0 0
N1 0.069 0.029 0.126 0.009 0 0
O1 0.047 0.0228 0.141 0.0205 -0.0006 0.0134
O2 0.054 0.0227 0.146 0.0244 -0.003 0.014
O3 0.133 0.033 0.128 -0.017 0 0
Zn1 0.0387 0.0143 0.1035 0.0172 0 0
C1F 0.038 0.0148 0.132 -0.027 -0.001 0.0018
C1L 0.038(2) 0.0148(19) 0.132(5) 0.027(3) -0.001(3) -0.0018(16)
C1J 0.038 0.0148 0.132 -0.027 -0.001 0.0018
C2F 0.036 0.015 0.151 -0.021 -0.019 0.0007
C2L 0.036(2) 0.0150(18) 0.151(5) 0.021(2) -0.019(3) -0.0007(16)
C2J 0.036 0.015 0.151 -0.021 -0.019 0.0007
C3F 0.045 0.0214 0.12 -0.001 -0.013 -0.0026
C3L 0.045(2) 0.0214(19) 0.120(5) 0.001(2) -0.013(3) 0.0026(17)
C3J 0.045 0.0214 0.12 -0.001 -0.013 -0.0026
C4F 0.052 0.025 0.142 -0.002 -0.041 0.0025
C4L 0.052(3) 0.025(2) 0.142(5) 0.002(3) -0.041(3) -0.0025(19)
C4J 0.052 0.025 0.142 -0.002 -0.041 0.0025
C5F 0.046 0.0125 0.168 -0.005 -0.044 -0.0004
C5L 0.046(2) 0.0125(17) 0.168(6) 0.005(2) -0.044(3) 0.0004(16)
C5J 0.046 0.0125 0.168 -0.005 -0.044 -0.0004
C6F 0.067 0.0173 0.156 0 -0.049 -0.0098
C6L 0.067(3) 0.0173(19) 0.156(6) 0.000(3) -0.049(4) 0.0098(19)
C6J 0.067 0.0173 0.156 0 -0.049 -0.0098
C7F 0.053 0.0231 0.132 -0.006 -0.031 -0.0081
C7L 0.053(3) 0.0231(19) 0.132(5) 0.006(3) -0.031(3) 0.0081(19)
C7J 0.053 0.0231 0.132 -0.006 -0.031 -0.0081
C8F 0.051 0.0099 0.181 0.001 -0.06 -0.0017
C8L 0.051(3) 0.0099(17) 0.181(6) -0.001(2) -0.060(3) 0.0017(16)
C8J 0.051 0.0099 0.181 0.001 -0.06 -0.0017
C9F 0.044(3) 0.016(3) 0.191(9) 0.000 -0.059(5) 0.000
C10F 0.071 0.058 0.168 -0.045 0 0
C11F 0.079 0.102 0.161 0.003 0 0
C12F 0.161 0.075 0.181 -0.016 0 0
N1F 0.069 0.029 0.126 -0.009 0 0
O1F 0.047 0.0228 0.141 -0.0205 -0.0006 -0.0134
O1L 0.0470(18) 0.0228(15) 0.141(3) 0.0205(18) -0.0006(19) 0.0134(13)
O1J 0.047 0.0228 0.141 -0.0205 -0.0006 -0.0134
O1K 0.047 0.0228 0.141 0.0205 0.0006 -0.0134
O1M 0.047 0.0228 0.141 -0.0205 0.0006 0.0134
O2F 0.054 0.0227 0.146 -0.0244 -0.003 -0.014
O2L 0.054(2) 0.0227(15) 0.146(4) 0.0244(19) -0.003(2) 0.0140(13)
O2J 0.054 0.0227 0.146 -0.0244 -0.003 -0.014
O2C 0.054 0.0227 0.146 0.0244 0.003 -0.014
O2H 0.054 0.0227 0.146 0.0244 -0.003 0.014
O2E 0.054 0.0227 0.146 -0.0244 0.003 0.014
O2N 0.054 0.0227 0.146 -0.0244 -0.003 -0.014
O3F 0.133 0.033 0.128 0.017 0 0
Zn1F 0.0387 0.0143 0.1035 -0.0172 0 0
Zn1C 0.0387 0.0143 0.1035 0.0172 0 0
Zn1E 0.0387 0.0143 0.1035 -0.0172 0 0
Zn1G 0.0387(4) 0.0143(3) 0.1035(8) 0.0172(3) 0.000 0.000
Zn1D 0.0387 0.0143 0.1035 0.0172 0 0
Zn1A 0.0387 0.0143 0.1035 -0.0172 0 0
Zn1B 0.0387 0.0143 0.1035 -0.0172 0 0
loop_
_geom_bond_atom_site_label_1
_geom_bond_atom_site_label_2
_geom_bond_site_symmetry_1
_geom_bond_site_symmetry_2
C1 C2 1_555 1_555
C2 C3 1_555 1_555
C3 H1 1_555 1_555
C4 C3 1_555 1_555
H2 C4 1_555 1_555
C5 C4 1_555 1_555
C6 C5 1_555 1_555
H3 C6 1_555 1_555
C7 C2 1_555 1_555
H4 C7 1_555 1_555
C8 C5 1_555 1_555
C9 C8 1_555 1_555
H5 C9 1_555 1_555
C10 H6 1_555 1_555
C11 N1 1_555 1_555
C12 N1 1_555 1_555
N1 C10 1_555 1_555
O1 C1 1_555 1_555
O2 C1 1_555 1_555
O3 C10 1_555 1_555
Zn1 O1 1_555 1_555
C1F C2F 1_555 1_555
C1L C2L 1_555 1_555
C1J C2J 1_555 1_555
C2F C3F 1_555 1_555
C2L C3L 1_555 1_555
C2J C3J 1_555 1_555
C3F H1F 1_555 1_555
C3L H1L 1_555 1_555
C3J H1J 1_555 1_555
C4F C3F 1_555 1_555
C4L C3L 1_555 1_555
C4J C3J 1_555 1_555
H2F C4F 1_555 1_555
H2L C4L 1_555 1_555
H2J C4J 1_555 1_555
C5F C4F 1_555 1_555
C5L C4L 1_555 1_555
C5J C4J 1_555 1_555
C6F C5F 1_555 1_555
C6L C5L 1_555 1_555
C6J C5J 1_555 1_555
H3F C6F 1_555 1_555
H3L C6L 1_555 1_555
H3J C6J 1_555 1_555
C7F C2F 1_555 1_555
C7L C2L 1_555 1_555
C7J C2J 1_555 1_555
H4F C7F 1_555 1_555
H4L C7L 1_555 1_555
H4J C7J 1_555 1_555
C8F C8 1_555 1_555
C8L C5L 1_555 1_555
C8J C9 1_555 1_555
C9F C8F 1_555 1_555
H5F C9F 1_555 1_555
C10F H6F 1_555 1_555
C11F N1F 1_555 1_555
C12F N1F 1_555 1_555
N1F C10F 1_555 1_555
O1F C1F 1_555 1_555
O1L C1L 1_555 1_555
O1J C1J 1_555 1_555
O1K Zn1 1_555 1_555
O1M Zn1F 1_555 1_555
O2F C1F 1_555 1_555
O2L C1L 1_555 1_555
O2J C1J 1_555 1_555
O2C Zn1 1_555 1_555
O2H Zn1 1_555 1_555
O2E Zn1F 1_555 1_555
O2N Zn1F 1_555 1_555
O3F C10F 1_555 1_555
Zn1F O1F 1_555 1_555
Zn1C O2 1_555 1_555
Zn1E O2F 1_555 1_555
Zn1G O1L 1_555 1_555
Zn1D O2L 1_555 1_555
Zn1A O1J 1_555 1_555
Zn1B O2J 1_555 1_555
C6 C7 1_555 1_555
O3 Zn1 1_555 1_555
C5F C8F 1_555 1_555
C5J C8J 1_555 1_555
C6F C7F 1_555 1_555
C6L C7L 1_555 1_555
C6J C7J 1_555 1_555
C8L C8J 1_555 1_555
C8L C9F 1_555 1_555
O3F Zn1F 1_555 1_555

#END
