
#######################################################################
#
#                 Cambridge Crystallographic Data Centre
#                                CCDC 
#
#######################################################################
#
# If this CIF has been generated from an entry in the Cambridge 
# Structural Database, then it will include bibliographic, chemical, 
# crystal, experimental, refinement or atomic coordinate data resulting 
# from the CCDC's data processing and validation procedures.
#
#######################################################################

data_NUKBOM
_chemical_formula_moiety         '(C86 H46 Mg6 O32 2-)n,2n(C8 H15 N2 1+)'
_chemical_name_systematic        
"catena-(bis(1-n-Butyl-3-methylimidazolium) tris(\m~4~-naphthalene-1,4-dicarboxylato-O,O',O'',O''')-bis(\m~4~-naphthalene-1,4-dicarboxylato-O,O,O',O'',O''')-bis(\m~3~-hydrogen naphthalene-1,4-dicarboxylato-O,O',O'')-bis(\m~3~-formato-O,O,O')-hexa-magnesium)"
_symmetry_cell_setting           monoclinic
_symmetry_space_group_name_H-M   'P 21/n'
_symmetry_Int_Tables_number      14
_space_group_name_Hall           '-P 2yn'
loop_
_symmetry_equiv_pos_site_id
_symmetry_equiv_pos_as_xyz
1 x,y,z
2 1/2-x,1/2+y,1/2-z
3 -x,-y,-z
4 1/2+x,1/2-y,1/2+z
_cell_length_a                   14.7921(2)
_cell_length_b                   15.0566(2)
_cell_length_c                   21.4174(3)
_cell_angle_alpha                90
_cell_angle_beta                 99.8310(10)
_cell_angle_gamma                90
_cell_volume                     4700.01
_exptl_crystal_colour            colorless
_exptl_crystal_description       block
_cell_formula_units_Z            2
loop_
_atom_site_label
_atom_site_type_symbol
_atom_site_fract_x
_atom_site_fract_y
_atom_site_fract_z
N1 N 0.3409(15) 0.9624(17) 0.2451(10)
N2 N 0.2374(14) 0.9326(15) 0.1521(9)
C46 C 0.3264(18) 0.896(2) 0.1472(13)
H25 H 0.3400 0.8644 0.1128
C47 C 0.3909(15) 0.917(2) 0.2037(14)
H26 H 0.4531 0.9032 0.2116
C48 C 0.2436(14) 0.976(2) 0.2157(11)
H27 H 0.1976 1.0051 0.2326
C49 C 0.368(2) 0.992(2) 0.3112(11)
H28 H 0.4333 0.9847 0.3238
H29 H 0.3368 0.9571 0.3383
H30 H 0.3525 1.0534 0.3146
C50 C 0.1429(15) 0.935(2) 0.1139(10)
H31 H 0.1072 0.9795 0.1316
H32 H 0.1137 0.8779 0.1174
C51 C 0.1408(17) 0.955(3) 0.0453(11)
H33 H 0.1968 0.9333 0.0329
H34 H 0.1393 1.0191 0.0395
C52 C 0.060(2) 0.9150(19) 0.0029(12)
H35 H 0.0818 0.8713 -0.0244
H36 H 0.0220 0.8844 0.0287
C53 C 0.003(2) 0.983(3) -0.0375(15)
H37 H -0.0602 0.9792 -0.0320
H38 H 0.0068 0.9715 -0.0811
H39 H 0.0264 1.0406 -0.0257
Mg1 Mg 0.69337(11) 1.32509(10) 0.00681(7)
O1 O 0.6001(3) 1.2217(3) 0.00116(17)
O2 O 0.7698(2) 1.4360(2) 0.02121(16)
O3 O 0.7251(3) 1.2922(3) -0.07698(17)
O4 O 0.7023(2) 1.3166(2) 0.11437(15)
O5 O 0.7915(3) 1.2424(3) 0.06263(17)
O6 O 0.5788(2) 1.4057(2) -0.02329(16)
C1 C 0.5617(4) 1.1788(3) 0.0380(2)
C2 C 0.7491(3) 1.5164(3) 0.0228(2)
C3 C 0.7210(3) 1.3396(4) -0.1253(2)
Mg2 Mg 0.57351(10) 1.32812(10) 0.13819(7)
C4 C 0.7629(3) 1.2580(3) 0.1128(2)
Mg3 Mg 0.61109(10) 1.50679(10) -0.09529(7)
C5 C 0.5076(3) 1.4060(3) 0.0013(2)
O7 O 0.5473(3) 1.2058(2) 0.09100(16)
C6 C 0.5292(4) 1.0862(3) 0.0185(2)
O8 O 0.6952(2) 1.5556(2) -0.01940(17)
C7 C 0.7905(3) 1.5664(3) 0.0817(2)
O9 O 0.6904(3) 1.4167(3) -0.13116(17)
C8 C 0.7581(4) 1.2985(4) -0.1800(2)
O10 O 0.5022(2) 1.3977(2) 0.05767(16)
O11 O 0.6223(2) 1.2521(2) 0.21945(16)
O12 O 0.4546(3) 1.3072(3) 0.1688(2)
O13 O 0.6111(3) 1.4411(2) 0.18730(17)
C9 C 0.8007(3) 1.2009(3) 0.1695(2)
O14 O 0.6598(3) 1.5987(3) -0.1503(2)
O15 O 0.5015(2) 1.4633(2) -0.15442(18)
H1 H 0.4524 1.4133 -0.0264
C10 C 0.5825(5) 1.0338(4) -0.0156(3)
C11 C 0.4487(5) 1.0538(4) 0.0348(3)
C12 C 0.8123(5) 1.5173(4) 0.1344(3)
C13 C 0.8047(4) 1.6605(3) 0.0852(2)
C14 C 0.8449(5) 1.2671(7) -0.1693(3)
C15 C 0.7046(4) 1.2916(4) -0.2414(2)
C16 C 0.8048(4) 1.1119(3) 0.1585(3)
C17 C 0.8334(3) 1.2352(3) 0.2311(2)
C18 C 0.6733(9) 1.0638(8) -0.0318(7)
C19 C 0.3832(8) 1.1059(7) 0.0686(6)
H2 H 0.8021 1.4563 0.1319
C20 C 0.8495(6) 1.5544(4) 0.1925(3)
C21 C 0.8410(4) 1.6999(3) 0.1449(2)
C22 C 0.7861(7) 1.7158(4) 0.0318(3)
H3 H 0.8796 1.2722 -0.1289
C23 C 0.8838(5) 1.2274(6) -0.2171(3)
C24 C 0.7439(4) 1.2487(4) -0.2896(2)
C25 C 0.6142(4) 1.3260(5) -0.2561(3)
H4 H 0.7836 1.0899 0.1181
C26 C 0.8406(4) 1.0534(3) 0.2071(2)
C27 C 0.8769(3) 1.1759(3) 0.2796(2)
C28 C 0.8242(4) 1.3261(4) 0.2473(3)
H5 H 0.6948 1.1197 -0.0180
C29 C 0.7260(10) 1.0144(10) -0.0654(8)
H6 H 0.3982 1.1647 0.0789
C30 C 0.3056(9) 1.0742(10) 0.0847(8)
H7 H 0.8657 1.5177 0.2275
C31 C 0.8628(4) 1.6438(3) 0.1990(2)
C32 C 0.8585(5) 1.7926(4) 0.1475(3)
C33 C 0.8030(8) 1.8050(6) 0.0364(4)
H8 H 0.7619 1.6914 -0.0074
H9 H 0.9447 1.2091 -0.2088
C34 C 0.8335(4) 1.2150(4) -0.2761(2)
C35 C 0.6894(5) 1.2420(7) -0.3504(3)
C36 C 0.5658(5) 1.3176(8) -0.3157(4)
H10 H 0.5880 1.3543 -0.2250
H11 H 0.8376 0.9926 0.1992
C37 C 0.8798(3) 1.0830(3) 0.2657(2)
C38 C 0.9129(4) 1.2116(4) 0.3397(3)
C39 C 0.8593(5) 1.3565(4) 0.3060(3)
H12 H 0.7936 1.3651 0.2173
H13 H 0.7803 1.0368 -0.0755
H14 H 0.2721 1.1091 0.1084
C40 C 0.8952(4) 1.6785(3) 0.2638(2)
H15 H 0.8829 1.8189 0.1859
C41 C 0.8399(7) 1.8432(5) 0.0945(3)
H16 H 0.7898 1.8406 0.0005
C42 C 0.8793(3) 1.1650(3) -0.3231(2)
H17 H 0.7133 1.2138 -0.3827
C43 C 0.6030(6) 1.2755(8) -0.3631(4)
H18 H 0.5066 1.3405 -0.3250
C44 C 0.9270(3) 1.0149(3) 0.3122(2)
H19 H 0.9428 1.1741 0.3712
C45 C 0.9051(5) 1.2987(4) 0.3526(3)
H20 H 0.8532 1.4162 0.3155
O16 O 0.9418(4) 1.6196(3) 0.3019(2)
H21 H 0.8519 1.9038 0.0969
H22 H 0.5687 1.2702 -0.4035
H23 H 0.9299 1.3207 0.3924
H24 H 0.948(6) 1.643(6) 0.338(4)
C11B C 0.5513(5) 0.9462(4) -0.0348(3)
C10B C 0.4175(5) 0.9662(4) 0.0156(3)
C6B C 0.4708(4) 0.9138(3) -0.0185(2)
C19B C 0.6168(8) 0.8941(7) -0.0686(6)
C18B C 0.3267(9) 0.9362(8) 0.0318(7)
C30B C 0.6944(9) 0.9258(10) -0.0847(8)
C1B C 0.4383(4) 0.8212(3) -0.0380(2)
H6B H 0.6018 0.8353 -0.0789
C29B C 0.2740(10) 0.9856(10) 0.0654(8)
H5B H 0.3052 0.8803 0.0180
H14B H 0.7279 0.8909 -0.1084
O1B O 0.3999(3) 0.7783(3) -0.00116(17)
O7B O 0.4527(3) 0.7942(2) -0.09100(16)
H13B H 0.2197 0.9632 0.0755
O11A O 0.8777(2) 1.7521(2) 0.28055(16)
O14A O 0.8402(3) 1.0987(3) -0.3497(2)
O12C O 0.9546(3) 1.1928(3) -0.3312(2)
O15C O 1.0015(2) 1.0367(2) 0.34558(18)
O13A O 0.8889(3) 0.9411(2) 0.31270(17)
Mg1B Mg 0.30663(11) 0.67491(10) -0.00681(7)
Mg2B Mg 0.42649(10) 0.67188(10) -0.13819(7)
Mg2A Mg 0.92649(10) 1.82812(10) 0.36181(7)
Mg3A Mg 0.88891(10) 1.00679(10) -0.40471(7)
Mg2C Mg 1.07351(10) 1.17188(10) -0.36181(7)
Mg3C Mg 1.11109(10) 0.99321(10) 0.40471(7)
Mg2A_2 Mg 0.92649(10) 0.82812(10) 0.36181(7)
O2B O 0.2302(2) 0.5640(2) -0.02121(16)
O3B O 0.2749(3) 0.7078(3) 0.07698(17)
O4B O 0.2977(2) 0.6834(2) -0.11437(15)
O5B O 0.2085(3) 0.7576(3) -0.06263(17)
O6B O 0.4212(2) 0.5943(2) 0.02329(16)
O10B O 0.4978(2) 0.6023(2) -0.05767(16)
O11B O 0.3777(2) 0.7479(2) -0.21945(16)
O12B O 0.5454(3) 0.6928(3) -0.1688(2)
O13B O 0.3889(3) 0.5589(2) -0.18730(17)
C2B C 0.2509(3) 0.4836(3) -0.0228(2)
C3B C 0.2790(3) 0.6604(4) 0.1253(2)
C4B C 0.2371(3) 0.7420(3) -0.1128(2)
Mg3B Mg 0.38891(10) 0.49321(10) 0.09529(7)
C5B C 0.4924(3) 0.5940(3) -0.0013(2)
Mg3C_2 Mg 0.11109(10) 0.99321(10) 0.40471(7)
Mg2C_2 Mg 0.07351(10) 1.17188(10) -0.36181(7)
O8B O 0.3048(2) 0.4444(2) 0.01940(17)
C7B C 0.2095(3) 0.4336(3) -0.0817(2)
O9B O 0.3096(3) 0.5833(3) 0.13116(17)
C8B C 0.2419(4) 0.7015(4) 0.1800(2)
C9B C 0.1993(3) 0.7991(3) -0.1695(2)
O14B O 0.3402(3) 0.4013(3) 0.1503(2)
O15B O 0.4985(2) 0.5367(2) 0.15442(18)
H1B H 0.5476 0.5867 0.0264
O14C O 0.1598(3) 0.9013(3) 0.3497(2)
O13C O 0.1111(3) 1.0589(2) -0.31270(17)
C12B C 0.1877(5) 0.4827(4) -0.1344(3)
C13B C 0.1953(4) 0.3395(3) -0.0852(2)
C14B C 0.1551(5) 0.7329(7) 0.1693(3)
C15B C 0.2954(4) 0.7084(4) 0.2414(2)
C16B C 0.1952(4) 0.8881(3) -0.1585(3)
C17B C 0.1666(3) 0.7648(3) -0.2311(2)
C42B C 0.1207(3) 0.8350(3) 0.3231(2)
C44B C 0.0730(3) 0.9851(3) -0.3122(2)
H2B H 0.1979 0.5437 -0.1319
C20B C 0.1505(6) 0.4456(4) -0.1925(3)
C21B C 0.1590(4) 0.3001(3) -0.1449(2)
C22B C 0.2139(7) 0.2842(4) -0.0318(3)
H3B H 0.1204 0.7278 0.1289
C23B C 0.1162(5) 0.7726(6) 0.2171(3)
C24B C 0.2561(4) 0.7513(4) 0.2896(2)
C25B C 0.3858(4) 0.6740(5) 0.2561(3)
H4B H 0.2164 0.9101 -0.1181
C26B C 0.1594(4) 0.9466(3) -0.2071(2)
C27B C 0.1231(3) 0.8241(3) -0.2796(2)
C28B C 0.1758(4) 0.6739(4) -0.2473(3)
C34B C 0.1665(4) 0.7850(4) 0.2761(2)
O12A O 0.0454(3) 0.8072(3) 0.3312(2)
C37B C 0.1202(3) 0.9170(3) -0.2657(2)
O15A O -0.0015(2) 0.9633(2) -0.34558(18)
H7B H 0.1343 0.4823 -0.2275
C31B C 0.1372(4) 0.3562(3) -0.1990(2)
C32B C 0.1415(5) 0.2074(4) -0.1475(3)
C33B C 0.1970(8) 0.1950(6) -0.0364(4)
H8B H 0.2381 0.3086 0.0074
H9B H 0.0553 0.7909 0.2088
C35B C 0.3106(5) 0.7580(7) 0.3504(3)
C36B C 0.4342(5) 0.6824(8) 0.3157(4)
H10B H 0.4120 0.6457 0.2250
H11B H 0.1624 1.0074 -0.1992
C38B C 0.0871(4) 0.7884(4) -0.3397(3)
C39B C 0.1407(5) 0.6435(4) -0.3060(3)
H12B H 0.2064 0.6349 -0.2173
Mg2A_3 Mg -0.07351(10) 0.82812(10) 0.36181(7)
Mg3A_2 Mg -0.11109(10) 1.00679(10) -0.40471(7)
C40B C 0.1048(4) 0.3215(3) -0.2638(2)
H15B H 0.1171 0.1811 -0.1859
C41B C 0.1601(7) 0.1568(5) -0.0945(3)
H16B H 0.2102 0.1594 -0.0005
H17B H 0.2867 0.7862 0.3827
C43B C 0.3970(6) 0.7245(8) 0.3631(4)
H18B H 0.4934 0.6595 0.3250
H19B H 0.0572 0.8259 -0.3712
C45B C 0.0949(5) 0.7013(4) -0.3526(3)
H20B H 0.1468 0.5838 -0.3155
O16B O 0.0582(4) 0.3804(3) -0.3019(2)
O11C O 0.1223(2) 0.2479(2) -0.28055(16)
H21B H 0.1481 0.0962 -0.0969
H22B H 0.4313 0.7298 0.4035
H23B H 0.0701 0.6793 -0.3924
H24B H 0.052(6) 0.357(6) -0.338(4)
Mg2C_3 Mg 0.07351(10) 0.17188(10) -0.36181(7)
N3? N 0.3772(17) 0.9462(16) 0.2820(10)
N4? N 0.4411(16) 0.9164(14) 0.3878(9)
C54? C 0.4658(18) 0.907(2) 0.2826(12)
H40? H 0.4944 0.8958 0.2463
C55? C 0.5044(16) 0.886(2) 0.3477(13)
H41? H 0.5624 0.8581 0.3620
C56? C 0.3583(16) 0.956(2) 0.3476(10)
H42? H 0.3050 0.9809 0.3609
C57? C 0.301(2) 0.976(3) 0.2312(12)
H43? H 0.3194 0.9674 0.1906
H44? H 0.2473 0.9417 0.2333
H45? H 0.2891 1.0377 0.2369
C58? C 0.435(2) 0.9135(18) 0.4569(10)
H46? H 0.4559 0.8568 0.4740
H47? H 0.3719 0.9201 0.4618
C59? C 0.491(3) 0.9856(17) 0.4936(12)
H48? H 0.5551 0.9726 0.4961
H49? H 0.4781 0.9878 0.5360
C60? C 0.470(3) 1.0747(18) 0.4622(13)
H50? H 0.4075 1.0745 0.4398
H51? H 0.5093 1.0840 0.4317
C61? C 0.482(3) 1.1492(17) 0.5092(18)
H52? H 0.4675 1.2044 0.4873
H53? H 0.4411 1.1407 0.5392
H54? H 0.5439 1.1503 0.5310
loop_
_geom_bond_atom_site_label_1
_geom_bond_atom_site_label_2
_geom_bond_site_symmetry_1
_geom_bond_site_symmetry_2
Mg1 O1 1_555 1_555
O1 C1 1_555 1_555
O2 Mg1 1_555 1_555
O3 Mg1 1_555 1_555
O4 Mg1 1_555 1_555
O5 Mg1 1_555 1_555
O6 Mg1 1_555 1_555
C1 O7 1_555 1_555
C2 O2 1_555 1_555
C3 O3 1_555 1_555
Mg2 O4 1_555 1_555
C4 O4 1_555 1_555
Mg3 O6 1_555 1_555
C5 O6 1_555 1_555
O7 Mg2 1_555 1_555
C6 C1 1_555 1_555
O8 C2 1_555 1_555
C7 C2 1_555 1_555
O9 C3 1_555 1_555
C8 C3 1_555 1_555
O10 Mg2 1_555 1_555
O11 Mg2 1_555 1_555
O12 Mg2 1_555 1_555
O13 Mg2 1_555 1_555
C9 C4 1_555 1_555
O14 Mg3 1_555 1_555
O15 Mg3 1_555 1_555
H1 C5 1_555 1_555
C10 C6 1_555 1_555
C11 C6 1_555 1_555
C12 C7 1_555 1_555
C13 C7 1_555 1_555
C14 C8 1_555 1_555
C15 C8 1_555 1_555
C16 C9 1_555 1_555
C17 C9 1_555 1_555
C18 C10 1_555 1_555
C19 C11 1_555 1_555
H2 C12 1_555 1_555
C20 C12 1_555 1_555
C21 C13 1_555 1_555
C22 C13 1_555 1_555
H3 C14 1_555 1_555
C23 C14 1_555 1_555
C24 C15 1_555 1_555
C25 C15 1_555 1_555
H4 C16 1_555 1_555
C26 C16 1_555 1_555
C27 C17 1_555 1_555
C28 C17 1_555 1_555
H5 C18 1_555 1_555
C29 C18 1_555 1_555
H6 C19 1_555 1_555
C30 C19 1_555 1_555
H7 C20 1_555 1_555
C31 C20 1_555 1_555
C32 C21 1_555 1_555
C33 C22 1_555 1_555
H8 C22 1_555 1_555
H9 C23 1_555 1_555
C34 C23 1_555 1_555
C35 C24 1_555 1_555
C36 C25 1_555 1_555
H10 C25 1_555 1_555
H11 C26 1_555 1_555
C37 C26 1_555 1_555
C38 C27 1_555 1_555
C39 C28 1_555 1_555
H12 C28 1_555 1_555
H13 C29 1_555 1_555
H14 C30 1_555 1_555
C40 C31 1_555 1_555
H15 C32 1_555 1_555
C41 C32 1_555 1_555
H16 C33 1_555 1_555
C42 C34 1_555 1_555
H17 C35 1_555 1_555
C43 C35 1_555 1_555
H18 C36 1_555 1_555
C44 C37 1_555 1_555
H19 C38 1_555 1_555
C45 C38 1_555 1_555
H20 C39 1_555 1_555
O16 C40 1_555 1_555
H21 C41 1_555 1_555
H22 C43 1_555 1_555
H23 C45 1_555 1_555
H24 O16 1_555 1_555
N1 C47 1_555 1_555
N2 C46 1_555 1_555
C46 H25 1_555 1_555
C47 C46 1_555 1_555
H26 C47 1_555 1_555
C48 N1 1_555 1_555
H27 C48 1_555 1_555
C49 N1 1_555 1_555
H28 C49 1_555 1_555
H29 C49 1_555 1_555
H30 C49 1_555 1_555
C50 N2 1_555 1_555
H31 C50 1_555 1_555
H32 C50 1_555 1_555
C51 C50 1_555 1_555
H33 C51 1_555 1_555
H34 C51 1_555 1_555
C52 C51 1_555 1_555
H35 C52 1_555 1_555
H36 C52 1_555 1_555
C53 C52 1_555 1_555
H37 C53 1_555 1_555
H38 C53 1_555 1_555
H39 C53 1_555 1_555
C11B C10 1_555 1_555
C10B C11 1_555 1_555
C6B C11B 1_555 1_555
C19B C11B 1_555 1_555
C18B C10B 1_555 1_555
C30B C29 1_555 1_555
C1B C6B 1_555 1_555
H6B C19B 1_555 1_555
C29B C30 1_555 1_555
H5B C18B 1_555 1_555
H14B C30B 1_555 1_555
O1B C1B 1_555 1_555
O7B C1B 1_555 1_555
H13B C29B 1_555 1_555
O11A C40 1_555 1_555
O14A C42 1_555 1_555
O12C C42 1_555 1_555
O15C C44 1_555 1_555
O13A C44 1_555 1_555
Mg1B O1B 1_555 1_555
Mg2B O7B 1_555 1_555
Mg2A O11A 1_555 1_555
Mg3A O14A 1_555 1_555
Mg2C O12C 1_555 1_555
Mg3C O15C 1_555 1_555
Mg2A_2 O13A 1_555 1_555
O2B Mg1B 1_555 1_555
O3B Mg1B 1_555 1_555
O4B Mg1B 1_555 1_555
O5B Mg1B 1_555 1_555
O6B Mg1B 1_555 1_555
O10B Mg2B 1_555 1_555
O11B Mg2B 1_555 1_555
O12B Mg2B 1_555 1_555
O13B Mg2B 1_555 1_555
C2B O2B 1_555 1_555
C3B O3B 1_555 1_555
C4B O4B 1_555 1_555
Mg3B O6B 1_555 1_555
C5B O6B 1_555 1_555
Mg3C_2 O14C 1_555 1_555
Mg2C_2 O13C 1_555 1_555
O8B C2B 1_555 1_555
C7B C2B 1_555 1_555
O9B C3B 1_555 1_555
C8B C3B 1_555 1_555
C9B C4B 1_555 1_555
O14B Mg3B 1_555 1_555
O15B Mg3B 1_555 1_555
H1B C5B 1_555 1_555
O14C C42B 1_555 1_555
O13C C44B 1_555 1_555
C12B C7B 1_555 1_555
C13B C7B 1_555 1_555
C14B C8B 1_555 1_555
C15B C8B 1_555 1_555
C16B C9B 1_555 1_555
C17B C9B 1_555 1_555
C42B C34B 1_555 1_555
C44B C37B 1_555 1_555
H2B C12B 1_555 1_555
C20B C12B 1_555 1_555
C21B C13B 1_555 1_555
C22B C13B 1_555 1_555
H3B C14B 1_555 1_555
C23B C14B 1_555 1_555
C24B C15B 1_555 1_555
C25B C15B 1_555 1_555
H4B C16B 1_555 1_555
C26B C16B 1_555 1_555
C27B C17B 1_555 1_555
C28B C17B 1_555 1_555
C34B C23B 1_555 1_555
O12A C42B 1_555 1_555
C37B C26B 1_555 1_555
O15A C44B 1_555 1_555
H7B C20B 1_555 1_555
C31B C20B 1_555 1_555
C32B C21B 1_555 1_555
C33B C22B 1_555 1_555
H8B C22B 1_555 1_555
H9B C23B 1_555 1_555
C35B C24B 1_555 1_555
C36B C25B 1_555 1_555
H10B C25B 1_555 1_555
H11B C26B 1_555 1_555
C38B C27B 1_555 1_555
C39B C28B 1_555 1_555
H12B C28B 1_555 1_555
Mg2A_3 O12A 1_555 1_555
Mg3A_2 O15A 1_555 1_555
C40B C31B 1_555 1_555
H15B C32B 1_555 1_555
C41B C32B 1_555 1_555
H16B C33B 1_555 1_555
H17B C35B 1_555 1_555
C43B C35B 1_555 1_555
H18B C36B 1_555 1_555
H19B C38B 1_555 1_555
C45B C38B 1_555 1_555
H20B C39B 1_555 1_555
O16B C40B 1_555 1_555
O11C C40B 1_555 1_555
H21B C41B 1_555 1_555
H22B C43B 1_555 1_555
H23B C45B 1_555 1_555
H24B O16B 1_555 1_555
Mg2C_3 O11C 1_555 1_555
O5 C4 1_555 1_555
Mg3 O8 1_555 1_555
Mg3 O9 1_555 1_555
C5 O10 1_555 1_555
C21 C31 1_555 1_555
C24 C34 1_555 1_555
C27 C37 1_555 1_555
C33 C41 1_555 1_555
C36 C43 1_555 1_555
C39 C45 1_555 1_555
N2 C48 1_555 1_555
C10B C6B 1_555 1_555
C19B C30B 1_555 1_555
C18B C29B 1_555 1_555
Mg2B O4B 1_555 1_555
O5B C4B 1_555 1_555
O10B C5B 1_555 1_555
Mg3B O8B 1_555 1_555
Mg3B O9B 1_555 1_555
C21B C31B 1_555 1_555
C24B C34B 1_555 1_555
C27B C37B 1_555 1_555
C33B C41B 1_555 1_555
C36B C43B 1_555 1_555
C39B C45B 1_555 1_555

#END
