
#######################################################################
#
#                 Cambridge Crystallographic Data Centre
#                                CCDC 
#
#######################################################################
#
# If this CIF has been generated from an entry in the Cambridge 
# Structural Database, then it will include bibliographic, chemical, 
# crystal, experimental, refinement or atomic coordinate data resulting 
# from the CCDC's data processing and validation procedures.
#
#######################################################################

data_BIYTEJ
_chemical_formula_moiety         '(C6 H2 N10 Zn1)n'
_chemical_name_systematic        
catena-((\m~3~-2,3-bis(1H-Tetrazol-5-yl)pyrazine-N,N',N'',N''',N'''')-zinc)
_symmetry_cell_setting           hexagonal
_symmetry_space_group_name_H-M   'P 61'
_symmetry_Int_Tables_number      169
_space_group_name_Hall           'P 61'
loop_
_symmetry_equiv_pos_site_id
_symmetry_equiv_pos_as_xyz
1 x,y,z
2 -y,x-y,1/3+z
3 -x+y,-x,2/3+z
4 -x,-y,1/2+z
5 y,-x+y,5/6+z
6 x-y,x,1/6+z
_cell_length_a                   14.163(2)
_cell_length_b                   14.163(2)
_cell_length_c                   11.568(2)
_cell_angle_alpha                90
_cell_angle_beta                 90
_cell_angle_gamma                120
_cell_volume                     2009.55
_exptl_crystal_description       Needle
_cell_formula_units_Z            6
loop_
_atom_site_label
_atom_site_type_symbol
_atom_site_fract_x
_atom_site_fract_y
_atom_site_fract_z
_atom_site_U_iso_or_equiv
_atom_site_thermal_displace_type
Zn1 Zn 0.68099(4) 0.53273(4) 0.02883(4) 0.0325 Uani
N1 N 0.7395(3) 0.4943(3) -0.1211(3) 0.0326 Uani
N2 N 0.6788(3) 0.4731(4) -0.2189(4) 0.0514 Uani
N3 N 0.7065(3) 0.4225(4) -0.2926(3) 0.0494 Uani
N4 N 0.7844(3) 0.4075(3) -0.2449(3) 0.0380 Uani
N5 N 0.9205(3) 0.3834(3) -0.1144(4) 0.0501 Uani
N6 N 1.0192(3) 0.4997(4) 0.0841(4) 0.0497 Uani
N7 N 0.8341(3) 0.6028(3) 0.0980(3) 0.0437 Uani
N8 N 0.8644(4) 0.6911(4) 0.1686(4) 0.0619 Uani
N9 N 0.9648(4) 0.7301(4) 0.2002(5) 0.0613 Uani
N10 N 1.0036(3) 0.6686(3) 0.1545(3) 0.0409 Uani
C1 C 0.8033(3) 0.4525(3) -0.1396(4) 0.0311 Uani
C2 C 0.8874(3) 0.4491(4) -0.0684(4) 0.0331 Uani
C3 C 0.9389(3) 0.5087(4) 0.0322(4) 0.0357 Uani
C4 C 0.9221(3) 0.5917(4) 0.0913(4) 0.0344 Uani
C5 C 0.9996(5) 0.3742(5) -0.0621(6) 0.0656 Uani
H1 H 1.0232 0.3290 -0.0932 0.0790 Uiso
C6 C 1.0470(5) 0.4325(5) 0.0395(6) 0.0652 Uani
H2 H 1.1001 0.4230 0.0763 0.0780 Uiso
Zn1B Zn 0.85174(6) 0.31901(4) -0.30450(4) 0.0325 Uani
Zn1E Zn 1.14826(6) 0.68099(4) 0.19550(4) 0.0325 Uani
N4A N 0.5925(3) 0.3769(4) 0.0884(3) 0.0380 Uani
N5A N 0.6166(3) 0.5371(4) 0.2189(4) 0.0501 Uani
N10D N 0.6686(3) 0.6650(4) -0.0122(3) 0.0409 Uani
loop_
_atom_site_aniso_label
_atom_site_aniso_U_11
_atom_site_aniso_U_22
_atom_site_aniso_U_33
_atom_site_aniso_U_23
_atom_site_aniso_U_13
_atom_site_aniso_U_12
Zn1 0.0329(3) 0.0357(3) 0.0340(3) 0.0018(2) 0.0015(2) 0.0209(2)
N1 0.0334(18) 0.046(2) 0.0261(18) -0.0005(16) -0.0016(15) 0.0257(17)
N2 0.055(3) 0.084(3) 0.033(2) -0.005(2) -0.0056(19) 0.048(3)
N3 0.049(2) 0.075(3) 0.035(2) -0.004(2) -0.009(2) 0.039(2)
N4 0.030(2) 0.050(2) 0.033(2) -0.0027(17) -0.0029(16) 0.0192(18)
N5 0.046(2) 0.058(3) 0.057(3) -0.026(2) -0.022(2) 0.034(2)
N6 0.044(2) 0.068(3) 0.053(2) -0.020(2) -0.018(2) 0.040(2)
N7 0.038(2) 0.057(3) 0.043(2) -0.012(2) -0.0077(18) 0.029(2)
N8 0.063(3) 0.091(4) 0.055(3) -0.040(3) -0.025(2) 0.056(3)
N9 0.061(3) 0.069(3) 0.072(3) -0.037(3) -0.030(3) 0.046(2)
N10 0.032(2) 0.045(2) 0.045(2) -0.0182(18) -0.0119(17) 0.0187(19)
C1 0.0261(19) 0.033(2) 0.028(2) 0.000(2) 0.0050(19) 0.0102(17)
C2 0.029(2) 0.039(2) 0.034(2) -0.0066(19) -0.0001(19) 0.019(2)
C3 0.032(2) 0.042(2) 0.038(2) -0.008(2) -0.012(2) 0.0221(19)
C4 0.029(2) 0.051(3) 0.030(2) -0.0055(19) -0.0047(18) 0.025(2)
C5 0.061(4) 0.081(4) 0.078(4) -0.033(3) -0.023(3) 0.053(3)
C6 0.062(3) 0.087(4) 0.073(4) -0.030(4) -0.037(3) 0.057(3)
Zn1B 0.0268 0.0329 0.034 -0.0015 0.0003 0.012
Zn1E 0.0268 0.0329 0.034 0.0015 -0.0003 0.012
N4A 0.05 0.0416 0.033 -0.0002 0.0027 0.0308
N5A 0.058 0.036 0.057 0.004 0.026 0.024
N10D 0.045 0.0396 0.045 -0.0063 -0.0182 0.0263
loop_
_geom_bond_atom_site_label_1
_geom_bond_atom_site_label_2
_geom_bond_site_symmetry_1
_geom_bond_site_symmetry_2
Zn1 N1 1_555 1_555
N1 N2 1_555 1_555
N2 N3 1_555 1_555
N3 N4 1_555 1_555
N4 C1 1_555 1_555
N5 C2 1_555 1_555
N6 C3 1_555 1_555
N7 Zn1 1_555 1_555
N8 N7 1_555 1_555
N9 N8 1_555 1_555
N10 N9 1_555 1_555
C1 N1 1_555 1_555
C2 C1 1_555 1_555
C3 C2 1_555 1_555
C4 N7 1_555 1_555
C5 N5 1_555 1_555
H1 C5 1_555 1_555
C6 N6 1_555 1_555
H2 C6 1_555 1_555
Zn1B N4 1_555 1_555
Zn1E N10 1_555 1_555
N4A Zn1 1_555 1_555
N5A Zn1 1_555 1_555
N10D Zn1 1_555 1_555
N5 Zn1B 1_555 1_555
N10 C4 1_555 1_555
C3 C4 1_555 1_555
C5 C6 1_555 1_555

#END
