
#######################################################################
#
#                 Cambridge Crystallographic Data Centre
#                                CCDC 
#
#######################################################################
#
# If this CIF has been generated from an entry in the Cambridge 
# Structural Database, then it will include bibliographic, chemical, 
# crystal, experimental, refinement or atomic coordinate data resulting 
# from the CCDC's data processing and validation procedures.
#
#######################################################################

data_QUPZAE
_chemical_formula_moiety         '(C12 H8 Co1 N4)n'
_chemical_name_systematic        
catena-[(\m-4,4'-(1,4-phenylene)bis(pyrazolato))-cobalt]
_symmetry_cell_setting           monoclinic
_symmetry_space_group_name_H-M   'C 2/c'
_symmetry_Int_Tables_number      15
_space_group_name_Hall           '-C 2yc'
loop_
_symmetry_equiv_pos_site_id
_symmetry_equiv_pos_as_xyz
1 x,y,z
2 -x,y,1/2-z
3 1/2-x,1/2+y,1/2-z
4 1/2+x,1/2+y,z
5 -x,-y,-z
6 x,-y,1/2+z
7 1/2+x,1/2-y,1/2+z
8 1/2-x,1/2-y,-z
_cell_length_a                   24.82742(61)
_cell_length_b                   6.67473(39)
_cell_length_c                   7.14557(28)
_cell_angle_alpha                90
_cell_angle_beta                 92.5496(18)
_cell_angle_gamma                90
_cell_volume                     1182.97
_exptl_crystal_colour            purple
_cell_formula_units_Z            4
loop_
_atom_site_label
_atom_site_type_symbol
_atom_site_fract_x
_atom_site_fract_y
_atom_site_fract_z
_atom_site_U_iso_or_equiv
_atom_site_thermal_displace_type
C1 C 0.392948 0.873111 -0.161103 0.0273 Uiso
C2 C 0.401017 0.733657 0.117784 0.0273 Uiso
C3 C 0.365077 0.786982 -0.022607 0.0273 Uiso
C4 C 0.305209 0.756205 -0.024386 0.0273 Uiso
C5 C 0.215844 0.880997 -0.099148 0.0273 Uiso
C6 C 0.271053 0.887201 -0.123534 0.0273 Uiso
N1 N 0.446113 0.873016 -0.106307 0.0273 Uiso
N2 N 0.451100 0.786829 0.066054 0.0273 Uiso
H1 H 0.377918 0.924345 -0.275958 0.0273 Uiso
H2 H 0.392613 0.670375 0.231943 0.0273 Uiso
H3 H 0.192501 0.970527 -0.166911 0.0273 Uiso
H4 H 0.285441 0.980972 -0.207963 0.0273 Uiso
Co1 Co 0.500 1.04135(25) -0.25 0.0273 Uiso
C1G C 0.107052 0.626889 0.161103 0.0273 Uiso
C2G C 0.098983 0.766343 -0.117784 0.0273 Uiso
C3G C 0.134923 0.713018 0.022607 0.0273 Uiso
C4G C 0.194791 0.743795 0.024386 0.0273 Uiso
C5G C 0.284156 0.619003 0.099148 0.0273 Uiso
C6G C 0.228947 0.612799 0.123534 0.0273 Uiso
N1G N 0.053887 0.626984 0.106307 0.0273 Uiso
N2G N 0.048900 0.713171 -0.066054 0.0273 Uiso
H1G H 0.122082 0.575655 0.275958 0.0273 Uiso
H2G H 0.107387 0.829625 -0.231943 0.0273 Uiso
H3G H 0.307499 0.529473 0.166911 0.0273 Uiso
H4G H 0.214559 0.519028 0.207963 0.0273 Uiso
N1A N 0.553887 0.873016 -0.393693 0.0273 Uiso
N2D N 0.548900 1.213171 -0.066054 0.0273 Uiso
N2E N 0.451100 1.213171 -0.433946 0.0273 Uiso
Co1D Co 0.500 0.95865(25) 0.25 0.0273 Uiso
Co1G Co 0.000 0.45865(25) 0.25 0.0273 Uiso
Co1B Co 0.000 0.54135(25) -0.25 0.0273 Uiso
loop_
_geom_bond_atom_site_label_1
_geom_bond_atom_site_label_2
_geom_bond_site_symmetry_1
_geom_bond_site_symmetry_2
C1 C3 1_555 1_555
C2 C3 1_555 1_555
C3 C4 1_555 1_555
C4 C6 1_555 1_555
C5 C6 1_555 1_555
C6 H4 1_555 1_555
N1 C1 1_555 1_555
N2 C2 1_555 1_555
H1 C1 1_555 1_555
H2 C2 1_555 1_555
H3 C5 1_555 1_555
Co1 N1 1_555 1_555
C1G C3G 1_555 1_555
C2G C3G 1_555 1_555
C3G C4G 1_555 1_555
C4G C5 1_555 1_555
C5G C4 1_555 1_555
C6G C4G 1_555 1_555
N1G C1G 1_555 1_555
N2G C2G 1_555 1_555
H1G C1G 1_555 1_555
H2G C2G 1_555 1_555
H3G C5G 1_555 1_555
H4G C6G 1_555 1_555
N1A Co1 1_555 1_555
N2D Co1 1_555 1_555
N2E Co1 1_555 1_555
Co1D N2 1_555 1_555
Co1G N1G 1_555 1_555
Co1B N2G 1_555 1_555
N1 N2 1_555 1_555
C5G C6G 1_555 1_555
N1G N2G 1_555 1_555

#END
