
#######################################################################
#
#                 Cambridge Crystallographic Data Centre
#                                CCDC 
#
#######################################################################
#
# If this CIF has been generated from an entry in the Cambridge 
# Structural Database, then it will include bibliographic, chemical, 
# crystal, experimental, refinement or atomic coordinate data resulting 
# from the CCDC's data processing and validation procedures.
#
#######################################################################

data_QUQBEL
_chemical_formula_moiety         '(C24 H16 Fe2 N8)n'
_chemical_name_systematic        
"catena-[bis(\m-4,4'-(1,4-phenylene)bis(pyrazolato))-di-iron unknown solvate]"
_symmetry_cell_setting           orthorhombic
_symmetry_space_group_name_H-M   'C 2 2 21'
_symmetry_Int_Tables_number      20
_space_group_name_Hall           'C 2c 2'
loop_
_symmetry_equiv_pos_site_id
_symmetry_equiv_pos_as_xyz
1 x,y,z
2 -x,-y,1/2+z
3 x,-y,-z
4 -x,y,1/2-z
5 1/2+x,1/2+y,z
6 1/2-x,1/2-y,1/2+z
7 1/2+x,1/2-y,-z
8 1/2-x,1/2+y,1/2-z
_cell_length_a                   17.3648(10)
_cell_length_b                   20.4338(11)
_cell_length_c                   14.0029(8)
_cell_angle_alpha                90
_cell_angle_beta                 90
_cell_angle_gamma                90
_cell_volume                     4968.63
_exptl_crystal_colour            yellow
_exptl_crystal_description       block
_cell_formula_units_Z            4
loop_
_atom_site_label
_atom_site_type_symbol
_atom_site_fract_x
_atom_site_fract_y
_atom_site_fract_z
Fe1 Fe 0.02040(5) 0.0000 0.5000
Fe2 Fe 0.0000 0.01316(4) 0.7500
N1 N -0.0480(3) -0.0590(2) 0.5770(3)
N2 N -0.0643(3) -0.0487(2) 0.6703(3)
N3 N -0.4143(3) -0.4395(2) 0.5800(3)
N4 N -0.4314(3) -0.4274(2) 0.6739(3)
C1 C -0.0902(4) -0.1121(3) 0.5508(4)
H1 H -0.0869 -0.1325 0.4899
C2 C -0.1367(4) -0.1322(3) 0.6201(5)
C3 C -0.1178(4) -0.0916(3) 0.6956(5)
H2 H -0.1402 -0.0941 0.7574
C4 C -0.1879(4) -0.1905(3) 0.6239(6)
C5 C -0.1948(6) -0.2303(4) 0.5468(6)
H3 H -0.1637 -0.2225 0.4922
C6 C -0.2496(6) -0.2854(4) 0.5461(6)
H4 H -0.2543 -0.3123 0.4911
C7 C -0.2923(4) -0.2969(3) 0.6224(5)
C8 C -0.2804(5) -0.2570(3) 0.7047(5)
H5 H -0.3092 -0.2655 0.7611
C9 C -0.2298(5) -0.2083(4) 0.7041(5)
H6 H -0.2219 -0.1845 0.7615
C10 C -0.3640(4) -0.3945(3) 0.5505(5)
H7 H -0.3446 -0.3910 0.4873
C11 C -0.3441(3) -0.3529(3) 0.6267(5)
C12 C -0.3874(4) -0.3776(3) 0.6990(4)
H8 H -0.3860 -0.3606 0.7622
N1B N -0.0480(3) 0.0590(2) 0.4230(3)
N2B N -0.0643(3) 0.0487(2) 0.3297(3)
N3B N -0.4143(3) 0.4395(2) 0.4200(3)
N4B N -0.4314(3) 0.4274(2) 0.3261(3)
C1B C -0.0902(4) 0.1121(3) 0.4492(4)
H1B H -0.0869 0.1325 0.5101
C2B C -0.1367(4) 0.1322(3) 0.3799(5)
C3B C -0.1178(4) 0.0916(3) 0.3044(5)
H2B H -0.1402 0.0941 0.2426
C4B C -0.1879(4) 0.1905(3) 0.3761(6)
C5B C -0.1948(6) 0.2303(4) 0.4532(6)
H3B H -0.1637 0.2225 0.5078
C6B C -0.2496(6) 0.2854(4) 0.4539(6)
H4B H -0.2543 0.3123 0.5089
C7B C -0.2923(4) 0.2969(3) 0.3776(5)
C8B C -0.2804(5) 0.2570(3) 0.2953(5)
H5B H -0.3092 0.2655 0.2389
C9B C -0.2298(5) 0.2083(4) 0.2959(5)
H6B H -0.2219 0.1845 0.2385
C10B C -0.3640(4) 0.3945(3) 0.4495(5)
H7B H -0.3446 0.3910 0.5127
C11B C -0.3441(3) 0.3529(3) 0.3733(5)
C12B C -0.3874(4) 0.3776(3) 0.3010(4)
H8B H -0.3860 0.3606 0.2378
Fe1D Fe -0.47960(5) -0.5000 0.5000
Fe1D_2 Fe -0.47960(5) 0.5000 0.5000
Fe2A Fe 0.0000 -0.01316(4) 0.2500
Fe2D Fe -0.5000 -0.48684(4) 0.7500
Fe2E Fe -0.5000 0.48684(4) 0.2500
N2C N 0.0643(3) -0.0487(2) 0.8297(3)
N3D N 0.0857(3) 0.0605(2) 0.5800(3)
N3F N 0.0857(3) -0.0605(2) 0.4200(3)
N4D N 0.0686(3) 0.0726(2) 0.6739(3)
N4G N -0.0686(3) 0.0726(2) 0.8261(3)
loop_
_geom_bond_atom_site_label_1
_geom_bond_atom_site_label_2
_geom_bond_site_symmetry_1
_geom_bond_site_symmetry_2
Fe1 N1 1_555 1_555
Fe2 N2 1_555 1_555
N1 N2 1_555 1_555
N2 C3 1_555 1_555
N3 N4 1_555 1_555
N4 C12 1_555 1_555
C1 N1 1_555 1_555
H1 C1 1_555 1_555
C2 C1 1_555 1_555
C3 C2 1_555 1_555
H2 C3 1_555 1_555
C4 C2 1_555 1_555
C5 C4 1_555 1_555
H3 C5 1_555 1_555
C6 C5 1_555 1_555
H4 C6 1_555 1_555
C7 C6 1_555 1_555
C8 C7 1_555 1_555
H5 C8 1_555 1_555
C9 C4 1_555 1_555
H6 C9 1_555 1_555
C10 N3 1_555 1_555
H7 C10 1_555 1_555
C11 C7 1_555 1_555
C12 C11 1_555 1_555
H8 C12 1_555 1_555
N1B Fe1 1_555 1_555
N2B N1B 1_555 1_555
N3B N4B 1_555 1_555
N4B C12B 1_555 1_555
C1B N1B 1_555 1_555
H1B C1B 1_555 1_555
C2B C1B 1_555 1_555
C3B N2B 1_555 1_555
H2B C3B 1_555 1_555
C4B C2B 1_555 1_555
C5B C4B 1_555 1_555
H3B C5B 1_555 1_555
C6B C5B 1_555 1_555
H4B C6B 1_555 1_555
C7B C6B 1_555 1_555
C8B C7B 1_555 1_555
H5B C8B 1_555 1_555
C9B C4B 1_555 1_555
H6B C9B 1_555 1_555
C10B N3B 1_555 1_555
H7B C10B 1_555 1_555
C11B C7B 1_555 1_555
C12B C11B 1_555 1_555
H8B C12B 1_555 1_555
Fe1D N3 1_555 1_555
Fe1D_2 N3B 1_555 1_555
Fe2A N2B 1_555 1_555
Fe2D N4 1_555 1_555
Fe2E N4B 1_555 1_555
N2C Fe2 1_555 1_555
N3D Fe1 1_555 1_555
N3F Fe1 1_555 1_555
N4D Fe2 1_555 1_555
N4G Fe2 1_555 1_555
C8 C9 1_555 1_555
C10 C11 1_555 1_555
C2B C3B 1_555 1_555
C8B C9B 1_555 1_555
C10B C11B 1_555 1_555
N3D N4D 1_555 1_555

#END
