
#######################################################################
#
#                 Cambridge Crystallographic Data Centre
#                                CCDC 
#
#######################################################################
#
# If this CIF has been generated from an entry in the Cambridge 
# Structural Database, then it will include bibliographic, chemical, 
# crystal, experimental, refinement or atomic coordinate data resulting 
# from the CCDC's data processing and validation procedures.
#
#######################################################################

data_SERBUO
_chemical_formula_moiety         '(C36 H18 O19 Zn4)n'
_chemical_name_systematic        
catena-[tris(\m~4~-4,8-Dihydroxynaphthalene-2,6-dicarboxylato)-(\m~4~-oxo)-tetra-zinc(ii)]
_symmetry_cell_setting           cubic
_symmetry_space_group_name_H-M   'F m -3 m'
_symmetry_Int_Tables_number      225
_space_group_name_Hall           '-F 4 2 3'
loop_
_symmetry_equiv_pos_site_id
_symmetry_equiv_pos_as_xyz
1 x,y,z
2 -x,-y,z
3 -x,y,-z
4 x,-y,-z
5 z,x,y
6 z,-x,-y
7 -z,-x,y
8 -z,x,-y
9 y,z,x
10 -y,z,-x
11 y,-z,-x
12 -y,-z,x
13 y,x,-z
14 -y,-x,-z
15 y,-x,z
16 -y,x,z
17 x,z,-y
18 -x,z,y
19 -x,-z,-y
20 x,-z,y
21 z,y,-x
22 z,-y,x
23 -z,y,x
24 -z,-y,-x
25 x,1/2+y,1/2+z
26 -x,1/2-y,1/2+z
27 -x,1/2+y,1/2-z
28 x,1/2-y,1/2-z
29 z,1/2+x,1/2+y
30 z,1/2-x,1/2-y
31 -z,1/2-x,1/2+y
32 -z,1/2+x,1/2-y
33 y,1/2+z,1/2+x
34 -y,1/2+z,1/2-x
35 y,1/2-z,1/2-x
36 -y,1/2-z,1/2+x
37 y,1/2+x,1/2-z
38 -y,1/2-x,1/2-z
39 y,1/2-x,1/2+z
40 -y,1/2+x,1/2+z
41 x,1/2+z,1/2-y
42 -x,1/2+z,1/2+y
43 -x,1/2-z,1/2-y
44 x,1/2-z,1/2+y
45 z,1/2+y,1/2-x
46 z,1/2-y,1/2+x
47 -z,1/2+y,1/2+x
48 -z,1/2-y,1/2-x
49 1/2+x,y,1/2+z
50 1/2-x,-y,1/2+z
51 1/2-x,y,1/2-z
52 1/2+x,-y,1/2-z
53 1/2+z,x,1/2+y
54 1/2+z,-x,1/2-y
55 1/2-z,-x,1/2+y
56 1/2-z,x,1/2-y
57 1/2+y,z,1/2+x
58 1/2-y,z,1/2-x
59 1/2+y,-z,1/2-x
60 1/2-y,-z,1/2+x
61 1/2+y,x,1/2-z
62 1/2-y,-x,1/2-z
63 1/2+y,-x,1/2+z
64 1/2-y,x,1/2+z
65 1/2+x,z,1/2-y
66 1/2-x,z,1/2+y
67 1/2-x,-z,1/2-y
68 1/2+x,-z,1/2+y
69 1/2+z,y,1/2-x
70 1/2+z,-y,1/2+x
71 1/2-z,y,1/2+x
72 1/2-z,-y,1/2-x
73 1/2+x,1/2+y,z
74 1/2-x,1/2-y,z
75 1/2-x,1/2+y,-z
76 1/2+x,1/2-y,-z
77 1/2+z,1/2+x,y
78 1/2+z,1/2-x,-y
79 1/2-z,1/2-x,y
80 1/2-z,1/2+x,-y
81 1/2+y,1/2+z,x
82 1/2-y,1/2+z,-x
83 1/2+y,1/2-z,-x
84 1/2-y,1/2-z,x
85 1/2+y,1/2+x,-z
86 1/2-y,1/2-x,-z
87 1/2+y,1/2-x,z
88 1/2-y,1/2+x,z
89 1/2+x,1/2+z,-y
90 1/2-x,1/2+z,y
91 1/2-x,1/2-z,-y
92 1/2+x,1/2-z,y
93 1/2+z,1/2+y,-x
94 1/2+z,1/2-y,x
95 1/2-z,1/2+y,x
96 1/2-z,1/2-y,-x
97 -x,-y,-z
98 x,y,-z
99 x,-y,z
100 -x,y,z
101 -z,-x,-y
102 -z,x,y
103 z,x,-y
104 z,-x,y
105 -y,-z,-x
106 y,-z,x
107 -y,z,x
108 y,z,-x
109 -y,-x,z
110 y,x,z
111 -y,x,-z
112 y,-x,-z
113 -x,-z,y
114 x,-z,-y
115 x,z,y
116 -x,z,-y
117 -z,-y,x
118 -z,y,-x
119 z,-y,-x
120 z,y,x
121 -x,1/2-y,1/2-z
122 x,1/2+y,1/2-z
123 x,1/2-y,1/2+z
124 -x,1/2+y,1/2+z
125 -z,1/2-x,1/2-y
126 -z,1/2+x,1/2+y
127 z,1/2+x,1/2-y
128 z,1/2-x,1/2+y
129 -y,1/2-z,1/2-x
130 y,1/2-z,1/2+x
131 -y,1/2+z,1/2+x
132 y,1/2+z,1/2-x
133 -y,1/2-x,1/2+z
134 y,1/2+x,1/2+z
135 -y,1/2+x,1/2-z
136 y,1/2-x,1/2-z
137 -x,1/2-z,1/2+y
138 x,1/2-z,1/2-y
139 x,1/2+z,1/2+y
140 -x,1/2+z,1/2-y
141 -z,1/2-y,1/2+x
142 -z,1/2+y,1/2-x
143 z,1/2-y,1/2-x
144 z,1/2+y,1/2+x
145 1/2-x,-y,1/2-z
146 1/2+x,y,1/2-z
147 1/2+x,-y,1/2+z
148 1/2-x,y,1/2+z
149 1/2-z,-x,1/2-y
150 1/2-z,x,1/2+y
151 1/2+z,x,1/2-y
152 1/2+z,-x,1/2+y
153 1/2-y,-z,1/2-x
154 1/2+y,-z,1/2+x
155 1/2-y,z,1/2+x
156 1/2+y,z,1/2-x
157 1/2-y,-x,1/2+z
158 1/2+y,x,1/2+z
159 1/2-y,x,1/2-z
160 1/2+y,-x,1/2-z
161 1/2-x,-z,1/2+y
162 1/2+x,-z,1/2-y
163 1/2+x,z,1/2+y
164 1/2-x,z,1/2-y
165 1/2-z,-y,1/2+x
166 1/2-z,y,1/2-x
167 1/2+z,-y,1/2-x
168 1/2+z,y,1/2+x
169 1/2-x,1/2-y,-z
170 1/2+x,1/2+y,-z
171 1/2+x,1/2-y,z
172 1/2-x,1/2+y,z
173 1/2-z,1/2-x,-y
174 1/2-z,1/2+x,y
175 1/2+z,1/2+x,-y
176 1/2+z,1/2-x,y
177 1/2-y,1/2-z,-x
178 1/2+y,1/2-z,x
179 1/2-y,1/2+z,x
180 1/2+y,1/2+z,-x
181 1/2-y,1/2-x,z
182 1/2+y,1/2+x,z
183 1/2-y,1/2+x,-z
184 1/2+y,1/2-x,-z
185 1/2-x,1/2-z,y
186 1/2+x,1/2-z,-y
187 1/2+x,1/2+z,y
188 1/2-x,1/2+z,-y
189 1/2-z,1/2-y,x
190 1/2-z,1/2+y,-x
191 1/2+z,1/2-y,-x
192 1/2+z,1/2+y,x
_cell_length_a                   30.174(2)
_cell_length_b                   30.174(2)
_cell_length_c                   30.174(2)
_cell_angle_alpha                90
_cell_angle_beta                 90
_cell_angle_gamma                90
_cell_volume                     27472.5
_exptl_crystal_colour            'dark orange'
_exptl_crystal_description       cube
_cell_formula_units_Z            8
loop_
_atom_site_label
_atom_site_type_symbol
_atom_site_fract_x
_atom_site_fract_y
_atom_site_fract_z
_atom_site_U_iso_or_equiv
_atom_site_thermal_displace_type
Zn1 Zn 0.21303(3) 0.21303(3) 0.21303(3) 0.0566 Uani
O1 O 0.2500 0.2500 0.2500 0.0410 Uani
O2 O 0.2238(2) 0.2238(2) 0.1505(2) 0.1013 Uani
C1 C 0.2500 0.2500 0.1308(4) 0.1070 Uani
C2 C 0.2500 0.2500 0.0817(5) 0.1143 Uani
C3 C 0.2175(4) 0.2175(4) 0.0652(5) 0.0773 Uani
H1 H 0.1993 0.1993 0.0821 0.0930 Uiso
C4 C 0.2115 0.2115 0.0182 0.1530 Uani
O3 O 0.1780 0.1780 0.0000 0.1600 Uani
C5 C 0.2687 0.2687 0.0524 0.1500 Uani
O2L O 0.2238(2) 0.2238(2) -0.1505(2) 0.1013 Uani
C1L C 0.2500 0.2500 -0.1308(4) 0.1070 Uani
C2L C 0.2500 0.2500 -0.0817(5) 0.1143 Uani
C3L C 0.2175(4) 0.2175(4) -0.0652(5) 0.0773 Uani
H1L H 0.1993 0.1993 -0.0821 0.0930 Uiso
C4L C 0.2115 0.2115 -0.0182 0.1530 Uani
C5L C 0.2687 0.2687 -0.0524 0.1500 Uani
O2UB O 0.2762(2) 0.2762(2) 0.1505(2) 0.1013 Uani
C3UB C 0.2825(4) 0.2825(4) 0.0652(5) 0.0773 Uani
H1UB H 0.3007 0.3007 0.0821 0.0930 Uiso
C4UB C 0.2885 0.2885 0.0182 0.1530 Uani
O3UB O 0.3220 0.3220 0.0000 0.1600 Uani
C5UB C 0.2313 0.2313 0.0524 0.1500 Uani
O2GC O 0.2762(2) 0.2762(2) -0.1505(2) 0.1013 Uani
C3GC C 0.2825(4) 0.2825(4) -0.0652(5) 0.0773 Uani
H1GC H 0.3007 0.3007 -0.0821 0.0930 Uiso
C4GC C 0.2885 0.2885 -0.0182 0.1530 Uani
C5GC C 0.2313 0.2313 -0.0524 0.1500 Uani
O2D O 0.1505(2) 0.2238(2) 0.2238(2) 0.1013 Uani
C1D C 0.1308(4) 0.2500 0.2500 0.1070 Uani
C2D C 0.0817(5) 0.2500 0.2500 0.1143 Uani
C3D C 0.0652(5) 0.2175(4) 0.2175(4) 0.0773 Uani
H1D H 0.0821 0.1993 0.1993 0.0930 Uiso
C4D C 0.0182 0.2115 0.2115 0.1530 Uani
O3D O 0.0000 0.1780 0.1780 0.1600 Uani
C5D C 0.0524 0.2687 0.2687 0.1500 Uani
O2V O -0.1505(2) 0.2238(2) 0.2238(2) 0.1013 Uani
C1V C -0.1308(4) 0.2500 0.2500 0.1070 Uani
C2V C -0.0817(5) 0.2500 0.2500 0.1143 Uani
C3V C -0.0652(5) 0.2175(4) 0.2175(4) 0.0773 Uani
H1V H -0.0821 0.1993 0.1993 0.0930 Uiso
C4V C -0.0182 0.2115 0.2115 0.1530 Uani
C5V C -0.0524 0.2687 0.2687 0.1500 Uani
O2CA O 0.1505(2) 0.2762(2) 0.2762(2) 0.1013 Uani
C3CA C 0.0652(5) 0.2825(4) 0.2825(4) 0.0773 Uani
H1CA H 0.0821 0.3007 0.3007 0.0930 Uiso
C4CA C 0.0182 0.2885 0.2885 0.1530 Uani
O3CA O 0.0000 0.3220 0.3220 0.1600 Uani
C5CA C 0.0524 0.2313 0.2313 0.1500 Uani
O2UA O -0.1505(2) 0.2762(2) 0.2762(2) 0.1013 Uani
C3UA C -0.0652(5) 0.2825(4) 0.2825(4) 0.0773 Uani
H1UA H -0.0821 0.3007 0.3007 0.0930 Uiso
C4UA C -0.0182 0.2885 0.2885 0.1530 Uani
C5UA C -0.0524 0.2313 0.2313 0.1500 Uani
O2H O 0.2238(2) 0.1505(2) 0.2238(2) 0.1013 Uani
C1H C 0.2500 0.1308(4) 0.2500 0.1070 Uani
C2H C 0.2500 0.0817(5) 0.2500 0.1143 Uani
C3H C 0.2175(4) 0.0652(5) 0.2175(4) 0.0773 Uani
H1H H 0.1993 0.0821 0.1993 0.0930 Uiso
C4H C 0.2115 0.0182 0.2115 0.1530 Uani
O3H O 0.1780 0.0000 0.1780 0.1600 Uani
C5H C 0.2687 0.0524 0.2687 0.1500 Uani
O2S O 0.2238(2) -0.1505(2) 0.2238(2) 0.1013 Uani
C1S C 0.2500 -0.1308(4) 0.2500 0.1070 Uani
C2S C 0.2500 -0.0817(5) 0.2500 0.1143 Uani
C3S C 0.2175(4) -0.0652(5) 0.2175(4) 0.0773 Uani
H1S H 0.1993 -0.0821 0.1993 0.0930 Uiso
C4S C 0.2115 -0.0182 0.2115 0.1530 Uani
C5S C 0.2687 -0.0524 0.2687 0.1500 Uani
O2EB O 0.2762(2) 0.1505(2) 0.2762(2) 0.1013 Uani
C3EB C 0.2825(4) 0.0652(5) 0.2825(4) 0.0773 Uani
H1EB H 0.3007 0.0821 0.3007 0.0930 Uiso
C4EB C 0.2885 0.0182 0.2885 0.1530 Uani
O3EB O 0.3220 0.0000 0.3220 0.1600 Uani
C5EB C 0.2313 0.0524 0.2313 0.1500 Uani
O2NB O 0.2762(2) -0.1505(2) 0.2762(2) 0.1013 Uani
C3NB C 0.2825(4) -0.0652(5) 0.2825(4) 0.0773 Uani
H1NB H 0.3007 -0.0821 0.3007 0.0930 Uiso
C4NB C 0.2885 -0.0182 0.2885 0.1530 Uani
C5NB C 0.2313 -0.0524 0.2313 0.1500 Uani
Zn1L Zn 0.21303(3) 0.21303(3) -0.21303(3) 0.0566 Uani
Zn1N Zn 0.21303(3) -0.21303(3) 0.21303(3) 0.0566 Uani
Zn1O Zn -0.21303(3) 0.21303(3) 0.21303(3) 0.0566 Uani
Zn1AA Zn 0.21303(3) 0.28697(3) 0.28697(3) 0.0566 Uani
Zn1KA Zn -0.21303(3) 0.28697(3) 0.28697(3) 0.0566 Uani
Zn1XA Zn 0.28697(3) 0.21303(3) 0.28697(3) 0.0566 Uani
Zn1IB Zn 0.28697(3) -0.21303(3) 0.28697(3) 0.0566 Uani
Zn1UB Zn 0.28697(3) 0.28697(3) 0.21303(3) 0.0566 Uani
Zn1GC Zn 0.28697(3) 0.28697(3) -0.21303(3) 0.0566 Uani
O1L O 0.2500 0.2500 -0.2500 0.0410 Uani
O1N O 0.2500 -0.2500 0.2500 0.0410 Uani
O1O O -0.2500 0.2500 0.2500 0.0410 Uani
O2N O 0.2238(2) -0.2238(2) 0.1505(2) 0.1013 Uani
O2O O -0.2238(2) 0.2238(2) 0.1505(2) 0.1013 Uani
O2P O 0.2238(2) 0.1505(2) -0.2238(2) 0.1013 Uani
O2Q O -0.2238(2) 0.1505(2) 0.2238(2) 0.1013 Uani
O2T O 0.1505(2) 0.2238(2) -0.2238(2) 0.1013 Uani
O2U O 0.1505(2) -0.2238(2) 0.2238(2) 0.1013 Uani
C6? C 0.2366(3) 0.2366(3) 0.0109(4) 0.0830 Uani
loop_
_atom_site_aniso_label
_atom_site_aniso_U_11
_atom_site_aniso_U_22
_atom_site_aniso_U_33
_atom_site_aniso_U_23
_atom_site_aniso_U_13
_atom_site_aniso_U_12
Zn1 0.0566(8) 0.0566(8) 0.0566(8) -0.0135(5) -0.0135(5) -0.0135(5)
O1 0.041(5) 0.041(5) 0.041(5) 0.000 0.000 0.000
O2 0.133(5) 0.133(5) 0.038(5) 0.001(3) 0.001(3) 0.000(6)
C1 0.155(12) 0.155(12) 0.011(8) 0.000 0.000 0.017(16)
C2 0.127(10) 0.127(10) 0.089(14) 0.000 0.000 -0.013(15)
C3 0.100(11) 0.100(11) 0.032(10) -0.007(9) -0.007(9) 0.052(14)
C4 0.153 0.153 0.153 0.000 0.000 0.000
O3 0.160 0.160 0.160 0.000 0.000 0.000
C5 0.15 0.15 0.15 0 0 0
O2L 0.133 0.133 0.038 -0.001 -0.001 0
C1L 0.155 0.155 0.011 0 0 0.017
C2L 0.127 0.127 0.089 0 0 -0.013
C3L 0.1 0.1 0.032 0.007 0.007 0.052
C4L 0.153 0.153 0.153 0 0 0
C5L 0.15 0.15 0.15 0 0 0
O2UB 0.133 0.133 0.038 -0.001 -0.001 0
C3UB 0.1 0.1 0.032 0.007 0.007 0.052
C4UB 0.153 0.153 0.153 0 0 0
O3UB 0.16 0.16 0.16 0 0 0
C5UB 0.15 0.15 0.15 0 0 0
O2GC 0.133 0.133 0.038 0.001 0.001 0
C3GC 0.1 0.1 0.032 -0.007 -0.007 0.052
C4GC 0.153 0.153 0.153 0 0 0
C5GC 0.15 0.15 0.15 0 0 0
O2D 0.038 0.133 0.133 0 0.001 0.001
C1D 0.011 0.155 0.155 0.017 0 0
C2D 0.089 0.127 0.127 -0.013 0 0
C3D 0.032 0.1 0.1 0.052 -0.007 -0.007
C4D 0.153 0.153 0.153 0 0 0
O3D 0.16 0.16 0.16 0 0 0
C5D 0.15 0.15 0.15 0 0 0
O2V 0.038 0.133 0.133 0 -0.001 -0.001
C1V 0.011 0.155 0.155 0.017 0 0
C2V 0.089 0.127 0.127 -0.013 0 0
C3V 0.032 0.1 0.1 0.052 0.007 0.007
C4V 0.153 0.153 0.153 0 0 0
C5V 0.15 0.15 0.15 0 0 0
O2CA 0.038 0.133 0.133 0 -0.001 -0.001
C3CA 0.032 0.1 0.1 0.052 0.007 0.007
C4CA 0.153 0.153 0.153 0 0 0
O3CA 0.16 0.16 0.16 0 0 0
C5CA 0.15 0.15 0.15 0 0 0
O2UA 0.038 0.133 0.133 0 0.001 0.001
C3UA 0.032 0.1 0.1 0.052 -0.007 -0.007
C4UA 0.153 0.153 0.153 0 0 0
C5UA 0.15 0.15 0.15 0 0 0
O2H 0.133 0.038 0.133 0.001 0 0.001
C1H 0.155 0.011 0.155 0 0.017 0
C2H 0.127 0.089 0.127 0 -0.013 0
C3H 0.1 0.032 0.1 -0.007 0.052 -0.007
C4H 0.153 0.153 0.153 0 0 0
O3H 0.16 0.16 0.16 0 0 0
C5H 0.15 0.15 0.15 0 0 0
O2S 0.133 0.038 0.133 -0.001 0 -0.001
C1S 0.155 0.011 0.155 0 0.017 0
C2S 0.127 0.089 0.127 0 -0.013 0
C3S 0.1 0.032 0.1 0.007 0.052 0.007
C4S 0.153 0.153 0.153 0 0 0
C5S 0.15 0.15 0.15 0 0 0
O2EB 0.133 0.038 0.133 -0.001 0 -0.001
C3EB 0.1 0.032 0.1 0.007 0.052 0.007
C4EB 0.153 0.153 0.153 0 0 0
O3EB 0.16 0.16 0.16 0 0 0
C5EB 0.15 0.15 0.15 0 0 0
O2NB 0.133 0.038 0.133 0.001 0 0.001
C3NB 0.1 0.032 0.1 -0.007 0.052 -0.007
C4NB 0.153 0.153 0.153 0 0 0
C5NB 0.15 0.15 0.15 0 0 0
Zn1L 0.0566 0.0566 0.0566 0.0135 0.0135 -0.0135
Zn1N 0.0566 0.0566 0.0566 0.0135 -0.0135 0.0135
Zn1O 0.0566 0.0566 0.0566 -0.0135 0.0135 0.0135
Zn1AA 0.0566 0.0566 0.0566 -0.0135 0.0135 0.0135
Zn1KA 0.0566 0.0566 0.0566 -0.0135 -0.0135 -0.0135
Zn1XA 0.0566 0.0566 0.0566 0.0135 -0.0135 0.0135
Zn1IB 0.0566 0.0566 0.0566 -0.0135 -0.0135 -0.0135
Zn1UB 0.0566 0.0566 0.0566 0.0135 0.0135 -0.0135
Zn1GC 0.0566 0.0566 0.0566 -0.0135 -0.0135 -0.0135
O1L 0.041 0.041 0.041 0 0 0
O1N 0.041 0.041 0.041 0 0 0
O1O 0.041 0.041 0.041 0 0 0
O2N 0.133 0.133 0.038 -0.001 0.001 0
O2O 0.133 0.133 0.038 0.001 -0.001 0
O2P 0.133 0.038 0.133 -0.001 0 0.001
O2Q 0.133 0.038 0.133 0.001 0 -0.001
O2T 0.038 0.133 0.133 0 -0.001 0.001
O2U 0.038 0.133 0.133 0 0.001 -0.001
C6? 0.121(11) 0.121(11) 0.007(14) 0.010(4) 0.010(4) -0.075(13)
loop_
_geom_bond_atom_site_label_1
_geom_bond_atom_site_label_2
_geom_bond_site_symmetry_1
_geom_bond_site_symmetry_2
Zn1 O1 1_555 1_555
O1 Zn1AA 1_555 1_555
O2 Zn1 1_555 1_555
C1 O2 1_555 1_555
C2 C1 1_555 1_555
C3 C2 1_555 1_555
H1 C3 1_555 1_555
C4 C3 1_555 1_555
O3 C4 1_555 1_555
C5 C2 1_555 1_555
O2L C1L 1_555 1_555
C1L C2L 1_555 1_555
C2L C3L 1_555 1_555
C3L H1L 1_555 1_555
C4L C4 1_555 1_555
C5L C2L 1_555 1_555
O2UB C1 1_555 1_555
C3UB C2 1_555 1_555
H1UB C3UB 1_555 1_555
C4UB C5 1_555 1_555
O3UB C4UB 1_555 1_555
C5UB C2 1_555 1_555
O2GC C1L 1_555 1_555
C3GC C2L 1_555 1_555
H1GC C3GC 1_555 1_555
C4GC C5L 1_555 1_555
C5GC C2L 1_555 1_555
O2D Zn1 1_555 1_555
C1D O2D 1_555 1_555
C2D C1D 1_555 1_555
C3D C2D 1_555 1_555
H1D C3D 1_555 1_555
C4D C3D 1_555 1_555
O3D C4D 1_555 1_555
C5D C2D 1_555 1_555
O2V C1V 1_555 1_555
C1V C2V 1_555 1_555
C2V C3V 1_555 1_555
C3V H1V 1_555 1_555
C4V C4D 1_555 1_555
C5V C2V 1_555 1_555
O2CA C1D 1_555 1_555
C3CA C2D 1_555 1_555
H1CA C3CA 1_555 1_555
C4CA C5D 1_555 1_555
O3CA C4CA 1_555 1_555
C5CA C2D 1_555 1_555
O2UA C1V 1_555 1_555
C3UA C2V 1_555 1_555
H1UA C3UA 1_555 1_555
C4UA C5V 1_555 1_555
C5UA C2V 1_555 1_555
O2H Zn1 1_555 1_555
C1H O2H 1_555 1_555
C2H C1H 1_555 1_555
C3H C2H 1_555 1_555
H1H C3H 1_555 1_555
C4H C3H 1_555 1_555
O3H C4H 1_555 1_555
C5H C2H 1_555 1_555
O2S C1S 1_555 1_555
C1S C2S 1_555 1_555
C2S C3S 1_555 1_555
C3S H1S 1_555 1_555
C4S C4H 1_555 1_555
C5S C2S 1_555 1_555
O2EB C1H 1_555 1_555
C3EB C2H 1_555 1_555
H1EB C3EB 1_555 1_555
C4EB C5H 1_555 1_555
O3EB C4EB 1_555 1_555
C5EB C2H 1_555 1_555
O2NB C1S 1_555 1_555
C3NB C2S 1_555 1_555
H1NB C3NB 1_555 1_555
C4NB C5S 1_555 1_555
C5NB C2S 1_555 1_555
Zn1L O2L 1_555 1_555
Zn1N O2S 1_555 1_555
Zn1O O2V 1_555 1_555
Zn1AA O2CA 1_555 1_555
Zn1KA O2UA 1_555 1_555
Zn1XA O1 1_555 1_555
Zn1IB O2NB 1_555 1_555
Zn1UB O1 1_555 1_555
Zn1GC O2GC 1_555 1_555
O1L Zn1L 1_555 1_555
O1N Zn1N 1_555 1_555
O1O Zn1O 1_555 1_555
O2N Zn1N 1_555 1_555
O2O Zn1O 1_555 1_555
O2P Zn1L 1_555 1_555
O2Q Zn1O 1_555 1_555
O2T Zn1L 1_555 1_555
O2U Zn1N 1_555 1_555
C3 C5UB 1_555 1_555
C4 C5UB 1_555 1_555
O3 C4L 1_555 1_555
C5 C3UB 1_555 1_555
C5 C5UB 1_555 1_555
C3L C4L 1_555 1_555
C3L C5GC 1_555 1_555
C4L C5GC 1_555 1_555
C5L C3GC 1_555 1_555
C5L C5GC 1_555 1_555
O2UB Zn1UB 1_555 1_555
C3UB C4UB 1_555 1_555
C4UB C4GC 1_555 1_555
O3UB C4GC 1_555 1_555
C3GC C4GC 1_555 1_555
C3D C5CA 1_555 1_555
C4D C5CA 1_555 1_555
O3D C4V 1_555 1_555
C5D C3CA 1_555 1_555
C5D C5CA 1_555 1_555
C3V C4V 1_555 1_555
C3V C5UA 1_555 1_555
C4V C5UA 1_555 1_555
C5V C3UA 1_555 1_555
C5V C5UA 1_555 1_555
C3CA C4CA 1_555 1_555
C4CA C4UA 1_555 1_555
O3CA C4UA 1_555 1_555
C3UA C4UA 1_555 1_555
C3H C5EB 1_555 1_555
C4H C5EB 1_555 1_555
O3H C4S 1_555 1_555
C5H C3EB 1_555 1_555
C5H C5EB 1_555 1_555
C3S C4S 1_555 1_555
C3S C5NB 1_555 1_555
C4S C5NB 1_555 1_555
C5S C3NB 1_555 1_555
C5S C5NB 1_555 1_555
O2EB Zn1XA 1_555 1_555
C3EB C4EB 1_555 1_555
C4EB C4NB 1_555 1_555
O3EB C4NB 1_555 1_555
C3NB C4NB 1_555 1_555
Zn1KA O1O 1_555 1_555
Zn1IB O1N 1_555 1_555
Zn1GC O1L 1_555 1_555

#END
