
#######################################################################
#
#                 Cambridge Crystallographic Data Centre
#                                CCDC 
#
#######################################################################
#
# If this CIF has been generated from an entry in the Cambridge 
# Structural Database, then it will include bibliographic, chemical, 
# crystal, experimental, refinement or atomic coordinate data resulting 
# from the CCDC's data processing and validation procedures.
#
#######################################################################

data_VITHOX
_chemical_formula_moiety         '(C38 H36 Cd2 N8 O12)n'
_chemical_name_systematic        
"catena-((\m~4~-Hydrogen benzene-1,3,5-tricarboxylato)-(\m~2~-hydrogen benzene-1,3,5-tricarboxylato)-bis(\m~2~-3,3',5,5'-tetramethyl-1H,1'H-4,4'-bipyrazole)-di-cadmium)"
_symmetry_cell_setting           monoclinic
_symmetry_space_group_name_H-M   'C 2/m'
_symmetry_Int_Tables_number      12
_space_group_name_Hall           '-C 2y'
loop_
_symmetry_equiv_pos_site_id
_symmetry_equiv_pos_as_xyz
1 x,y,z
2 -x,y,-z
3 1/2+x,1/2+y,z
4 1/2-x,1/2+y,-z
5 -x,-y,-z
6 x,-y,z
7 1/2-x,1/2-y,-z
8 1/2+x,1/2-y,z
_cell_length_a                   23.916(6)
_cell_length_b                   19.610(7)
_cell_length_c                   13.732(3)
_cell_angle_alpha                90
_cell_angle_beta                 116.26(3)
_cell_angle_gamma                90
_cell_volume                     5775.55
_exptl_crystal_colour            colorless
_exptl_crystal_description       block
_cell_formula_units_Z            4
loop_
_atom_site_label
_atom_site_type_symbol
_atom_site_fract_x
_atom_site_fract_y
_atom_site_fract_z
Cd1 Cd 0.324551(9) 0.235221(11) 0.118846(17)
O1 O 0.25018(9) 0.18360(10) -0.06043(17)
O2 O 0.16747(10) 0.12361(12) -0.0816(2)
O3 O 0.44048(12) 0.05643(12) -0.0183(3)
O4 O 0.33282(11) 0.12587(12) 0.1789(2)
O5 O 0.25563(11) 0.17971(12) 0.1922(2)
O6 O 0.1752(2) 0.0562(2) 0.4296(4)
N1 N 0.39900(14) 0.27723(15) 0.2804(3)
N2 N 0.43120(15) 0.33171(16) 0.2716(3)
H1 H 0.4219 0.3534 0.2120
N3 N 0.38588(12) 0.23621(13) 0.0321(2)
N4 N 0.36869(13) 0.26963(14) -0.0626(3)
H2 H 0.3313 0.2834 -0.1026
C1 C 0.22240(13) 0.12714(15) -0.0672(2)
C2 C 0.25706(12) 0.06166(13) -0.0597(2)
C3 C 0.31869(13) 0.06169(14) -0.0454(3)
H3 H 0.3392 0.1027 -0.0410
C4 C 0.34901(19) 0.0000 -0.0377(4)
C5 C 0.4148(2) 0.0000 -0.0217(4)
C6 C 0.22735(18) 0.0000 -0.0660(3)
H4 H 0.1865 0.0000 -0.0748
C7 C 0.28734(15) 0.12643(16) 0.2012(2)
C8 C 0.26971(14) 0.06175(15) 0.2378(2)
C9 C 0.2883(2) 0.0000 0.2110(4)
H5 H 0.3134 0.0000 0.1751
C10 C 0.23558(16) 0.06119(18) 0.2976(3)
H6 H 0.2237 0.1021 0.3172
C11 C 0.2193(2) 0.0000 0.3280(4)
C12 C 0.1861(3) 0.0000 0.3978(6)
C13 C 0.5218(3) 0.4060(3) 0.3761(5)
H7 H 0.5626 0.3885 0.3936
H8 H 0.5240 0.4366 0.4322
H9 H 0.5062 0.4300 0.3082
C14 C 0.47895(19) 0.3482(2) 0.3670(3)
C15 C 0.47849(16) 0.30174(19) 0.4420(3)
C16 C 0.42879(17) 0.25833(18) 0.3845(3)
C17 C 0.4076(3) 0.1985(3) 0.4268(4)
H10 H 0.3678 0.2085 0.4248
H11 H 0.4374 0.1894 0.5002
H12 H 0.4039 0.1594 0.3824
C18 C 0.48178(16) 0.1844(2) 0.1703(3)
H13 H 0.4927 0.2141 0.2315
H14 H 0.5190 0.1658 0.1708
H15 H 0.4561 0.1479 0.1745
C19 C 0.44678(14) 0.22365(15) 0.0678(3)
C20 C 0.46797(14) 0.25000(17) -0.0057(3)
C21 C 0.41642(16) 0.27903(19) -0.0880(3)
C22 C 0.4086(2) 0.3156(3) -0.1886(4)
H16 H 0.4001 0.2831 -0.2458
H17 H 0.4461 0.3400 -0.1748
H18 H 0.3745 0.3471 -0.2099
O1E O 0.25018(9) -0.18360(10) -0.06043(17)
O2E O 0.16747(10) -0.12361(12) -0.0816(2)
O3E O 0.44048(12) -0.05643(12) -0.0183(3)
C1E C 0.22240(13) -0.12714(15) -0.0672(2)
C2E C 0.25706(12) -0.06166(13) -0.0597(2)
C3E C 0.31869(13) -0.06169(14) -0.0454(3)
H3E H 0.3392 -0.1027 -0.0410
O4E O 0.33282(11) -0.12587(12) 0.1789(2)
O5E O 0.25563(11) -0.17971(12) 0.1922(2)
O6E O 0.1752(2) -0.0562(2) 0.4296(4)
C7E C 0.28734(15) -0.12643(16) 0.2012(2)
C8E C 0.26971(14) -0.06175(15) 0.2378(2)
C10E C 0.23558(16) -0.06119(18) 0.2976(3)
H6E H 0.2237 -0.1021 0.3172
N1A N 0.60100(14) 0.27723(15) 0.7196(3)
N2A N 0.56880(15) 0.33171(16) 0.7284(3)
H1A H 0.5781 0.3534 0.7880
C13A C 0.4782(3) 0.4060(3) 0.6239(5)
H7A H 0.4374 0.3885 0.6064
H8A H 0.4760 0.4366 0.5678
H9A H 0.4938 0.4300 0.6918
C14A C 0.52105(19) 0.3482(2) 0.6330(3)
C15A C 0.52151(16) 0.30174(19) 0.5580(3)
C16A C 0.57121(17) 0.25833(18) 0.6155(3)
C17A C 0.5924(3) 0.1985(3) 0.5732(4)
H10A H 0.6322 0.2085 0.5752
H11A H 0.5626 0.1894 0.4998
H12A H 0.5961 0.1594 0.6176
N3A N 0.61412(12) 0.23621(13) -0.0321(2)
N4A N 0.63131(13) 0.26963(14) 0.0626(3)
H2A H 0.6687 0.2834 0.1026
C18A C 0.51822(16) 0.1844(2) -0.1703(3)
H13A H 0.5073 0.2141 -0.2315
H14A H 0.4810 0.1658 -0.1708
H15A H 0.5439 0.1479 -0.1745
C19A C 0.55322(14) 0.22365(15) -0.0678(3)
C20A C 0.53203(14) 0.25000(17) 0.0057(3)
C21A C 0.58358(16) 0.27903(19) 0.0880(3)
C22A C 0.5914(2) 0.3156(3) 0.1886(4)
H16A H 0.5999 0.2831 0.2458
H17A H 0.5539 0.3400 0.1748
H18A H 0.6255 0.3471 0.2099
Cd1A Cd 0.675449(9) 0.235221(11) -0.118846(17)
Cd1A_2 Cd 0.675449(9) 0.235221(11) 0.881154(17)
Cd1C Cd 0.175449(9) -0.264779(11) -0.118846(17)
Cd1E Cd 0.324551(9) -0.235221(11) 0.118846(17)
Cd1F Cd 0.175449(9) 0.264779(11) -0.118846(17)
O1A O 0.74982(9) 0.18360(10) 0.06043(17)
O1F O 0.24982(9) 0.31640(10) 0.06043(17)
O1G O 0.75018(9) 0.31640(10) -0.06043(17)
O4A O 0.66718(11) 0.12587(12) -0.1789(2)
O5A O 0.74437(11) 0.17971(12) -0.1922(2)
N1A_2 N 0.60100(14) 0.27723(15) -0.2804(3)
H19? H 0.1592 0.0501 0.4699
H20? H 0.4749 0.0500 -0.0152
loop_
_geom_bond_atom_site_label_1
_geom_bond_atom_site_label_2
_geom_bond_site_symmetry_1
_geom_bond_site_symmetry_2
Cd1 O1 1_555 1_555
O1 C1 1_555 1_555
O2 C1 1_555 1_555
O3 C5 1_555 1_555
O4 Cd1 1_555 1_555
O5 Cd1 1_555 1_555
O6 C12 1_555 1_555
N1 Cd1 1_555 1_555
N2 N1 1_555 1_555
H1 N2 1_555 1_555
N3 Cd1 1_555 1_555
N4 N3 1_555 1_555
H2 N4 1_555 1_555
C1 C2 1_555 1_555
C2 C3 1_555 1_555
C3 H3 1_555 1_555
C4 C3 1_555 1_555
C5 C4 1_555 1_555
C6 C2 1_555 1_555
H4 C6 1_555 1_555
C7 O4 1_555 1_555
C8 C7 1_555 1_555
C9 C8 1_555 1_555
H5 C9 1_555 1_555
C10 C8 1_555 1_555
H6 C10 1_555 1_555
C11 C10 1_555 1_555
C12 C11 1_555 1_555
C13 H7 1_555 1_555
H8 C13 1_555 1_555
H9 C13 1_555 1_555
C14 N2 1_555 1_555
C15 C14 1_555 1_555
C16 N1 1_555 1_555
C17 C16 1_555 1_555
H10 C17 1_555 1_555
H11 C17 1_555 1_555
H12 C17 1_555 1_555
C18 H13 1_555 1_555
H14 C18 1_555 1_555
H15 C18 1_555 1_555
C19 N3 1_555 1_555
C20 C19 1_555 1_555
C21 N4 1_555 1_555
C22 C21 1_555 1_555
H16 C22 1_555 1_555
H17 C22 1_555 1_555
H18 C22 1_555 1_555
O1E C1E 1_555 1_555
O2E C1E 1_555 1_555
O3E C5 1_555 1_555
C1E C2E 1_555 1_555
C2E C6 1_555 1_555
C3E C4 1_555 1_555
H3E C3E 1_555 1_555
O4E C7E 1_555 1_555
O5E C7E 1_555 1_555
O6E C12 1_555 1_555
C7E C8E 1_555 1_555
C8E C9 1_555 1_555
C10E C11 1_555 1_555
H6E C10E 1_555 1_555
N1A N2A 1_555 1_555
N2A H1A 1_555 1_555
C13A H7A 1_555 1_555
H8A C13A 1_555 1_555
H9A C13A 1_555 1_555
C14A N2A 1_555 1_555
C15A C15 1_555 1_555
C16A N1A 1_555 1_555
C17A C16A 1_555 1_555
H10A C17A 1_555 1_555
H11A C17A 1_555 1_555
H12A C17A 1_555 1_555
N3A N4A 1_555 1_555
N4A H2A 1_555 1_555
C18A H13A 1_555 1_555
H14A C18A 1_555 1_555
H15A C18A 1_555 1_555
C19A N3A 1_555 1_555
C20A C20 1_555 1_555
C21A N4A 1_555 1_555
C22A C21A 1_555 1_555
H16A C22A 1_555 1_555
H17A C22A 1_555 1_555
H18A C22A 1_555 1_555
Cd1A N3A 1_555 1_555
Cd1A_2 N1A 1_555 1_555
Cd1C O1E 1_555 1_555
Cd1E O1E 1_555 1_555
Cd1F O1 1_555 1_555
O1A Cd1A 1_555 1_555
O1F Cd1 1_555 1_555
O1G Cd1A 1_555 1_555
O4A Cd1A 1_555 1_555
O5A Cd1A 1_555 1_555
N1A_2 Cd1A 1_555 1_555
O5 C7 1_555 1_555
C13 C14 1_555 1_555
C15 C16 1_555 1_555
C18 C19 1_555 1_555
C20 C21 1_555 1_555
C2E C3E 1_555 1_555
O4E Cd1E 1_555 1_555
O5E Cd1E 1_555 1_555
C8E C10E 1_555 1_555
C13A C14A 1_555 1_555
C14A C15A 1_555 1_555
C15A C16A 1_555 1_555
C18A C19A 1_555 1_555
C19A C20A 1_555 1_555
C20A C21A 1_555 1_555
Cd1F O1F 1_555 1_555

#END
