
#######################################################################
#
#                 Cambridge Crystallographic Data Centre
#                                CCDC 
#
#######################################################################
#
# If this CIF has been generated from an entry in the Cambridge 
# Structural Database, then it will include bibliographic, chemical, 
# crystal, experimental, refinement or atomic coordinate data resulting 
# from the CCDC's data processing and validation procedures.
#
#######################################################################

data_UKUPOG
_chemical_formula_moiety         '(C10 H10 Cu1 O5)n'
_chemical_name_systematic        
catena-((\m~4~-Isophthalato)-ethanol-copper(ii))
_symmetry_cell_setting           tetragonal
_symmetry_space_group_name_H-M   'P 4/n m m'
_symmetry_Int_Tables_number      129
_space_group_name_Hall           '-P 4a 2a'
loop_
_symmetry_equiv_pos_site_id
_symmetry_equiv_pos_as_xyz
1 x,y,z
2 1/2-x,1/2-y,z
3 1/2-y,x,z
4 y,1/2-x,z
5 -x,1/2+y,-z
6 1/2+x,-y,-z
7 1/2+y,1/2+x,-z
8 -y,-x,-z
9 -x,-y,-z
10 1/2+x,1/2+y,-z
11 1/2+y,-x,-z
12 -y,1/2+x,-z
13 x,1/2-y,z
14 1/2-x,y,z
15 1/2-y,1/2-x,z
16 y,x,z
_cell_length_a                   19.146(3)
_cell_length_b                   19.146(3)
_cell_length_c                   6.7427(13)
_cell_angle_alpha                90
_cell_angle_beta                 90
_cell_angle_gamma                90
_cell_volume                     2471.67
_exptl_crystal_colour            blue
_exptl_crystal_description       block
_cell_formula_units_Z            8
loop_
_atom_site_label
_atom_site_type_symbol
_atom_site_fract_x
_atom_site_fract_y
_atom_site_fract_z
Cu1 Cu 0.03088(4) 0.46912(4) 0.35198(18)
C1 C -0.2500 0.4378(7) -0.0545(17)
H1 H -0.2500 0.4225 -0.1854
C2 C -0.1875(4) 0.4490(5) 0.0411(12)
H2 H -0.1455 0.4407 -0.0241
C3 C -0.1875(4) 0.4730(4) 0.2374(12)
C4 C -0.2500 0.4857(6) 0.3340(17)
H3 H -0.2500 0.5026 0.4633
C5 C -0.1183(4) 0.4851(4) 0.3394(11)
C6 C 0.1231(4) 0.3769(4) 0.091(2)
H4 H 0.1008 0.3427 0.1758
C7 C 0.1665(5) 0.3335(5) -0.019(2)
O1 O -0.0654(4) 0.4642(3) 0.2518(10)
O2 O -0.1184(3) 0.5153(4) 0.5035(10)
O3 O 0.0750(3) 0.4250(3) 0.0889(12)
Cu1F Cu -0.03088(4) 0.53088(4) 0.64802(18)
Cu1E Cu -0.46912(4) 0.53088(4) 0.64802(18)
Cu1C Cu -0.53088(4) 0.46912(4) 0.35198(18)
C2M C -0.3125(4) 0.4490(5) 0.0411(12)
H2M H -0.3545 0.4407 -0.0241
C3M C -0.3125(4) 0.4730(4) 0.2374(12)
C5M C -0.3817(4) 0.4851(4) 0.3394(11)
H4N H 0.1573 0.3992 0.1758
O1M O -0.4346(4) 0.4642(3) 0.2518(10)
O1N O 0.0358(3) 0.5654(4) 0.2518(10)
O2M O -0.3816(3) 0.5153(4) 0.5035(10)
O2F O 0.0153(4) 0.3816(3) 0.4965(10)
O2H O 0.1184(3) 0.4847(4) 0.4965(10)
H5? H 0.1944 0.3059 0.0699
H6? H 0.1967 0.3613 -0.1002
H7? H 0.1387 0.3036 -0.1012
loop_
_geom_bond_atom_site_label_1
_geom_bond_atom_site_label_2
_geom_bond_site_symmetry_1
_geom_bond_site_symmetry_2
Cu1 O1 1_555 1_555
C1 H1 1_555 1_555
C2 C1 1_555 1_555
H2 C2 1_555 1_555
C3 C2 1_555 1_555
C4 C3 1_555 1_555
H3 C4 1_555 1_555
C5 C3 1_555 1_555
C6 H4 1_555 1_555
C7 C6 1_555 1_555
O1 C5 1_555 1_555
O2 C5 1_555 1_555
O3 Cu1 1_555 1_555
Cu1F Cu1 1_555 1_555
Cu1E Cu1C 1_555 1_555
Cu1C O1M 1_555 1_555
C2M C1 1_555 1_555
H2M C2M 1_555 1_555
C3M C4 1_555 1_555
C5M C3M 1_555 1_555
H4N C6 1_555 1_555
O1M C5M 1_555 1_555
O1N Cu1 1_555 1_555
O2M Cu1E 1_555 1_555
O2F Cu1 1_555 1_555
O2H Cu1 1_555 1_555
C6 O3 1_555 1_555
O2 Cu1F 1_555 1_555
C2M C3M 1_555 1_555
C5M O2M 1_555 1_555

#END
