
#######################################################################
#
#                 Cambridge Crystallographic Data Centre
#                                CCDC 
#
#######################################################################
#
# If this CIF has been generated from an entry in the Cambridge 
# Structural Database, then it will include bibliographic, chemical, 
# crystal, experimental, refinement or atomic coordinate data resulting 
# from the CCDC's data processing and validation procedures.
#
#######################################################################

data_UKUQAT
_chemical_formula_moiety         '(C40 H38 Cu4 N2 O20)n,2n(C3 H7 N1 O1)'
_chemical_name_systematic        
'catena-(tetrakis(\m~4~-Isophthalato)-aqua-bis(dimethylformamide)-ethanol-tetra-copper(ii) dimethylformamide solvate)'
_symmetry_cell_setting           orthorhombic
_symmetry_space_group_name_H-M   'C m c a'
_symmetry_Int_Tables_number      64
_space_group_name_Hall           '-C 2ac 2'
loop_
_symmetry_equiv_pos_site_id
_symmetry_equiv_pos_as_xyz
1 x,y,z
2 -x,1/2-y,1/2+z
3 -x,1/2+y,1/2-z
4 x,-y,-z
5 1/2+x,1/2+y,z
6 1/2-x,-y,1/2+z
7 1/2-x,y,1/2-z
8 1/2+x,1/2-y,-z
9 -x,-y,-z
10 x,1/2+y,1/2-z
11 x,1/2-y,1/2+z
12 -x,y,z
13 1/2-x,1/2-y,-z
14 1/2+x,y,1/2-z
15 1/2+x,-y,1/2+z
16 1/2-x,1/2+y,z
_cell_length_a                   28.339(6)
_cell_length_b                   25.097(5)
_cell_length_c                   15.483(3)
_cell_angle_alpha                90
_cell_angle_beta                 90
_cell_angle_gamma                90
_cell_volume                     11011.9
_exptl_crystal_colour            green
_exptl_crystal_description       block
_cell_formula_units_Z            8
loop_
_atom_site_label
_atom_site_type_symbol
_atom_site_fract_x
_atom_site_fract_y
_atom_site_fract_z
_atom_site_U_iso_or_equiv
_atom_site_thermal_displace_type
Cu1 Cu 0.28042(3) 1.09796(3) 0.18542(7) 0.0330 Uani
Cu2 Cu 0.0000 0.88449(5) 0.31930(9) 0.0283 Uani
Cu3 Cu 0.0000 0.80900(4) 0.19969(9) 0.0280 Uani
C1 C 0.1096(2) 0.9179(3) 0.1409(6) 0.0397 Uani
C2 C 0.1325(2) 0.9609(3) 0.1767(6) 0.0357 Uani
H1 H 0.1197 0.9780 0.2245 0.0430 Uiso
C3 C 0.1747(2) 0.9788(3) 0.1416(6) 0.0360 Uani
C4 C 0.1938(3) 0.9524(3) 0.0720(6) 0.0483 Uani
H2 H 0.2226 0.9634 0.0495 0.0580 Uiso
C5 C 0.1705(4) 0.9096(4) 0.0353(8) 0.0660 Uani
H3 H 0.1831 0.8928 -0.0130 0.0790 Uiso
C6 C 0.1287(3) 0.8918(4) 0.0698(7) 0.0590 Uani
H4 H 0.1133 0.8625 0.0459 0.0710 Uiso
C7 C 0.0655(3) 0.8952(3) 0.1839(6) 0.0390 Uani
C8 C 0.2007(3) 1.0251(3) 0.1827(6) 0.0403 Uani
C9 C 0.1082(3) 0.7730(3) 0.3780(6) 0.0397 Uani
C10 C 0.1341(2) 0.7336(3) 0.3337(6) 0.0380 Uani
H5 H 0.1247 0.7227 0.2789 0.0460 Uiso
C11 C 0.1738(3) 0.7111(3) 0.3721(7) 0.0470 Uani
C12 C 0.1873(3) 0.7274(3) 0.4537(8) 0.0640 Uani
H6 H 0.2138 0.7122 0.4793 0.0770 Uiso
C13 C 0.1623(4) 0.7657(4) 0.4976(8) 0.0697 Uani
H7 H 0.1720 0.7767 0.5522 0.0840 Uiso
C14 C 0.1219(3) 0.7882(3) 0.4591(6) 0.0543 Uani
H8 H 0.1044 0.8135 0.4891 0.0650 Uiso
C15 C 0.0656(3) 0.7972(3) 0.3352(6) 0.0367 Uani
C16 C 0.2024(3) 0.6697(3) 0.3242(7) 0.0440 Uani
C17 C 0.3050(3) 1.1046(4) 0.0009(8) 0.0557 Uani
C18 C 0.3646(5) 1.0573(5) -0.0816(9) 0.0877 Uani
C19 C 0.3022(7) 1.1077(8) -0.1547(12) 0.1243 Uani
N1 N 0.3224(3) 1.0910(3) -0.0762(7) 0.0623 Uani
O1 O 0.0485(2) 0.8541(2) 0.1501(4) 0.0490 Uani
O2 O 0.04944(17) 0.9189(2) 0.2482(4) 0.0427 Uani
O3 O 0.23767(18) 1.0404(2) 0.1440(4) 0.0453 Uani
O4 O 0.18422(17) 1.0443(2) 0.2500(4) 0.0443 Uani
O5 O 0.04943(18) 0.7747(2) 0.2697(4) 0.0437 Uani
O6 O 0.04980(19) 0.8393(2) 0.3687(4) 0.0433 Uani
O7 O 0.1877(2) 0.6553(2) 0.2519(5) 0.0513 Uani
O8 O 0.23725(18) 0.6512(2) 0.3633(4) 0.0470 Uani
O9 O 0.3217(2) 1.0926(2) 0.0710(5) 0.0510 Uani
O11 O 0.0000 0.7535(3) 0.0986(6) 0.0500 Uiso
O12 O 0.0000 0.9420(3) 0.4214(6) 0.0563 Uani
H9 H 0.0000 0.9747 0.4267 0.0850 Uiso
H10 H 0.0000 0.9277 0.4692 0.0850 Uiso
C23 C 0.0000 0.8029(6) -0.0387(13) 0.1073 Uani
C24 C 0.0000 0.7570(5) 0.0129(7) 0.0500 Uiso
Cu1K Cu -0.28042(3) 1.09796(3) 0.18542(7) 0.0330 Uani
Cu1F Cu 0.21958(3) 1.09796(3) 0.31458(7) 0.0330 Uani
Cu1O Cu 0.21958(3) 0.59796(3) 0.18542(7) 0.0330 Uani
Cu1I Cu 0.28042(3) 0.59796(3) 0.31458(7) 0.0330 Uani
Cu1M Cu -0.21958(3) 1.09796(3) 0.31458(7) 0.0330 Uani
Cu1D Cu -0.21958(3) 0.59796(3) 0.18542(7) 0.0330 Uani
Cu1B Cu -0.28042(3) 0.59796(3) 0.31458(7) 0.0330 Uani
C1K C -0.1096(2) 0.9179(3) 0.1409(6) 0.0397 Uani
C2K C -0.1325(2) 0.9609(3) 0.1767(6) 0.0357 Uani
H1K H -0.1197 0.9780 0.2245 0.0430 Uiso
C3K C -0.1747(2) 0.9788(3) 0.1416(6) 0.0360 Uani
C4K C -0.1938(3) 0.9524(3) 0.0720(6) 0.0483 Uani
H2K H -0.2226 0.9634 0.0495 0.0580 Uiso
C5K C -0.1705(4) 0.9096(4) 0.0353(8) 0.0660 Uani
H3K H -0.1831 0.8928 -0.0130 0.0790 Uiso
C6K C -0.1287(3) 0.8918(4) 0.0698(7) 0.0590 Uani
H4K H -0.1133 0.8625 0.0459 0.0710 Uiso
C7K C -0.0655(3) 0.8952(3) 0.1839(6) 0.0390 Uani
C8K C -0.2007(3) 1.0251(3) 0.1827(6) 0.0403 Uani
C9K C -0.1082(3) 0.7730(3) 0.3780(6) 0.0397 Uani
C10K C -0.1341(2) 0.7336(3) 0.3337(6) 0.0380 Uani
H5K H -0.1247 0.7227 0.2789 0.0460 Uiso
C11K C -0.1738(3) 0.7111(3) 0.3721(7) 0.0470 Uani
C12K C -0.1873(3) 0.7274(3) 0.4537(8) 0.0640 Uani
H6K H -0.2138 0.7122 0.4793 0.0770 Uiso
C13K C -0.1623(4) 0.7657(4) 0.4976(8) 0.0697 Uani
H7K H -0.1720 0.7767 0.5522 0.0840 Uiso
C14K C -0.1219(3) 0.7882(3) 0.4591(6) 0.0543 Uani
H8K H -0.1044 0.8135 0.4891 0.0650 Uiso
C15K C -0.0656(3) 0.7972(3) 0.3352(6) 0.0367 Uani
C16K C -0.2024(3) 0.6697(3) 0.3242(7) 0.0440 Uani
C17K C -0.3050(3) 1.1046(4) 0.0009(8) 0.0557 Uani
C18K C -0.3646(5) 1.0573(5) -0.0816(9) 0.0877 Uani
C19K C -0.3022(7) 1.1077(8) -0.1547(12) 0.1243 Uani
N1K N -0.3224(3) 1.0910(3) -0.0762(7) 0.0623 Uani
O1K O -0.0485(2) 0.8541(2) 0.1501(4) 0.0490 Uani
O2K O -0.04944(17) 0.9189(2) 0.2482(4) 0.0427 Uani
O3K O -0.23767(18) 1.0404(2) 0.1440(4) 0.0453 Uani
O4K O -0.18422(17) 1.0443(2) 0.2500(4) 0.0443 Uani
O4F O 0.31578(17) 1.0443(2) 0.2500(4) 0.0443 Uani
O4M O -0.31578(17) 1.0443(2) 0.2500(4) 0.0443 Uani
O5K O -0.04943(18) 0.7747(2) 0.2697(4) 0.0437 Uani
O6K O -0.04980(19) 0.8393(2) 0.3687(4) 0.0433 Uani
O7K O -0.1877(2) 0.6553(2) 0.2519(5) 0.0513 Uani
O7O O 0.3123(2) 1.1553(2) 0.2519(5) 0.0513 Uani
O7D O -0.3123(2) 1.1553(2) 0.2519(5) 0.0513 Uani
O8K O -0.23725(18) 0.6512(2) 0.3633(4) 0.0470 Uani
O8I O 0.23725(18) 1.1512(2) 0.1367(4) 0.0470 Uani
O8B O -0.23725(18) 1.1512(2) 0.1367(4) 0.0470 Uani
O9K O -0.3217(2) 1.0926(2) 0.0710(5) 0.0510 Uani
C20 C 0.0632(11) 0.0550(8) 0.3244(13) 0.1790 Uani
C21 C 0.0566(9) 0.1501(7) 0.3520(18) 0.1977 Uani
C22 C 0.0712(6) 0.0980(7) 0.1974(18) 0.1363 Uani
N2 N 0.0627(4) 0.0975(4) 0.2883(12) 0.0967 Uani
O10 O 0.0430(6) 0.0394(6) 0.4049(17) 0.2230 Uani
loop_
_atom_site_aniso_label
_atom_site_aniso_U_11
_atom_site_aniso_U_22
_atom_site_aniso_U_33
_atom_site_aniso_U_23
_atom_site_aniso_U_13
_atom_site_aniso_U_12
Cu1 0.0200(5) 0.0291(6) 0.0498(8) -0.0015(4) 0.0095(4) -0.0002(3)
Cu2 0.0255(6) 0.0242(7) 0.0351(9) -0.0038(5) 0.000 0.000
Cu3 0.0208(6) 0.0267(7) 0.0365(9) -0.0042(5) 0.000 0.000
C1 0.020(3) 0.043(4) 0.056(6) 0.010(4) 0.002(3) -0.010(3)
C2 0.030(4) 0.039(4) 0.038(6) 0.006(3) -0.007(3) -0.002(3)
C3 0.026(4) 0.034(4) 0.048(6) 0.005(3) 0.000(3) -0.009(3)
C4 0.041(5) 0.050(5) 0.054(7) 0.000(4) 0.013(4) -0.016(4)
C5 0.063(6) 0.071(7) 0.064(9) -0.011(5) 0.018(5) -0.025(5)
C6 0.056(6) 0.060(6) 0.061(8) -0.009(5) 0.015(5) -0.025(4)
C7 0.028(4) 0.042(4) 0.047(6) 0.014(4) -0.002(3) -0.002(3)
C8 0.024(4) 0.033(4) 0.064(7) 0.006(4) -0.004(4) 0.001(3)
C9 0.037(4) 0.031(4) 0.051(6) 0.001(4) -0.009(4) 0.009(3)
C10 0.031(4) 0.037(4) 0.046(6) -0.003(3) -0.007(3) 0.004(3)
C11 0.032(4) 0.033(4) 0.076(8) -0.005(4) -0.017(4) 0.002(3)
C12 0.058(6) 0.044(5) 0.090(9) -0.014(5) -0.038(6) 0.015(4)
C13 0.079(7) 0.058(6) 0.072(9) -0.029(5) -0.040(6) 0.027(5)
C14 0.074(6) 0.044(5) 0.045(7) -0.017(4) -0.019(5) 0.023(4)
C15 0.031(4) 0.035(4) 0.044(6) 0.003(4) -0.005(3) 0.001(3)
C16 0.033(4) 0.026(4) 0.073(8) -0.004(4) -0.015(4) -0.002(3)
C17 0.047(5) 0.057(6) 0.063(9) -0.005(5) 0.022(5) 0.001(4)
C18 0.105(9) 0.074(7) 0.084(11) 0.004(6) 0.048(7) 0.027(6)
C19 0.139(15) 0.182(17) 0.052(13) -0.001(10) 0.023(9) 0.034(12)
N1 0.064(5) 0.067(5) 0.056(7) -0.009(4) 0.021(4) -0.003(4)
O1 0.045(3) 0.052(4) 0.050(5) -0.005(3) 0.003(3) -0.025(3)
O2 0.028(3) 0.039(3) 0.061(5) 0.000(3) 0.006(3) -0.008(2)
O3 0.032(3) 0.045(3) 0.059(5) 0.000(3) 0.007(3) -0.013(2)
O4 0.025(3) 0.047(3) 0.061(5) -0.002(3) 0.006(3) -0.010(2)
O5 0.035(3) 0.043(3) 0.053(4) -0.010(3) -0.013(3) 0.013(2)
O6 0.051(3) 0.036(3) 0.043(4) -0.007(3) -0.008(3) 0.017(2)
O7 0.039(3) 0.037(3) 0.078(6) -0.010(3) -0.015(3) 0.011(2)
O8 0.032(3) 0.043(3) 0.066(5) 0.001(3) -0.015(3) 0.011(2)
O9 0.040(3) 0.064(4) 0.049(5) -0.001(3) 0.018(3) 0.003(3)
O12 0.084(7) 0.044(5) 0.041(7) -0.013(4) 0.000 0.000
C23 0.17(2) 0.077(12) 0.075(17) 0.005(10) 0.000 0.000
Cu1K 0.02 0.0291 0.0498 -0.0015 -0.0095 0.0002
Cu1F 0.02 0.0291 0.0498 0.0015 0.0095 0.0002
Cu1O 0.02 0.0291 0.0498 -0.0015 -0.0095 0.0002
Cu1I 0.02 0.0291 0.0498 0.0015 -0.0095 -0.0002
Cu1M 0.02 0.0291 0.0498 0.0015 -0.0095 -0.0002
Cu1D 0.02 0.0291 0.0498 -0.0015 0.0095 -0.0002
Cu1B 0.02 0.0291 0.0498 0.0015 0.0095 0.0002
C1K 0.02 0.043 0.056 0.01 -0.002 0.01
C2K 0.03 0.039 0.038 0.006 0.007 0.002
C3K 0.026 0.034 0.048 0.005 0 0.009
C4K 0.041 0.05 0.054 0 -0.013 0.016
C5K 0.063 0.071 0.064 -0.011 -0.018 0.025
C6K 0.056 0.06 0.061 -0.009 -0.015 0.025
C7K 0.028 0.042 0.047 0.014 0.002 0.002
C8K 0.024 0.033 0.064 0.006 0.004 -0.001
C9K 0.037 0.031 0.051 0.001 0.009 -0.009
C10K 0.031 0.037 0.046 -0.003 0.007 -0.004
C11K 0.032 0.033 0.076 -0.005 0.017 -0.002
C12K 0.058 0.044 0.09 -0.014 0.038 -0.015
C13K 0.079 0.058 0.072 -0.029 0.04 -0.027
C14K 0.074 0.044 0.045 -0.017 0.019 -0.023
C15K 0.031 0.035 0.044 0.003 0.005 -0.001
C16K 0.033 0.026 0.073 -0.004 0.015 0.002
C17K 0.047 0.057 0.063 -0.005 -0.022 -0.001
C18K 0.105 0.074 0.084 0.004 -0.048 -0.027
C19K 0.139 0.182 0.052 -0.001 -0.023 -0.034
N1K 0.064 0.067 0.056 -0.009 -0.021 0.003
O1K 0.045 0.052 0.05 -0.005 -0.003 0.025
O2K 0.028 0.039 0.061 0 -0.006 0.008
O3K 0.032 0.045 0.059 0 -0.007 0.013
O4K 0.025 0.047 0.061 -0.002 -0.006 0.01
O4F 0.025 0.047 0.061 0.002 0.006 0.01
O4M 0.025 0.047 0.061 0.002 -0.006 -0.01
O5K 0.035 0.043 0.053 -0.01 0.013 -0.013
O6K 0.051 0.036 0.043 -0.007 0.008 -0.017
O7K 0.039 0.037 0.078 -0.01 0.015 -0.011
O7O 0.039 0.037 0.078 -0.01 0.015 -0.011
O7D 0.039 0.037 0.078 -0.01 -0.015 0.011
O8K 0.032 0.043 0.066 0.001 0.015 -0.011
O8I 0.032 0.043 0.066 -0.001 0.015 0.011
O8B 0.032 0.043 0.066 -0.001 -0.015 -0.011
O9K 0.04 0.064 0.049 -0.001 -0.018 -0.003
C20 0.35(4) 0.113(14) 0.074(16) 0.038(11) 0.072(17) 0.129(18)
C21 0.23(2) 0.093(12) 0.27(3) 0.020(15) -0.01(2) -0.111(15)
C22 0.082(12) 0.117(14) 0.21(3) 0.057(14) -0.013(13) 0.005(8)
N2 0.046(5) 0.075(7) 0.169(15) -0.027(8) 0.004(7) -0.001(4)
O10 0.172(14) 0.127(11) 0.37(3) -0.066(15) -0.029(17) -0.010(9)
loop_
_geom_bond_atom_site_label_1
_geom_bond_atom_site_label_2
_geom_bond_site_symmetry_1
_geom_bond_site_symmetry_2
Cu1 O3 1_555 1_555
Cu2 Cu3 1_555 1_555
Cu3 O1 1_555 1_555
C1 C2 1_555 1_555
C2 H1 1_555 1_555
C3 C2 1_555 1_555
C4 C3 1_555 1_555
H2 C4 1_555 1_555
C5 C4 1_555 1_555
H3 C5 1_555 1_555
C6 C1 1_555 1_555
H4 C6 1_555 1_555
C7 C1 1_555 1_555
C8 C3 1_555 1_555
C9 C10 1_555 1_555
C10 H5 1_555 1_555
C11 C10 1_555 1_555
C12 C11 1_555 1_555
H6 C12 1_555 1_555
C13 C12 1_555 1_555
H7 C13 1_555 1_555
C14 C9 1_555 1_555
H8 C14 1_555 1_555
C15 C9 1_555 1_555
C16 C11 1_555 1_555
C17 N1 1_555 1_555
C18 N1 1_555 1_555
C19 N1 1_555 1_555
C20 N2 1_555 1_555
C21 N2 1_555 1_555
C22 N2 1_555 1_555
O1 C7 1_555 1_555
O2 Cu2 1_555 1_555
O3 C8 1_555 1_555
O4 C8 1_555 1_555
O5 Cu3 1_555 1_555
O6 Cu2 1_555 1_555
O7 C16 1_555 1_555
O8 C16 1_555 1_555
O9 Cu1 1_555 1_555
O10 C20 1_555 1_555
O11 Cu3 1_555 1_555
O12 Cu2 1_555 1_555
H9 O12 1_555 1_555
H10 O12 1_555 1_555
C23 C24 1_555 1_555
C24 O11 1_555 1_555
Cu1K Cu1M 1_555 1_555
Cu1F Cu1 1_555 1_555
Cu1O O7 1_555 1_555
Cu1I O8 1_555 1_555
Cu1M O4K 1_555 1_555
Cu1D Cu1B 1_555 1_555
Cu1B O8K 1_555 1_555
C1K C2K 1_555 1_555
C2K H1K 1_555 1_555
C3K C2K 1_555 1_555
C4K C3K 1_555 1_555
H2K C4K 1_555 1_555
C5K C4K 1_555 1_555
H3K C5K 1_555 1_555
C6K C1K 1_555 1_555
H4K C6K 1_555 1_555
C7K C1K 1_555 1_555
C8K C3K 1_555 1_555
C9K C10K 1_555 1_555
C10K H5K 1_555 1_555
C11K C10K 1_555 1_555
C12K C11K 1_555 1_555
H6K C12K 1_555 1_555
C13K C12K 1_555 1_555
H7K C13K 1_555 1_555
C14K C9K 1_555 1_555
H8K C14K 1_555 1_555
C15K C9K 1_555 1_555
C16K C11K 1_555 1_555
C17K N1K 1_555 1_555
C18K N1K 1_555 1_555
C19K N1K 1_555 1_555
O1K Cu3 1_555 1_555
O2K Cu2 1_555 1_555
O3K Cu1K 1_555 1_555
O4K C8K 1_555 1_555
O4F Cu1 1_555 1_555
O4M Cu1K 1_555 1_555
O5K Cu3 1_555 1_555
O6K Cu2 1_555 1_555
O7K Cu1D 1_555 1_555
O7O Cu1 1_555 1_555
O7D Cu1K 1_555 1_555
O8K C16K 1_555 1_555
O8I Cu1 1_555 1_555
O8B Cu1K 1_555 1_555
O9K Cu1K 1_555 1_555
C5 C6 1_555 1_555
C7 O2 1_555 1_555
C13 C14 1_555 1_555
C15 O5 1_555 1_555
C15 O6 1_555 1_555
C17 O9 1_555 1_555
O4 Cu1F 1_555 1_555
Cu1O Cu1I 1_555 1_555
C5K C6K 1_555 1_555
C7K O1K 1_555 1_555
C7K O2K 1_555 1_555
C8K O3K 1_555 1_555
C13K C14K 1_555 1_555
C15K O5K 1_555 1_555
C15K O6K 1_555 1_555
C16K O7K 1_555 1_555
C17K O9K 1_555 1_555

#END
