
#######################################################################
#
#                 Cambridge Crystallographic Data Centre
#                                CCDC 
#
#######################################################################
#
# If this CIF has been generated from an entry in the Cambridge 
# Structural Database, then it will include bibliographic, chemical, 
# crystal, experimental, refinement or atomic coordinate data resulting 
# from the CCDC's data processing and validation procedures.
#
#######################################################################

data_VEBHUG
_chemical_name_common            IRMOF-20
_chemical_formula_moiety         '(C24 H6 O13 S6 Zn4)n'
_chemical_name_systematic        
'catena-[(\m~4~-Oxo)-tris(\m~4~-thieno[3,2-b]thiophene-2,5-dicarboxylato)-tetra-zinc unknown solvate]'
_symmetry_cell_setting           cubic
_symmetry_space_group_name_H-M   'F m -3 m'
_symmetry_Int_Tables_number      225
_space_group_name_Hall           '-F 4 2 3'
loop_
_symmetry_equiv_pos_site_id
_symmetry_equiv_pos_as_xyz
1 x,y,z
2 -y,x,z
3 x,-y,-z
4 z,x,y
5 -x,-y,z
6 y,x,-z
7 -x,z,y
8 y,-x,z
9 -x,y,-z
10 -z,-x,y
11 -y,-x,-z
12 x,-z,y
13 z,-x,-y
14 -x,-z,-y
15 -z,x,-y
16 x,z,-y
17 y,z,x
18 z,-y,x
19 -z,y,x
20 z,y,-x
21 y,-z,-x
22 -z,-y,-x
23 -y,z,-x
24 -y,-z,x
25 x,1/2+y,1/2+z
26 -y,1/2+x,1/2+z
27 x,1/2-y,1/2-z
28 z,1/2+x,1/2+y
29 -x,1/2-y,1/2+z
30 y,1/2+x,1/2-z
31 -x,1/2+z,1/2+y
32 y,1/2-x,1/2+z
33 -x,1/2+y,1/2-z
34 -z,1/2-x,1/2+y
35 -y,1/2-x,1/2-z
36 x,1/2-z,1/2+y
37 z,1/2-x,1/2-y
38 -x,1/2-z,1/2-y
39 -z,1/2+x,1/2-y
40 x,1/2+z,1/2-y
41 y,1/2+z,1/2+x
42 z,1/2-y,1/2+x
43 -z,1/2+y,1/2+x
44 z,1/2+y,1/2-x
45 y,1/2-z,1/2-x
46 -z,1/2-y,1/2-x
47 -y,1/2+z,1/2-x
48 -y,1/2-z,1/2+x
49 1/2+x,y,1/2+z
50 1/2-y,x,1/2+z
51 1/2+x,-y,1/2-z
52 1/2+z,x,1/2+y
53 1/2-x,-y,1/2+z
54 1/2+y,x,1/2-z
55 1/2-x,z,1/2+y
56 1/2+y,-x,1/2+z
57 1/2-x,y,1/2-z
58 1/2-z,-x,1/2+y
59 1/2-y,-x,1/2-z
60 1/2+x,-z,1/2+y
61 1/2+z,-x,1/2-y
62 1/2-x,-z,1/2-y
63 1/2-z,x,1/2-y
64 1/2+x,z,1/2-y
65 1/2+y,z,1/2+x
66 1/2+z,-y,1/2+x
67 1/2-z,y,1/2+x
68 1/2+z,y,1/2-x
69 1/2+y,-z,1/2-x
70 1/2-z,-y,1/2-x
71 1/2-y,z,1/2-x
72 1/2-y,-z,1/2+x
73 1/2+x,1/2+y,z
74 1/2-y,1/2+x,z
75 1/2+x,1/2-y,-z
76 1/2+z,1/2+x,y
77 1/2-x,1/2-y,z
78 1/2+y,1/2+x,-z
79 1/2-x,1/2+z,y
80 1/2+y,1/2-x,z
81 1/2-x,1/2+y,-z
82 1/2-z,1/2-x,y
83 1/2-y,1/2-x,-z
84 1/2+x,1/2-z,y
85 1/2+z,1/2-x,-y
86 1/2-x,1/2-z,-y
87 1/2-z,1/2+x,-y
88 1/2+x,1/2+z,-y
89 1/2+y,1/2+z,x
90 1/2+z,1/2-y,x
91 1/2-z,1/2+y,x
92 1/2+z,1/2+y,-x
93 1/2+y,1/2-z,-x
94 1/2-z,1/2-y,-x
95 1/2-y,1/2+z,-x
96 1/2-y,1/2-z,x
97 -x,-y,-z
98 y,-x,-z
99 -x,y,z
100 -z,-x,-y
101 x,y,-z
102 -y,-x,z
103 x,-z,-y
104 -y,x,-z
105 x,-y,z
106 z,x,-y
107 y,x,z
108 -x,z,-y
109 -z,x,y
110 x,z,y
111 z,-x,y
112 -x,-z,y
113 -y,-z,-x
114 -z,y,-x
115 z,-y,-x
116 -z,-y,x
117 -y,z,x
118 z,y,x
119 y,-z,x
120 y,z,-x
121 -x,1/2-y,1/2-z
122 y,1/2-x,1/2-z
123 -x,1/2+y,1/2+z
124 -z,1/2-x,1/2-y
125 x,1/2+y,1/2-z
126 -y,1/2-x,1/2+z
127 x,1/2-z,1/2-y
128 -y,1/2+x,1/2-z
129 x,1/2-y,1/2+z
130 z,1/2+x,1/2-y
131 y,1/2+x,1/2+z
132 -x,1/2+z,1/2-y
133 -z,1/2+x,1/2+y
134 x,1/2+z,1/2+y
135 z,1/2-x,1/2+y
136 -x,1/2-z,1/2+y
137 -y,1/2-z,1/2-x
138 -z,1/2+y,1/2-x
139 z,1/2-y,1/2-x
140 -z,1/2-y,1/2+x
141 -y,1/2+z,1/2+x
142 z,1/2+y,1/2+x
143 y,1/2-z,1/2+x
144 y,1/2+z,1/2-x
145 1/2-x,-y,1/2-z
146 1/2+y,-x,1/2-z
147 1/2-x,y,1/2+z
148 1/2-z,-x,1/2-y
149 1/2+x,y,1/2-z
150 1/2-y,-x,1/2+z
151 1/2+x,-z,1/2-y
152 1/2-y,x,1/2-z
153 1/2+x,-y,1/2+z
154 1/2+z,x,1/2-y
155 1/2+y,x,1/2+z
156 1/2-x,z,1/2-y
157 1/2-z,x,1/2+y
158 1/2+x,z,1/2+y
159 1/2+z,-x,1/2+y
160 1/2-x,-z,1/2+y
161 1/2-y,-z,1/2-x
162 1/2-z,y,1/2-x
163 1/2+z,-y,1/2-x
164 1/2-z,-y,1/2+x
165 1/2-y,z,1/2+x
166 1/2+z,y,1/2+x
167 1/2+y,-z,1/2+x
168 1/2+y,z,1/2-x
169 1/2-x,1/2-y,-z
170 1/2+y,1/2-x,-z
171 1/2-x,1/2+y,z
172 1/2-z,1/2-x,-y
173 1/2+x,1/2+y,-z
174 1/2-y,1/2-x,z
175 1/2+x,1/2-z,-y
176 1/2-y,1/2+x,-z
177 1/2+x,1/2-y,z
178 1/2+z,1/2+x,-y
179 1/2+y,1/2+x,z
180 1/2-x,1/2+z,-y
181 1/2-z,1/2+x,y
182 1/2+x,1/2+z,y
183 1/2+z,1/2-x,y
184 1/2-x,1/2-z,y
185 1/2-y,1/2-z,-x
186 1/2-z,1/2+y,-x
187 1/2+z,1/2-y,-x
188 1/2-z,1/2-y,x
189 1/2-y,1/2+z,x
190 1/2+z,1/2+y,x
191 1/2+y,1/2-z,x
192 1/2+y,1/2+z,-x
_cell_length_a                   29.184(3)
_cell_length_b                   29.184(3)
_cell_length_c                   29.184(3)
_cell_angle_alpha                90
_cell_angle_beta                 90
_cell_angle_gamma                90
_cell_volume                     24856.2
_exptl_crystal_colour            colorless
_exptl_crystal_description       block
_cell_formula_units_Z            8
loop_
_atom_site_label
_atom_site_type_symbol
_atom_site_fract_x
_atom_site_fract_y
_atom_site_fract_z
_atom_site_U_iso_or_equiv
_atom_site_thermal_displace_type
Zn1 Zn 0.288393(9) 0.288393(9) 0.211607(9) 0.0520 Uani
O1 O 0.2500 0.2500 0.2500 0.0414 Uani
O2 O 0.27800(6) 0.35316(7) 0.22200(6) 0.0928 Uani
C1 C 0.2500 0.37176(12) 0.2500 0.0853 Uani
C2 C 0.2500 0.42289(13) 0.2500 0.0910 Uani
C3 C 0.2243(3) 0.4526(3) 0.2757(3) 0.1278 Uani
H1 H 0.2028 0.4430 0.2972 0.1530 Uiso
C4 C 0.23344(12) 0.5000 0.26656(12) 0.1120 Uani
Zn1P Zn 0.288393(9) 0.211607(9) 0.288393(9) 0.0520 Uani
Zn1C Zn 0.211607(9) 0.288393(9) 0.288393(9) 0.0520 Uani
Zn1JA Zn 0.211607(9) 0.211607(9) 0.211607(9) 0.0520 Uani
Zn1G Zn 0.288393(9) 0.711607(9) 0.211607(9) 0.0520 Uani
Zn1Q Zn 0.211607(9) 0.711607(9) 0.288393(9) 0.0520 Uani
Zn1A Zn 0.711607(9) 0.288393(9) 0.211607(9) 0.0520 Uani
Zn1F Zn 0.711607(9) 0.211607(9) 0.288393(9) 0.0520 Uani
Zn1E Zn 0.288393(9) 0.288393(9) -0.211607(9) 0.0520 Uani
Zn1OA Zn 0.211607(9) 0.211607(9) -0.211607(9) 0.0520 Uani
O2DB O 0.22200(6) 0.35316(7) 0.27800(6) 0.0928 Uani
O2QB O 0.27800(6) 0.64684(7) 0.22200(6) 0.0928 Uani
O2Q O 0.22200(6) 0.64684(7) 0.27800(6) 0.0928 Uani
O2RA O 0.35316(7) 0.27800(6) 0.22200(6) 0.0928 Uani
O2P O 0.35316(7) 0.22200(6) 0.27800(6) 0.0928 Uani
O2A O 0.64684(7) 0.27800(6) 0.22200(6) 0.0928 Uani
O2HA O 0.64684(7) 0.22200(6) 0.27800(6) 0.0928 Uani
O2JB O 0.27800(6) 0.27800(6) 0.14684(7) 0.0928 Uani
O2JA O 0.22200(6) 0.22200(6) 0.14684(7) 0.0928 Uani
O2IA O 0.27800(6) 0.27800(6) -0.14684(7) 0.0928 Uani
O2BB O 0.22200(6) 0.22200(6) -0.14684(7) 0.0928 Uani
O2Z O 0.27800(6) 0.14684(7) 0.27800(6) 0.0928 Uani
O2CC O 0.27800(6) 0.22200(6) 0.35316(7) 0.0928 Uani
O2C O 0.22200(6) 0.27800(6) 0.35316(7) 0.0928 Uani
O2QC O 0.14684(7) 0.27800(6) 0.27800(6) 0.0928 Uani
O2RB O 0.14684(7) 0.22200(6) 0.22200(6) 0.0928 Uani
O2XB O 0.22200(6) 0.14684(7) 0.22200(6) 0.0928 Uani
C1Q C 0.2500 0.62824(12) 0.2500 0.0853 Uani
C1P C 0.37176(12) 0.2500 0.2500 0.0853 Uani
C1A C 0.62824(12) 0.2500 0.2500 0.0853 Uani
C1JA C 0.2500 0.2500 0.12824(12) 0.0853 Uani
C1IA C 0.2500 0.2500 -0.12824(12) 0.0853 Uani
C2Q C 0.2500 0.57711(13) 0.2500 0.0910 Uani
C2P C 0.42289(13) 0.2500 0.2500 0.0910 Uani
C2A C 0.57711(13) 0.2500 0.2500 0.0910 Uani
C2JA C 0.2500 0.2500 0.07711(13) 0.0910 Uani
C2IA C 0.2500 0.2500 -0.07711(13) 0.0910 Uani
C3QB C 0.2243(3) 0.5474(3) 0.2757(3) 0.1278 Uani
C3Q C 0.2757(3) 0.5474(3) 0.2243(3) 0.1278 Uani
C3DB C 0.2757(3) 0.4526(3) 0.2243(3) 0.1278 Uani
C3RA C 0.4526(3) 0.2243(3) 0.2757(3) 0.1278 Uani
C3A C 0.5474(3) 0.2243(3) 0.2757(3) 0.1278 Uani
C3HA C 0.5474(3) 0.2757(3) 0.2243(3) 0.1278 Uani
C3P C 0.4526(3) 0.2757(3) 0.2243(3) 0.1278 Uani
C3JB C 0.2243(3) 0.2243(3) 0.0474(3) 0.1278 Uani
C3IA C 0.2243(3) 0.2243(3) -0.0474(3) 0.1278 Uani
C3BB C 0.2757(3) 0.2757(3) -0.0474(3) 0.1278 Uani
C3JA C 0.2757(3) 0.2757(3) 0.0474(3) 0.1278 Uani
H1Q H 0.2972 0.5570 0.2028 0.1530 Uiso
H1DB H 0.2972 0.4430 0.2028 0.1530 Uiso
H1QB H 0.2028 0.5570 0.2972 0.1530 Uiso
H1RA H 0.4430 0.2028 0.2972 0.1530 Uiso
H1HA H 0.5570 0.2972 0.2028 0.1530 Uiso
H1P H 0.4430 0.2972 0.2028 0.1530 Uiso
H1A H 0.5570 0.2028 0.2972 0.1530 Uiso
H1JB H 0.2028 0.2028 0.0570 0.1530 Uiso
H1BB H 0.2972 0.2972 -0.0570 0.1530 Uiso
H1JA H 0.2972 0.2972 0.0570 0.1530 Uiso
H1IA H 0.2028 0.2028 -0.0570 0.1530 Uiso
C4Q C 0.26656(12) 0.5000 0.23344(12) 0.1120 Uani
C4A C 0.5000 0.23344(12) 0.26656(12) 0.1120 Uani
C4P C 0.5000 0.26656(12) 0.23344(12) 0.1120 Uani
C4IA C 0.23344(12) 0.23344(12) 0.0000 0.1120 Uani
C4JA C 0.26656(12) 0.26656(12) 0.0000 0.1120 Uani
S1? S 0.28709(6) 0.45048(8) 0.21291(6) 0.1278 Uani
loop_
_atom_site_aniso_label
_atom_site_aniso_U_11
_atom_site_aniso_U_22
_atom_site_aniso_U_33
_atom_site_aniso_U_23
_atom_site_aniso_U_13
_atom_site_aniso_U_12
Zn1 0.0520(2) 0.0520(2) 0.0520(2) 0.00206(12) 0.00206(12) -0.00206(12)
O1 0.0414(11) 0.0414(11) 0.0414(11) 0.000 0.000 0.000
O2 0.1167(11) 0.0450(11) 0.1167(11) -0.0050(8) 0.0214(14) 0.0050(8)
C1 0.109(2) 0.038(2) 0.109(2) 0.000 0.012(3) 0.000
C2 0.112(2) 0.049(2) 0.112(2) 0.000 0.025(3) 0.000
C3 0.1697(16) 0.0440(8) 0.1697(16) -0.0009(8) 0.0794(16) 0.0009(8)
C4 0.144 0.048 0.144 0 0.049 0
Zn1P 0.052 0.052 0.052 0.00206 -0.00206 0.00206
Zn1C 0.052 0.052 0.052 -0.00206 0.00206 0.00206
Zn1JA 0.052 0.052 0.052 -0.00206 -0.00206 -0.00206
Zn1G 0.052 0.052 0.052 -0.00206 0.00206 0.00206
Zn1Q 0.052 0.052 0.052 0.00206 0.00206 -0.00206
Zn1A 0.052 0.052 0.052 0.00206 -0.00206 0.00206
Zn1F 0.052 0.052 0.052 0.00206 0.00206 -0.00206
Zn1E 0.052 0.052 0.052 -0.00206 -0.00206 -0.00206
Zn1OA 0.052 0.052 0.052 0.00206 0.00206 -0.00206
O2DB 0.1167 0.045 0.1167 0.005 0.0214 -0.005
O2QB 0.1167 0.045 0.1167 0.005 0.0214 -0.005
O2Q 0.1167 0.045 0.1167 -0.005 0.0214 0.005
O2RA 0.045 0.1167 0.1167 0.0214 -0.005 0.005
O2P 0.045 0.1167 0.1167 0.0214 0.005 -0.005
O2A 0.045 0.1167 0.1167 0.0214 0.005 -0.005
O2HA 0.045 0.1167 0.1167 0.0214 -0.005 0.005
O2JB 0.1167 0.1167 0.045 -0.005 -0.005 -0.0214
O2JA 0.1167 0.1167 0.045 0.005 0.005 -0.0214
O2IA 0.1167 0.1167 0.045 0.005 0.005 -0.0214
O2BB 0.1167 0.1167 0.045 -0.005 -0.005 -0.0214
O2Z 0.1167 0.045 0.1167 -0.005 -0.0214 -0.005
O2CC 0.1167 0.1167 0.045 -0.005 0.005 0.0214
O2C 0.1167 0.1167 0.045 0.005 -0.005 0.0214
O2QC 0.045 0.1167 0.1167 -0.0214 -0.005 -0.005
O2RB 0.045 0.1167 0.1167 -0.0214 0.005 0.005
O2XB 0.1167 0.045 0.1167 0.005 -0.0214 0.005
C1Q 0.109 0.038 0.109 0 0.012 0
C1P 0.038 0.109 0.109 0.012 0 0
C1A 0.038 0.109 0.109 0.012 0 0
C1JA 0.109 0.109 0.038 0 0 -0.012
C1IA 0.109 0.109 0.038 0 0 -0.012
C2Q 0.112 0.049 0.112 0 0.025 0
C2P 0.049 0.112 0.112 0.025 0 0
C2A 0.049 0.112 0.112 0.025 0 0
C2JA 0.112 0.112 0.049 0 0 -0.025
C2IA 0.112 0.112 0.049 0 0 -0.025
C3QB 0.1697 0.044 0.1697 0.0009 0.0794 -0.0009
C3Q 0.1697 0.044 0.1697 -0.0009 0.0794 0.0009
C3DB 0.1697 0.044 0.1697 0.0009 0.0794 -0.0009
C3RA 0.044 0.1697 0.1697 0.0794 -0.0009 0.0009
C3A 0.044 0.1697 0.1697 0.0794 0.0009 -0.0009
C3HA 0.044 0.1697 0.1697 0.0794 -0.0009 0.0009
C3P 0.044 0.1697 0.1697 0.0794 0.0009 -0.0009
C3JB 0.1697 0.1697 0.044 -0.0009 -0.0009 -0.0794
C3IA 0.1697 0.1697 0.044 0.0009 0.0009 -0.0794
C3BB 0.1697 0.1697 0.044 -0.0009 -0.0009 -0.0794
C3JA 0.1697 0.1697 0.044 0.0009 0.0009 -0.0794
C4Q 0.144 0.048 0.144 0 0.049 0
C4A 0.048 0.144 0.144 0.049 0 0
C4P 0.048 0.144 0.144 0.049 0 0
C4IA 0.144 0.144 0.048 0 0 -0.049
C4JA 0.144 0.144 0.048 0 0 -0.049
S1? 0.1697(16) 0.0440(8) 0.1697(16) -0.0009(8) 0.0794(16) 0.0009(8)
loop_
_geom_bond_atom_site_label_1
_geom_bond_atom_site_label_2
_geom_bond_site_symmetry_1
_geom_bond_site_symmetry_2
Zn1 O1 1_555 1_555
O1 Zn1P 1_555 1_555
O2 Zn1 1_555 1_555
C1 O2 1_555 1_555
C2 C1 1_555 1_555
C3 C2 1_555 1_555
H1 C3 1_555 1_555
C4 C3 1_555 1_555
Zn1P O2P 1_555 1_555
Zn1C O1 1_555 1_555
Zn1JA O1 1_555 1_555
Zn1G O2QB 1_555 1_555
Zn1Q O2Q 1_555 1_555
Zn1A O2A 1_555 1_555
Zn1F O2HA 1_555 1_555
Zn1E O2IA 1_555 1_555
Zn1OA O2BB 1_555 1_555
O2DB C1 1_555 1_555
O2QB C1Q 1_555 1_555
O2Q C1Q 1_555 1_555
O2RA Zn1 1_555 1_555
O2P C1P 1_555 1_555
O2A C1A 1_555 1_555
O2HA C1A 1_555 1_555
O2JB Zn1 1_555 1_555
O2JA Zn1JA 1_555 1_555
O2IA C1IA 1_555 1_555
O2BB C1IA 1_555 1_555
O2Z Zn1P 1_555 1_555
O2CC Zn1P 1_555 1_555
O2C Zn1C 1_555 1_555
O2QC Zn1C 1_555 1_555
O2RB Zn1JA 1_555 1_555
O2XB Zn1JA 1_555 1_555
C1Q C2Q 1_555 1_555
C1P O2RA 1_555 1_555
C1A C2A 1_555 1_555
C1JA O2JB 1_555 1_555
C1IA C2IA 1_555 1_555
C2Q C3QB 1_555 1_555
C2P C1P 1_555 1_555
C2A C3A 1_555 1_555
C2JA C1JA 1_555 1_555
C2IA C3IA 1_555 1_555
C3QB C4 1_555 1_555
C3Q C2Q 1_555 1_555
C3DB C2 1_555 1_555
C3RA C2P 1_555 1_555
C3A H1A 1_555 1_555
C3HA C2A 1_555 1_555
C3P C2P 1_555 1_555
C3JB C2JA 1_555 1_555
C3IA H1IA 1_555 1_555
C3BB C2IA 1_555 1_555
C3JA C2JA 1_555 1_555
H1Q C3Q 1_555 1_555
H1DB C3DB 1_555 1_555
H1QB C3QB 1_555 1_555
H1RA C3RA 1_555 1_555
H1HA C3HA 1_555 1_555
H1P C3P 1_555 1_555
H1JB C3JB 1_555 1_555
H1BB C3BB 1_555 1_555
H1JA C3JA 1_555 1_555
C4Q C4 1_555 1_555
C4A C3RA 1_555 1_555
C4P C3HA 1_555 1_555
C4IA C3JB 1_555 1_555
C4JA C3BB 1_555 1_555
Zn1C O2DB 1_555 1_555
O2JA C1JA 1_555 1_555
C3Q C4Q 1_555 1_555
C3DB C4Q 1_555 1_555
C3A C4A 1_555 1_555
C3P C4P 1_555 1_555
C3IA C4IA 1_555 1_555
C3JA C4JA 1_555 1_555
C4A C4P 1_555 1_555
C4IA C4JA 1_555 1_555

#END
