
#######################################################################
#
#                 Cambridge Crystallographic Data Centre
#                                CCDC 
#
#######################################################################
#
# If this CIF has been generated from an entry in the Cambridge 
# Structural Database, then it will include bibliographic, chemical, 
# crystal, experimental, refinement or atomic coordinate data resulting 
# from the CCDC's data processing and validation procedures.
#
#######################################################################

data_AXICOB
_chemical_name_common            CALF-33-Et2H
_chemical_formula_moiety         '(C56 H52 Cu3 O18 P6)n'
_chemical_name_systematic        
'catena-[bis(\m-hydrogen diethyl (benzene-1,3,5-triyltri(4,1-phenylene))tris(phosphonato))-tri-copper unknown solvate]'
_symmetry_cell_setting           triclinic
_symmetry_space_group_name_H-M   'P -1'
_symmetry_Int_Tables_number      2
_space_group_name_Hall           '-P 1'
loop_
_symmetry_equiv_pos_site_id
_symmetry_equiv_pos_as_xyz
1 x,y,z
2 -x,-y,-z
_cell_length_a                   5.08130(10)
_cell_length_b                   15.1585(3)
_cell_length_c                   29.3246(7)
_cell_angle_alpha                83.8820(10)
_cell_angle_beta                 85.7280(10)
_cell_angle_gamma                82.705(2)
_cell_volume                     2223.42
_exptl_crystal_colour            blue
_exptl_crystal_description       block
_cell_formula_units_Z            1
_exptl_crystal_recrystallization_method 'hydrothermal reaction'
loop_
_atom_site_label
_atom_site_type_symbol
_atom_site_fract_x
_atom_site_fract_y
_atom_site_fract_z
Cu1 Cu 0.65110(13) 0.07773(5) 0.46819(3)
Cu2 Cu 1.0000 0.5000 0.0000
P1 P 0.4494(4) 0.54992(18) 0.05686(7)
P2 P 0.1969(3) 1.00095(10) 0.42072(6)
P3 P 1.1090(3) 0.21493(10) 0.47705(6)
O1 O 0.1802(9) 0.5219(4) 0.05189(16)
O2 O 0.4644(15) 0.6556(5) 0.0321(2)
H1 H 0.3134 0.6814 0.0299
O3 O 0.6861(9) 0.4902(3) 0.03936(17)
O4 O 0.9242(7) 0.1455(2) 0.48152(14)
O5 O 1.0640(7) 0.2724(2) 0.51967(14)
O6 O 1.4005(7) 0.1842(2) 0.47472(14)
O7 O -0.0940(7) 1.0004(2) 0.43308(14)
O8 O 0.2204(10) 1.0853(3) 0.38472(16)
O9 O 0.3767(7) 1.0015(2) 0.45981(13)
C1 C 0.4828(13) 0.5576(5) 0.1169(2)
C2 C 0.2946(14) 0.6115(5) 0.1426(3)
H2 H 0.1487 0.6438 0.1288
C3 C 0.3279(14) 0.6161(5) 0.1887(2)
H3 H 0.1994 0.6501 0.2058
C4 C 0.5499(12) 0.5710(4) 0.2100(2)
C5 C 0.7365(14) 0.5187(5) 0.1840(2)
H4 H 0.8843 0.4873 0.1977
C6 C 0.7044(15) 0.5126(5) 0.1378(3)
H5 H 0.8323 0.4782 0.1208
C7 C 0.5925(11) 0.5794(4) 0.2582(2)
C8 C 0.5242(11) 0.6594(4) 0.2776(2)
H6 H 0.4440 0.7084 0.2597
C9 C 0.5713(11) 0.6686(4) 0.3226(2)
C10 C 0.6918(10) 0.5953(4) 0.3495(2)
H7 H 0.7254 0.6012 0.3797
C11 C 0.7629(12) 0.5129(4) 0.3315(2)
C12 C 0.7086(11) 0.5060(4) 0.2864(2)
H8 H 0.7503 0.4512 0.2744
C13 C 0.8775(11) 0.4342(4) 0.3619(2)
C14 C 1.0784(13) 0.4411(4) 0.3899(2)
H9 H 1.1634 0.4925 0.3864
C15 C 1.1552(12) 0.3733(4) 0.4229(2)
H10 H 1.2916 0.3791 0.4414
C16 C 1.0304(10) 0.2959(3) 0.4289(2)
C17 C 0.8417(12) 0.2877(4) 0.3991(2)
H11 H 0.7626 0.2352 0.4015
C18 C 0.7659(13) 0.3549(4) 0.3657(2)
H12 H 0.6394 0.3470 0.3456
C19 C 0.4884(11) 0.7532(4) 0.3447(2)
C20 C 0.2576(11) 0.8089(4) 0.3319(2)
H13 H 0.1641 0.7959 0.3078
C21 C 0.1695(11) 0.8832(4) 0.3550(2)
H14 H 0.0121 0.9183 0.3475
C22 C 0.3163(11) 0.9061(4) 0.3899(2)
C23 C 0.5477(11) 0.8519(4) 0.4012(2)
H15 H 0.6470 0.8657 0.4243
C24 C 0.6299(11) 0.7783(4) 0.3784(2)
H16 H 0.7881 0.7437 0.3860
C25 C 0.7950(13) 0.3059(4) 0.5351(3)
H17 H 0.7713 0.2916 0.5681
H18 H 0.6701 0.2760 0.5207
C26 C 0.7349(17) 0.4035(5) 0.5241(3)
H19 H 0.7255 0.4170 0.4915
H20 H 0.8725 0.4330 0.5345
H21 H 0.5676 0.4239 0.5393
C27 C 0.438(2) 1.1009(6) 0.3576(4)
H22 H 0.5134 1.0458 0.3451
H23 H 0.5689 1.1186 0.3761
C28 C 0.383(2) 1.1731(8) 0.3180(4)
H24 H 0.2658 1.1538 0.2979
H25 H 0.5474 1.1838 0.3012
H26 H 0.3018 1.2273 0.3300
Cu1A Cu 0.34890(13) 0.92227(5) -0.46819(3)
P1A P 0.5506(4) 0.45008(18) -0.05686(7)
P2A P 0.8031(3) -0.00095(10) -0.42072(6)
P3A P -0.1090(3) 0.78507(10) -0.47705(6)
O1A O 0.8198(9) 0.4781(4) -0.05189(16)
O2A O 0.5356(15) 0.3444(5) -0.0321(2)
H1A H 0.6866 0.3186 -0.0299
O3A O 0.3139(9) 0.5098(3) -0.03936(17)
O4A O 0.0758(7) 0.8545(2) -0.48152(14)
O5A O -0.0640(7) 0.7276(2) -0.51967(14)
O6A O -0.4005(7) 0.8158(2) -0.47472(14)
O7A O 1.0940(7) -0.0004(2) -0.43308(14)
O8A O 0.7796(10) -0.0853(3) -0.38472(16)
O9A O 0.6233(7) -0.0015(2) -0.45981(13)
C1A C 0.5172(13) 0.4424(5) -0.1169(2)
C2A C 0.7054(14) 0.3885(5) -0.1426(3)
H2A H 0.8513 0.3562 -0.1288
C3A C 0.6721(14) 0.3839(5) -0.1887(2)
H3A H 0.8006 0.3499 -0.2058
C4A C 0.4501(12) 0.4290(4) -0.2100(2)
C5A C 0.2635(14) 0.4813(5) -0.1840(2)
H4A H 0.1157 0.5127 -0.1977
C6A C 0.2956(15) 0.4874(5) -0.1378(3)
H5A H 0.1677 0.5218 -0.1208
C7A C 0.4075(11) 0.4206(4) -0.2582(2)
C8A C 0.4758(11) 0.3406(4) -0.2776(2)
H6A H 0.5560 0.2916 -0.2597
C9A C 0.4287(11) 0.3314(4) -0.3226(2)
C10A C 0.3082(10) 0.4047(4) -0.3495(2)
H7A H 0.2746 0.3988 -0.3797
C11A C 0.2371(12) 0.4871(4) -0.3315(2)
C12A C 0.2914(11) 0.4940(4) -0.2864(2)
H8A H 0.2497 0.5488 -0.2744
C13A C 0.1225(11) 0.5658(4) -0.3619(2)
C14A C -0.0784(13) 0.5589(4) -0.3899(2)
H9A H -0.1634 0.5075 -0.3864
C15A C -0.1552(12) 0.6267(4) -0.4229(2)
H10A H -0.2916 0.6209 -0.4414
C16A C -0.0304(10) 0.7041(3) -0.4289(2)
C17A C 0.1583(12) 0.7123(4) -0.3991(2)
H11A H 0.2374 0.7648 -0.4015
C18A C 0.2341(13) 0.6451(4) -0.3657(2)
H12A H 0.3606 0.6530 -0.3456
C19A C 0.5116(11) 0.2468(4) -0.3447(2)
C20A C 0.7424(11) 0.1911(4) -0.3319(2)
H13A H 0.8359 0.2041 -0.3078
C21A C 0.8305(11) 0.1168(4) -0.3550(2)
H14A H 0.9879 0.0817 -0.3475
C22A C 0.6837(11) 0.0939(4) -0.3899(2)
C23A C 0.4523(11) 0.1481(4) -0.4012(2)
H15A H 0.3530 0.1343 -0.4243
C24A C 0.3701(11) 0.2217(4) -0.3784(2)
H16A H 0.2119 0.2563 -0.3860
C25A C 0.2050(13) 0.6941(4) -0.5351(3)
H17A H 0.2287 0.7084 -0.5681
H18A H 0.3299 0.7240 -0.5207
C26A C 0.2651(17) 0.5965(5) -0.5241(3)
H19A H 0.2745 0.5830 -0.4915
H20A H 0.1275 0.5670 -0.5345
H21A H 0.4324 0.5761 -0.5393
C27A C 0.562(2) -0.1009(6) -0.3576(4)
H22A H 0.4866 -0.0458 -0.3451
H23A H 0.4311 -0.1186 -0.3761
C28A C 0.617(2) -0.1731(8) -0.3180(4)
H24A H 0.7342 -0.1538 -0.2979
H25A H 0.4526 -0.1838 -0.3012
H26A H 0.6982 -0.2273 -0.3300
Cu1_2 Cu -0.34890(13) 1.07773(5) 0.46819(3)
Cu1_3 Cu 0.65110(13) 0.07773(5) -0.53181(3)
Cu1_4 Cu 0.65110(13) 1.07773(5) 0.46819(3)
Cu1_5 Cu 1.65110(13) 0.07773(5) 0.46819(3)
Cu1A_2 Cu -0.65110(13) 0.92227(5) -0.46819(3)
Cu1A_3 Cu 0.34890(13) -0.07773(5) -0.46819(3)
Cu1A_4 Cu 0.34890(13) 0.92227(5) 0.53181(3)
Cu1A_5 Cu 1.34890(13) -0.07773(5) -0.46819(3)
Cu2_2 Cu 0.0000 0.5000 0.0000
O1_2 O 1.1802(9) 0.5219(4) 0.05189(16)
O3A_2 O 1.3139(9) 0.5098(3) -0.03936(17)
O6_2 O 0.4005(7) 0.1842(2) 0.47472(14)
O6A_2 O 0.5995(7) 0.8158(2) -0.47472(14)
O7_2 O 0.9060(7) 0.0004(2) 0.43308(14)
O7A_2 O 0.0940(7) 0.9996(2) -0.43308(14)
O9_2 O 0.3767(7) 0.0015(2) 0.45981(13)
O9_3 O 0.3767(7) 1.0015(2) -0.54019(13)
O9A_2 O 0.6233(7) -0.0015(2) 0.54019(13)
O9A_3 O 0.6233(7) 0.9985(2) -0.45981(13)
loop_
_geom_bond_atom_site_label_1
_geom_bond_atom_site_label_2
_geom_bond_site_symmetry_1
_geom_bond_site_symmetry_2
Cu1 O4 1_555 1_555
Cu2 O3 1_555 1_555
P1 O1 1_555 1_555
P2 O7 1_555 1_555
P3 O4 1_555 1_555
O1 Cu2_2 1_555 1_555
O2 P1 1_555 1_555
H1 O2 1_555 1_555
O3 P1 1_555 1_555
O5 P3 1_555 1_555
O6 P3 1_555 1_555
O7 Cu1_2 1_555 1_555
O8 P2 1_555 1_555
O9 P2 1_555 1_555
C1 P1 1_555 1_555
C2 C1 1_555 1_555
H2 C2 1_555 1_555
C3 C2 1_555 1_555
H3 C3 1_555 1_555
C4 C3 1_555 1_555
C5 C4 1_555 1_555
H4 C5 1_555 1_555
C6 C1 1_555 1_555
H5 C6 1_555 1_555
C7 C4 1_555 1_555
C8 C7 1_555 1_555
H6 C8 1_555 1_555
C9 C8 1_555 1_555
C10 C9 1_555 1_555
H7 C10 1_555 1_555
C11 C10 1_555 1_555
C12 C7 1_555 1_555
H8 C12 1_555 1_555
C13 C11 1_555 1_555
C14 C13 1_555 1_555
H9 C14 1_555 1_555
C15 C14 1_555 1_555
H10 C15 1_555 1_555
C16 P3 1_555 1_555
C17 C16 1_555 1_555
H11 C17 1_555 1_555
C18 C13 1_555 1_555
H12 C18 1_555 1_555
C19 C9 1_555 1_555
C20 C19 1_555 1_555
H13 C20 1_555 1_555
C21 C20 1_555 1_555
H14 C21 1_555 1_555
C22 P2 1_555 1_555
C23 C22 1_555 1_555
H15 C23 1_555 1_555
C24 C19 1_555 1_555
H16 C24 1_555 1_555
C25 O5 1_555 1_555
H17 C25 1_555 1_555
H18 C25 1_555 1_555
C26 C25 1_555 1_555
H19 C26 1_555 1_555
H20 C26 1_555 1_555
H21 C26 1_555 1_555
C27 O8 1_555 1_555
H22 C27 1_555 1_555
H23 C27 1_555 1_555
C28 C27 1_555 1_555
H24 C28 1_555 1_555
H25 C28 1_555 1_555
H26 C28 1_555 1_555
Cu1A O4A 1_555 1_555
P1A O1A 1_555 1_555
P2A O7A 1_555 1_555
P3A O4A 1_555 1_555
O1A Cu2 1_555 1_555
O2A P1A 1_555 1_555
H1A O2A 1_555 1_555
O3A P1A 1_555 1_555
O5A P3A 1_555 1_555
O6A P3A 1_555 1_555
O7A Cu1A_5 1_555 1_555
O8A P2A 1_555 1_555
O9A P2A 1_555 1_555
C1A P1A 1_555 1_555
C2A C1A 1_555 1_555
H2A C2A 1_555 1_555
C3A C2A 1_555 1_555
H3A C3A 1_555 1_555
C4A C3A 1_555 1_555
C5A C4A 1_555 1_555
H4A C5A 1_555 1_555
C6A C1A 1_555 1_555
H5A C6A 1_555 1_555
C7A C4A 1_555 1_555
C8A C7A 1_555 1_555
H6A C8A 1_555 1_555
C9A C8A 1_555 1_555
C10A C9A 1_555 1_555
H7A C10A 1_555 1_555
C11A C10A 1_555 1_555
C12A C7A 1_555 1_555
H8A C12A 1_555 1_555
C13A C11A 1_555 1_555
C14A C13A 1_555 1_555
H9A C14A 1_555 1_555
C15A C14A 1_555 1_555
H10A C15A 1_555 1_555
C16A P3A 1_555 1_555
C17A C16A 1_555 1_555
H11A C17A 1_555 1_555
C18A C13A 1_555 1_555
H12A C18A 1_555 1_555
C19A C9A 1_555 1_555
C20A C19A 1_555 1_555
H13A C20A 1_555 1_555
C21A C20A 1_555 1_555
H14A C21A 1_555 1_555
C22A P2A 1_555 1_555
C23A C22A 1_555 1_555
H15A C23A 1_555 1_555
C24A C19A 1_555 1_555
H16A C24A 1_555 1_555
C25A O5A 1_555 1_555
H17A C25A 1_555 1_555
H18A C25A 1_555 1_555
C26A C25A 1_555 1_555
H19A C26A 1_555 1_555
H20A C26A 1_555 1_555
H21A C26A 1_555 1_555
C27A O8A 1_555 1_555
H22A C27A 1_555 1_555
H23A C27A 1_555 1_555
C28A C27A 1_555 1_555
H24A C28A 1_555 1_555
H25A C28A 1_555 1_555
H26A C28A 1_555 1_555
Cu1_3 O9A 1_555 1_555
Cu1_4 O9 1_555 1_555
Cu1_5 O6 1_555 1_555
Cu1A_2 O6A 1_555 1_555
Cu1A_3 O9A 1_555 1_555
Cu1A_4 O9 1_555 1_555
Cu2_2 O3A 1_555 1_555
O1_2 Cu2 1_555 1_555
O3A_2 Cu2 1_555 1_555
O6_2 Cu1 1_555 1_555
O6A_2 Cu1A 1_555 1_555
O7_2 Cu1 1_555 1_555
O7A_2 Cu1A 1_555 1_555
O9_2 Cu1 1_555 1_555
O9_3 Cu1A 1_555 1_555
O9A_2 Cu1 1_555 1_555
O9A_3 Cu1A 1_555 1_555
C5 C6 1_555 1_555
C11 C12 1_555 1_555
C15 C16 1_555 1_555
C17 C18 1_555 1_555
C21 C22 1_555 1_555
C23 C24 1_555 1_555
C5A C6A 1_555 1_555
C11A C12A 1_555 1_555
C15A C16A 1_555 1_555
C17A C18A 1_555 1_555
C21A C22A 1_555 1_555
C23A C24A 1_555 1_555

#END
