
#######################################################################
#
#                 Cambridge Crystallographic Data Centre
#                                CCDC 
#
#######################################################################
#
# If this CIF has been generated from an entry in the Cambridge 
# Structural Database, then it will include bibliographic, chemical, 
# crystal, experimental, refinement or atomic coordinate data resulting 
# from the CCDC's data processing and validation procedures.
#
#######################################################################

data_DAJBOH
_chemical_formula_moiety         '(C53 H32 Cu2 O10)n,4n(C2 H6 O1)'
_chemical_name_systematic        
"catena-((\m~8~-4,4',4'',4'''-(9,9'-Spriobi(fluorene)-2,2',7,7'-tetrayl)tetrabenzoato)-diaqua-di-copper ethanol solvate)"
_symmetry_cell_setting           monoclinic
_symmetry_space_group_name_H-M   'P 2/c'
_symmetry_Int_Tables_number      13
_space_group_name_Hall           '-P 2yc'
loop_
_symmetry_equiv_pos_site_id
_symmetry_equiv_pos_as_xyz
1 x,y,z
2 -x,y,1/2-z
3 -x,-y,-z
4 x,-y,1/2+z
_cell_length_a                   13.698(5)
_cell_length_b                   16.631(5)
_cell_length_c                   14.562(5)
_cell_angle_alpha                90
_cell_angle_beta                 95.825(5)
_cell_angle_gamma                90
_cell_volume                     3300.26
_exptl_crystal_colour            blue
_exptl_crystal_description       block
_cell_formula_units_Z            2
loop_
_atom_site_label
_atom_site_type_symbol
_atom_site_fract_x
_atom_site_fract_y
_atom_site_fract_z
Cu1 Cu -0.45149(2) 0.476409(19) 0.07768(2)
O1 O -0.38720(17) 0.39994(13) 0.00207(14)
C1 C 0.0000 -0.0009(2) -0.2500
C2 C 0.0098(2) -0.05319(15) -0.33454(18)
C3 C -0.0910(2) 0.04870(15) -0.28288(18)
O2 O -0.46817(16) 0.44141(13) -0.12967(14)
C4 C -0.0678(2) -0.03971(16) -0.40178(19)
C5 C 0.1468(2) -0.22037(18) -0.4398(2)
C6 C -0.1302(2) 0.02425(16) -0.37112(19)
C7 C -0.0750(2) -0.08472(19) -0.4832(2)
H1 H -0.1345 -0.0735 -0.5383
C8 C 0.2898(2) -0.33759(18) -0.4659(2)
C9 C 0.0727(2) -0.15801(18) -0.4265(2)
C10 C -0.4084(2) 0.39644(17) -0.0845(2)
O3 O 0.35472(17) -0.44219(14) -0.55064(17)
C11 C -0.2174(2) 0.14889(18) -0.2809(2)
C12 C 0.0801(2) -0.11169(16) -0.34444(19)
H2 H 0.1403 -0.1219 -0.2898
C13 C -0.3658(2) 0.33327(19) -0.2314(2)
H3 H -0.4088 0.3803 -0.2701
C14 C -0.2123(2) 0.06213(19) -0.4136(2)
H4 H -0.2433 0.0435 -0.4830
O4 O 0.43795(17) -0.40172(13) -0.42061(16)
O5 O -0.38435(19) 0.43942(17) 0.21303(16)
C15 C -0.2648(2) 0.21433(18) -0.2309(2)
C16 C -0.1330(2) 0.11130(16) -0.23867(19)
H5 H -0.1003 0.1316 -0.1705
C17 C -0.0058(2) -0.14371(18) -0.4929(2)
H6 H -0.0130 -0.1809 -0.5557
C18 C -0.3587(2) 0.33373(18) -0.1362(2)
C19 C 0.2434(3) -0.2132(2) -0.3982(3)
H7 H 0.2642 -0.1605 -0.3548
C20 C -0.2552(2) 0.12361(19) -0.3682(2)
H8 H -0.3211 0.1533 -0.4020
C21 C 0.3664(2) -0.39848(18) -0.4795(2)
C22 C -0.2588(3) 0.2142(2) -0.1352(2)
H9 H -0.2172 0.1664 -0.0963
C23 C -0.3199(2) 0.27504(19) -0.2790(2)
H10 H -0.3264 0.2762 -0.3549
C24 C -0.3039(3) 0.2726(2) -0.0883(2)
H11 H -0.2972 0.2716 -0.0124
C25 C 0.1248(3) -0.2878(2) -0.4937(3)
H12 H 0.0494 -0.2961 -0.5261
C26 C 0.1949(3) -0.3448(2) -0.5080(3)
H13 H 0.1752 -0.3965 -0.5532
C27 C 0.3129(3) -0.2718(2) -0.4111(3)
H14 H 0.3878 -0.2653 -0.3769
Cu1A Cu 0.45149(2) 0.476409(19) -0.57768(2)
Cu1B Cu -0.54851(2) 0.523591(19) -0.07768(2)
Cu1A_2 Cu 0.45149(2) -0.523591(19) -0.57768(2)
Cu1C Cu 0.54851(2) -0.476409(19) -0.42232(2)
Cu1C_2 Cu 0.54851(2) 0.523591(19) -0.42232(2)
Cu1_2 Cu -0.45149(2) -0.523591(19) 0.07768(2)
Cu1B_2 Cu -0.54851(2) -0.476409(19) -0.07768(2)
O1A O 0.38720(17) 0.39994(13) -0.50207(14)
C2A C -0.0098(2) -0.05319(15) -0.16546(18)
C3A C 0.0910(2) 0.04870(15) -0.21712(18)
O2A O 0.46817(16) 0.44141(13) -0.37033(14)
O2B O -0.53183(16) 0.55859(13) 0.12967(14)
O2C O 0.53183(16) 0.55859(13) -0.62967(14)
C4A C 0.0678(2) -0.03971(16) -0.09822(19)
C5A C -0.1468(2) -0.22037(18) -0.0602(2)
C6A C 0.1302(2) 0.02425(16) -0.12888(19)
C7A C 0.0750(2) -0.08472(19) -0.0168(2)
H1A H 0.1345 -0.0735 0.0383
C8A C -0.2898(2) -0.33759(18) -0.0341(2)
C9A C -0.0727(2) -0.15801(18) -0.0735(2)
C10A C 0.4084(2) 0.39644(17) -0.4155(2)
O3A O -0.35472(17) -0.44219(14) 0.05064(17)
O3A_2 O -0.35472(17) 0.55781(14) 0.05064(17)
O3_2 O 0.35472(17) 0.55781(14) -0.55064(17)
C11A C 0.2174(2) 0.14889(18) -0.2191(2)
C12A C -0.0801(2) -0.11169(16) -0.15556(19)
H2A H -0.1403 -0.1219 -0.2102
C13A C 0.3658(2) 0.33327(19) -0.2686(2)
H3A H 0.4088 0.3803 -0.2299
C14A C 0.2123(2) 0.06213(19) -0.0864(2)
H4A H 0.2433 0.0435 -0.0170
O4A O -0.43795(17) -0.40172(13) -0.07939(16)
O4C O -0.56205(17) 0.40172(13) 0.07939(16)
O4B O 0.56205(17) 0.40172(13) -0.57939(16)
O5A O 0.38435(19) 0.43942(17) -0.71303(16)
C15A C 0.2648(2) 0.21433(18) -0.2691(2)
C16A C 0.1330(2) 0.11130(16) -0.26133(19)
H5A H 0.1003 0.1316 -0.3295
C17A C 0.0058(2) -0.14371(18) -0.0071(2)
H6A H 0.0130 -0.1809 0.0557
C18A C 0.3587(2) 0.33373(18) -0.3638(2)
C19A C -0.2434(3) -0.2132(2) -0.1018(3)
H7A H -0.2642 -0.1605 -0.1452
C20A C 0.2552(2) 0.12361(19) -0.1318(2)
H8A H 0.3211 0.1533 -0.0980
C21A C -0.3664(2) -0.39848(18) -0.0205(2)
C22A C 0.2588(3) 0.2142(2) -0.3648(2)
H9A H 0.2172 0.1664 -0.4037
C23A C 0.3199(2) 0.27504(19) -0.2210(2)
H10A H 0.3264 0.2762 -0.1451
C24A C 0.3039(3) 0.2726(2) -0.4117(2)
H11A H 0.2972 0.2716 -0.4876
C25A C -0.1248(3) -0.2878(2) -0.0063(3)
H12A H -0.0494 -0.2961 0.0261
C26A C -0.1949(3) -0.3448(2) 0.0080(3)
H13A H -0.1752 -0.3965 0.0532
C27A C -0.3129(3) -0.2718(2) -0.0889(3)
H14A H -0.3878 -0.2653 -0.1231
loop_
_geom_bond_atom_site_label_1
_geom_bond_atom_site_label_2
_geom_bond_site_symmetry_1
_geom_bond_site_symmetry_2
Cu1 O1 1_555 1_555
O1 C10 1_555 1_555
C1 C2 1_555 1_555
C2 C4 1_555 1_555
C3 C1 1_555 1_555
O2 C10 1_555 1_555
C4 C6 1_555 1_555
C5 C9 1_555 1_555
C6 C3 1_555 1_555
C7 C4 1_555 1_555
H1 C7 1_555 1_555
C8 C21 1_555 1_555
C9 C12 1_555 1_555
C10 C18 1_555 1_555
O3 C21 1_555 1_555
C11 C15 1_555 1_555
C12 C2 1_555 1_555
H2 C12 1_555 1_555
C13 H3 1_555 1_555
C14 C6 1_555 1_555
H4 C14 1_555 1_555
O4 C21 1_555 1_555
O5 Cu1 1_555 1_555
C15 C22 1_555 1_555
C16 C3 1_555 1_555
H5 C16 1_555 1_555
C17 C7 1_555 1_555
H6 C17 1_555 1_555
C18 C13 1_555 1_555
C19 C5 1_555 1_555
H7 C19 1_555 1_555
C20 C11 1_555 1_555
H8 C20 1_555 1_555
C22 H9 1_555 1_555
C23 C13 1_555 1_555
H10 C23 1_555 1_555
C24 C18 1_555 1_555
H11 C24 1_555 1_555
C25 C5 1_555 1_555
H12 C25 1_555 1_555
C26 C8 1_555 1_555
H13 C26 1_555 1_555
C27 C8 1_555 1_555
H14 C27 1_555 1_555
Cu1A O1A 1_555 1_555
Cu1B O2 1_555 1_555
Cu1A_2 O3 1_555 1_555
Cu1C O4 1_555 1_555
Cu1C_2 O2A 1_555 1_555
Cu1_2 O3A 1_555 1_555
Cu1B_2 O4A 1_555 1_555
O1A C10A 1_555 1_555
C2A C1 1_555 1_555
C3A C1 1_555 1_555
O2A C10A 1_555 1_555
O2B Cu1 1_555 1_555
O2C Cu1A 1_555 1_555
C4A C2A 1_555 1_555
C5A C9A 1_555 1_555
C6A C3A 1_555 1_555
C7A C4A 1_555 1_555
H1A C7A 1_555 1_555
C8A C21A 1_555 1_555
C9A C12A 1_555 1_555
C10A C18A 1_555 1_555
O3A C21A 1_555 1_555
O3A_2 Cu1 1_555 1_555
O3_2 Cu1A 1_555 1_555
C11A C15A 1_555 1_555
C12A C2A 1_555 1_555
H2A C12A 1_555 1_555
C13A H3A 1_555 1_555
C14A C6A 1_555 1_555
H4A C14A 1_555 1_555
O4A C21A 1_555 1_555
O4C Cu1 1_555 1_555
O4B Cu1A 1_555 1_555
O5A Cu1A 1_555 1_555
C15A C22A 1_555 1_555
C16A C3A 1_555 1_555
H5A C16A 1_555 1_555
C17A C7A 1_555 1_555
H6A C17A 1_555 1_555
C18A C13A 1_555 1_555
C19A C5A 1_555 1_555
H7A C19A 1_555 1_555
C20A C11A 1_555 1_555
H8A C20A 1_555 1_555
C22A H9A 1_555 1_555
C23A C13A 1_555 1_555
H10A C23A 1_555 1_555
C24A C18A 1_555 1_555
H11A C24A 1_555 1_555
C25A C5A 1_555 1_555
H12A C25A 1_555 1_555
C26A C8A 1_555 1_555
H13A C26A 1_555 1_555
C27A C8A 1_555 1_555
H14A C27A 1_555 1_555
C9 C17 1_555 1_555
C11 C16 1_555 1_555
C14 C20 1_555 1_555
C15 C23 1_555 1_555
C19 C27 1_555 1_555
C22 C24 1_555 1_555
C25 C26 1_555 1_555
C4A C6A 1_555 1_555
C9A C17A 1_555 1_555
C11A C16A 1_555 1_555
C14A C20A 1_555 1_555
C15A C23A 1_555 1_555
C19A C27A 1_555 1_555
C22A C24A 1_555 1_555
C25A C26A 1_555 1_555

#END
