
#######################################################################
#
#                 Cambridge Crystallographic Data Centre
#                                CCDC 
#
#######################################################################
#
# If this CIF has been generated from an entry in the Cambridge 
# Structural Database, then it will include bibliographic, chemical, 
# crystal, experimental, refinement or atomic coordinate data resulting 
# from the CCDC's data processing and validation procedures.
#
#######################################################################

data_PUYREH
_chemical_formula_moiety         '(C11 H11 Cu1 N1 O5)n'
_chemical_name_systematic        
catena-((\m~4~-terephthalato)-(N,N-dimethylformamide)-copper(ii))
_symmetry_cell_setting           monoclinic
_symmetry_space_group_name_H-M   'C 2/m'
_symmetry_Int_Tables_number      12
_space_group_name_Hall           '-C 2y'
loop_
_symmetry_equiv_pos_site_id
_symmetry_equiv_pos_as_xyz
1 x,y,z
2 -x,y,-z
3 1/2+x,1/2+y,z
4 1/2-x,1/2+y,-z
5 -x,-y,-z
6 x,-y,z
7 1/2-x,1/2-y,-z
8 1/2+x,1/2-y,z
_cell_length_a                   11.4143(3)
_cell_length_b                   14.2687(4)
_cell_length_c                   7.7800(2)
_cell_angle_alpha                90
_cell_angle_beta                 108.119(1)
_cell_angle_gamma                90
_cell_volume                     1204.27
_exptl_crystal_colour            blue
_exptl_crystal_description       irregular
_cell_formula_units_Z            4
loop_
_atom_site_label
_atom_site_type_symbol
_atom_site_fract_x
_atom_site_fract_y
_atom_site_fract_z
_atom_site_U_iso_or_equiv
_atom_site_thermal_displace_type
C1 C -0.1128(3) 0.1211(2) 0.2751(4) 0.0252 Uani
C2 C -0.1841(3) 0.1882(3) 0.1330(4) 0.0340 Uani
C3 C -0.1649(3) 0.1897(3) -0.0355(4) 0.0398 Uani
C4 C -0.2697(3) 0.2490(3) 0.1667(4) 0.0394 Uani
C5 C 0.3286(5) 0.0678(4) 0.3986(8) 0.0196 Uani
Cu1 Cu 0.08877(4) 0.0000 0.42533(5) 0.0084 Uiso
H1 H -0.1137 0.1482 -0.0724 0.0100 Uiso
H2 H -0.2856 0.2431 0.2808 0.0100 Uiso
N1 N 0.4244(4) 0.0863(4) 0.3416(7) 0.0285 Uani
O1 O -0.01078(19) 0.09434(16) 0.2657(3) 0.0267 Uani
O2 O -0.1613(2) 0.09633(17) 0.3928(3) 0.0333 Uani
O3 O 0.2426(3) 0.0000 0.3208(4) 0.0386 Uani
H3 H 0.3574 0.1040 0.5183 0.0460 Uiso
C1F C -0.3872(3) 0.3789(2) -0.2751(4) 0.0252 Uani
C2F C -0.3159(3) 0.3118(3) -0.1330(4) 0.0340 Uani
C3F C -0.3351(3) 0.3103(3) 0.0355(4) 0.0398 Uani
C4F C -0.2303(3) 0.2510(3) -0.1667(4) 0.0394 Uani
H1F H -0.3863 0.3518 0.0724 0.0100 Uiso
H2F H -0.2144 0.2569 -0.2808 0.0100 Uiso
O1F O -0.48922(19) 0.40566(16) -0.2657(3) 0.0267 Uani
O2F O -0.3387(2) 0.40367(17) -0.3928(3) 0.0333 Uani
C5E C 0.3286(5) -0.0678(4) 0.3986(8) 0.0196 Uani
N1E N 0.4244(4) -0.0863(4) 0.3416(7) 0.0285 Uani
H3E H 0.3574 -0.1040 0.5183 0.0460 Uiso
Cu1A Cu -0.08877(4) 0.0000 0.57467(5) 0.0084 Uiso
Cu1B Cu -0.41123(4) 0.5000 -0.57467(5) 0.0084 Uiso
Cu1C Cu -0.58877(4) 0.5000 -0.42533(5) 0.0084 Uiso
O1E O -0.01078(19) -0.09434(16) 0.2657(3) 0.0267 Uani
O2A O 0.1613(2) 0.09633(17) 0.6072(3) 0.0333 Uani
O2D O 0.1613(2) -0.09633(17) 0.6072(3) 0.0333 Uani
C6? C 0.5176(6) 0.1532(5) 0.4401(11) 0.0424 Uani
C7? C 0.4314(6) 0.0495(5) 0.1721(10) 0.0484 Uani
H4? H 0.4982 0.0000 0.1884 0.0460 Uiso
H5? H 0.3643 0.0000 0.1168 0.0460 Uiso
H6? H 0.5151 0.2073 0.3790 0.0460 Uiso
H7? H 0.4117 0.1093 0.0801 0.0460 Uiso
loop_
_atom_site_aniso_label
_atom_site_aniso_U_11
_atom_site_aniso_U_22
_atom_site_aniso_U_33
_atom_site_aniso_U_23
_atom_site_aniso_U_13
_atom_site_aniso_U_12
C1 0.0400(19) 0.022(2) 0.0166(14) 0.0096(14) 0.0131(14) 0.0202(15)
C2 0.050(2) 0.038(2) 0.0203(16) 0.0180(15) 0.0200(15) 0.0326(18)
C3 0.057(2) 0.047(3) 0.0238(17) 0.0190(17) 0.0246(16) 0.044(2)
C4 0.06 0.047 0.0209 0.0211 0.0267 0.041
C5 0.017(3) 0.016(4) 0.028(3) 0.004(3) 0.010(3) 0.000(3)
N1 0.017(3) 0.030(3) 0.043(3) 0.009(3) 0.016(2) 0.001(2)
O1 0.0338(12) 0.0280(14) 0.0235(11) 0.0160(10) 0.0163(9) 0.0176(10)
O2 0.0397(13) 0.0444(16) 0.0221(11) 0.0232(11) 0.0186(10) 0.0304(11)
O3 0.0152(15) 0.082(3) 0.0214(16) 0.000 0.0097(13) 0.000
C1F 0.04 0.022 0.0166 0.0096 0.0131 0.0202
C2F 0.05 0.038 0.0203 0.018 0.02 0.0326
C3F 0.057 0.047 0.0238 0.019 0.0246 0.044
C4F 0.06 0.047 0.0209 0.0211 0.0267 0.041
O1F 0.0338 0.028 0.0235 0.016 0.0163 0.0176
O2F 0.0397 0.0444 0.0221 0.0232 0.0186 0.0304
C5E 0.017 0.016 0.028 -0.004 0.01 0
N1E 0.017 0.03 0.043 -0.009 0.016 -0.001
O1E 0.0338 0.028 0.0235 -0.016 0.0163 -0.0176
O2A 0.0397 0.0444 0.0221 -0.0232 0.0186 -0.0304
O2D 0.0397 0.0444 0.0221 0.0232 0.0186 0.0304
C6? 0.023(4) 0.028(4) 0.076(6) 0.008(4) 0.015(3) -0.012(3)
C7? 0.037(4) 0.076(6) 0.043(4) -0.002(4) 0.028(3) 0.002(4)
loop_
_geom_bond_atom_site_label_1
_geom_bond_atom_site_label_2
_geom_bond_site_symmetry_1
_geom_bond_site_symmetry_2
C1 C2 1_555 1_555
C2 C3 1_555 1_555
C3 H1 1_555 1_555
C4 C2 1_555 1_555
C5 N1 1_555 1_555
Cu1 O1 1_555 1_555
H2 C4 1_555 1_555
O1 C1 1_555 1_555
O2 C1 1_555 1_555
O3 C5 1_555 1_555
H3 C5 1_555 1_555
C1F C2F 1_555 1_555
C2F C3F 1_555 1_555
C3F C4 1_555 1_555
C4F C3 1_555 1_555
H1F C3F 1_555 1_555
H2F C4F 1_555 1_555
O1F C1F 1_555 1_555
O2F C1F 1_555 1_555
C5E O3 1_555 1_555
N1E C5E 1_555 1_555
H3E C5E 1_555 1_555
Cu1A O2 1_555 1_555
Cu1B O2F 1_555 1_555
Cu1C O1F 1_555 1_555
O1E Cu1 1_555 1_555
O2A Cu1 1_555 1_555
O2D Cu1 1_555 1_555
Cu1 O3 1_555 1_555
C2F C4F 1_555 1_555

#END
