
#######################################################################
#
#                 Cambridge Crystallographic Data Centre
#                                CCDC 
#
#######################################################################
#
# If this CIF has been generated from an entry in the Cambridge 
# Structural Database, then it will include bibliographic, chemical, 
# crystal, experimental, refinement or atomic coordinate data resulting 
# from the CCDC's data processing and validation procedures.
#
#######################################################################

data_DUTLAH
_chemical_formula_moiety         '(C52 H36 Cd2 N8 O12 S2)n'
_chemical_name_systematic        
catena-[bis(\m-3,3'-(hydrazine-1,2-diylidenedimethylylidene)dipyridine)-bis(\m-4,4'-sulfonyldibenzoato)-di-cadmium]
_symmetry_cell_setting           monoclinic
_symmetry_space_group_name_H-M   'P 21/n'
_symmetry_Int_Tables_number      14
_space_group_name_Hall           '-P 2yn'
loop_
_symmetry_equiv_pos_site_id
_symmetry_equiv_pos_as_xyz
1 x,y,z
2 1/2-x,1/2+y,1/2-z
3 -x,-y,-z
4 1/2+x,1/2-y,1/2+z
_cell_length_a                   13.0805(4)
_cell_length_b                   25.5412(9)
_cell_length_c                   19.3453(7)
_cell_angle_alpha                90
_cell_angle_beta                 104.735(2)
_cell_angle_gamma                90
_cell_volume                     6250.55
_exptl_crystal_colour            yellow
_exptl_crystal_description       block
_cell_formula_units_Z            4
loop_
_atom_site_label
_atom_site_type_symbol
_atom_site_fract_x
_atom_site_fract_y
_atom_site_fract_z
Cd1 Cd 0.60877(2) 1.04972(2) 0.79348(2)
Cd2 Cd 0.55517(2) 0.94495(2) 0.63009(2)
S1 S 1.09426(7) 0.80532(4) 0.83265(5)
S2 S 0.04900(7) 1.18734(4) 0.57170(6)
C1 C 0.3355(3) 1.08080(13) 0.61669(18)
C2 C 0.9873(3) 0.84866(13) 0.82190(19)
C3 C 1.0731(3) 0.68335(14) 0.99652(19)
C4 C 0.4302(3) 1.04488(15) 0.63255(19)
C5 C 0.0773(3) 1.32074(14) 0.42382(19)
C6 C 0.0840(3) 1.36629(15) 0.3751(2)
C7 C 0.2513(3) 1.07143(14) 0.55871(19)
H1 H 0.2522 1.0423 0.5300
C8 C 0.7325(3) 0.95651(16) 0.7956(2)
C9 C 0.8214(3) 0.91767(14) 0.80483(19)
C10 C 0.1654(3) 1.10510(14) 0.5430(2)
H2 H 0.1096 1.0992 0.5031
C11 C 0.9979(3) 0.89167(14) 0.8663(2)
H3 H 1.0601 0.8972 0.9015
C12 C 0.0632(3) 1.23845(13) 0.51342(19)
C13 C 0.3328(3) 1.12381(14) 0.65928(19)
H4 H 0.3897 1.1305 0.6982
C14 C 0.9144(3) 0.92659(14) 0.8576(2)
H5 H 0.9204 0.9559 0.8870
C15 C 1.0809(3) 0.76037(13) 0.89861(19)
C16 C 0.1631(3) 1.14730(13) 0.58664(19)
C17 C 0.1102(3) 1.32640(14) 0.4972(2)
H6 H 0.1378 1.3583 0.5166
C18 C 0.1028(3) 1.28587(14) 0.5416(2)
H7 H 0.1245 1.2903 0.5909
C19 C 0.8130(3) 0.87467(14) 0.76082(19)
H8 H 0.7512 0.8690 0.7253
C20 C 1.0151(3) 0.71885(15) 0.8786(2)
H9 H 0.9736 0.7164 0.8319
C21 C 0.8343(3) 1.08664(15) 0.76078(18)
H10 H 0.8588 1.0545 0.7808
C22 C 0.9051(3) 1.11979(17) 0.7393(2)
C23 C 1.1366(3) 0.72598(16) 1.0169(2)
H11 H 1.1776 0.7287 1.0637
C24 C 1.0725(3) 0.63890(15) 1.0474(2)
C25 C 0.0357(3) 1.27317(16) 0.3956(2)
H12 H 0.0115 1.2692 0.3463
C26 C 1.0097(3) 0.68036(15) 0.9277(2)
H13 H 0.9634 0.6524 0.9143
C27 C 0.2466(3) 1.15704(14) 0.64485(19)
H14 H 0.2450 1.1857 0.6742
C28 C 1.1402(3) 0.76554(15) 0.9676(2)
H15 H 1.1824 0.7950 0.9816
C29 C 0.0301(3) 1.23145(16) 0.4402(2)
H16 H 0.0044 1.1992 0.4212
C30 C 0.8956(3) 0.84006(14) 0.76913(19)
H17 H 0.8898 0.8110 0.7394
C31 C 0.7005(3) 1.14546(17) 0.7255(2)
H18 H 0.6303 1.1548 0.7206
C32 C 1.0161(3) 1.10393(18) 0.7482(2)
H19 H 1.0648 1.1279 0.7395
C33 C 0.8693(3) 1.16745(18) 0.7114(2)
H20 H 0.9151 1.1910 0.6983
C34 C 0.7649(3) 1.18021(19) 0.7030(3)
H21 H 0.7384 1.2119 0.6824
O1 O 0.51182(18) 1.05925(9) 0.67820(12)
O2 O 0.1474(2) 1.40279(9) 0.40086(13)
O3 O 0.42264(17) 1.00267(9) 0.59843(13)
O4 O 0.65216(19) 0.95146(10) 0.74515(13)
O5 O 1.00982(19) 0.60174(9) 1.02532(12)
O6 O 1.13378(19) 0.64000(9) 1.10905(13)
O7 O 0.02722(19) 1.36684(9) 0.31272(13)
O8 O 1.08130(19) 0.77663(9) 0.76634(12)
O9 O 0.74388(18) 0.99350(10) 0.84024(14)
O10 O 1.19060(17) 0.83419(9) 0.85944(13)
N1 N 1.4732(2) 1.00029(11) 0.81581(15)
N2 N 0.7330(2) 1.09888(12) 0.75396(15)
N3 N 0.6928(2) 0.99059(11) 0.60271(14)
N4 N 1.4390(2) 0.89203(12) 0.67501(15)
N5 N 1.1545(2) 1.04999(14) 0.77427(18)
N6 N 1.0449(2) 1.05813(14) 0.76738(19)
C35 C 1.3735(3) 1.01645(14) 0.80137(19)
H22 H 1.3582 1.0499 0.7828
C36 C 0.7931(3) 0.97448(14) 0.61835(18)
H23 H 0.8097 0.9425 0.6416
C37 C 1.4053(3) 0.81161(16) 0.7282(2)
H24 H 1.4314 0.7805 0.7510
C38 C 1.3364(3) 0.90340(14) 0.66220(18)
H25 H 1.3127 0.9349 0.6396
C39 C 1.4948(3) 0.95192(16) 0.84253(19)
H26 H 1.5643 0.9401 0.8525
C40 C 0.8742(3) 1.00311(14) 0.60164(19)
C41 C 0.7453(3) 1.06791(15) 0.5515(2)
H27 H 0.7265 1.0998 0.5286
C42 C 0.6707(3) 1.03688(14) 0.56962(18)
H28 H 0.6010 1.0485 0.5583
C43 C 0.8484(3) 1.05101(15) 0.5680(2)
H29 H 0.9005 1.0716 0.5566
C44 C 1.2909(3) 0.98622(15) 0.8125(2)
C45 C 1.4187(3) 0.91915(16) 0.8558(2)
H30 H 1.4362 0.8859 0.8747
C46 C 1.4717(3) 0.84685(16) 0.7081(2)
H31 H 1.5433 0.8388 0.7180
O11 O 0.04847(19) 1.21134(9) 0.63924(14)
O12 O -0.03945(19) 1.15604(9) 0.53477(15)
C47 C 1.2629(3) 0.87034(15) 0.68097(19)
C48 C 1.1504(3) 0.88548(16) 0.6677(2)
H32 H 1.1016 0.8618 0.6772
C49 C 1.2991(3) 0.82347(15) 0.7138(2)
H33 H 1.2522 0.8001 0.7261
N7 N 1.1203(2) 0.93055(13) 0.64355(17)
C50 C 0.9837(3) 0.98431(16) 0.61605(19)
H34 H 1.0360 1.0077 0.6114
N8 N 1.0104(2) 0.93740(12) 0.63469(16)
C51 C 1.1814(3) 1.00496(18) 0.7985(2)
H35 H 1.1302 0.9828 0.8078
C52 C 1.3149(3) 0.93677(15) 0.8404(2)
H36 H 1.2619 0.9154 0.8490
Cd1_2 Cd 1.60877(2) 1.04972(2) 0.79348(2)
Cd1C Cd 0.10877(2) 1.45028(2) 0.29348(2)
Cd2_2 Cd 1.55517(2) 0.94495(2) 0.63009(2)
Cd2C Cd 1.05517(2) 0.55505(2) 1.13009(2)
O2C O 0.6474(2) 1.09721(9) 0.90086(13)
O5C O 0.50982(19) 0.89826(9) 0.52532(12)
O6C O 0.63378(19) 0.86000(9) 0.60905(13)
O7C O 0.52722(19) 1.13316(9) 0.81272(13)
N1_2 N 0.4732(2) 1.00029(11) 0.81581(15)
N4_2 N 0.4390(2) 0.89203(12) 0.67501(15)
loop_
_geom_bond_atom_site_label_1
_geom_bond_atom_site_label_2
_geom_bond_site_symmetry_1
_geom_bond_site_symmetry_2
Cd1 O1 1_555 1_555
Cd2 O3 1_555 1_555
S1 C2 1_555 1_555
S2 C12 1_555 1_555
C1 C4 1_555 1_555
C2 C11 1_555 1_555
C3 C23 1_555 1_555
C4 O1 1_555 1_555
C5 C6 1_555 1_555
C6 O2 1_555 1_555
C7 C1 1_555 1_555
H1 C7 1_555 1_555
C8 C9 1_555 1_555
C9 C14 1_555 1_555
C10 C7 1_555 1_555
H2 C10 1_555 1_555
C11 H3 1_555 1_555
C12 C18 1_555 1_555
C13 C1 1_555 1_555
H4 C13 1_555 1_555
C14 C11 1_555 1_555
H5 C14 1_555 1_555
C15 S1 1_555 1_555
C16 S2 1_555 1_555
C17 C5 1_555 1_555
H6 C17 1_555 1_555
C18 C17 1_555 1_555
H7 C18 1_555 1_555
C19 C9 1_555 1_555
H8 C19 1_555 1_555
C20 C15 1_555 1_555
H9 C20 1_555 1_555
C21 H10 1_555 1_555
C22 C21 1_555 1_555
C23 H11 1_555 1_555
C24 C3 1_555 1_555
C25 C5 1_555 1_555
H12 C25 1_555 1_555
C26 C3 1_555 1_555
H13 C26 1_555 1_555
C27 C13 1_555 1_555
H14 C27 1_555 1_555
C28 C15 1_555 1_555
H15 C28 1_555 1_555
C29 C12 1_555 1_555
H16 C29 1_555 1_555
C30 C2 1_555 1_555
H17 C30 1_555 1_555
C31 H18 1_555 1_555
C32 C22 1_555 1_555
H19 C32 1_555 1_555
C33 C22 1_555 1_555
H20 C33 1_555 1_555
C34 C31 1_555 1_555
H21 C34 1_555 1_555
O2 Cd1C 1_555 1_555
O3 C4 1_555 1_555
O4 Cd1 1_555 1_555
O5 C24 1_555 1_555
O6 C24 1_555 1_555
O7 C6 1_555 1_555
O8 S1 1_555 1_555
O9 Cd1 1_555 1_555
O10 S1 1_555 1_555
N1 C35 1_555 1_555
N2 Cd1 1_555 1_555
N3 Cd2 1_555 1_555
N4 C38 1_555 1_555
N5 N6 1_555 1_555
N6 C32 1_555 1_555
C35 H22 1_555 1_555
C36 N3 1_555 1_555
H23 C36 1_555 1_555
C37 H24 1_555 1_555
C38 H25 1_555 1_555
C39 N1 1_555 1_555
H26 C39 1_555 1_555
C40 C36 1_555 1_555
C41 H27 1_555 1_555
C42 N3 1_555 1_555
H28 C42 1_555 1_555
C43 C40 1_555 1_555
H29 C43 1_555 1_555
C44 C35 1_555 1_555
C45 C39 1_555 1_555
H30 C45 1_555 1_555
C46 N4 1_555 1_555
H31 C46 1_555 1_555
O11 S2 1_555 1_555
O12 S2 1_555 1_555
C47 C38 1_555 1_555
C48 C47 1_555 1_555
H32 C48 1_555 1_555
C49 C37 1_555 1_555
H33 C49 1_555 1_555
N7 C48 1_555 1_555
C50 C40 1_555 1_555
H34 C50 1_555 1_555
N8 N7 1_555 1_555
C51 N5 1_555 1_555
H35 C51 1_555 1_555
C52 C44 1_555 1_555
H36 C52 1_555 1_555
Cd1_2 N1 1_555 1_555
Cd1C O7 1_555 1_555
Cd2_2 N4 1_555 1_555
Cd2C O5 1_555 1_555
O2C Cd1 1_555 1_555
O5C Cd2 1_555 1_555
O6C Cd2 1_555 1_555
O7C Cd1 1_555 1_555
N1_2 Cd1 1_555 1_555
N4_2 Cd2 1_555 1_555
Cd2 O4 1_555 1_555
C8 O4 1_555 1_555
C8 O9 1_555 1_555
C10 C16 1_555 1_555
C16 C27 1_555 1_555
C19 C30 1_555 1_555
C20 C26 1_555 1_555
C21 N2 1_555 1_555
C23 C28 1_555 1_555
C25 C29 1_555 1_555
C31 N2 1_555 1_555
C33 C34 1_555 1_555
O6 Cd2C 1_555 1_555
C37 C46 1_555 1_555
C41 C42 1_555 1_555
C41 C43 1_555 1_555
C44 C51 1_555 1_555
C45 C52 1_555 1_555
C47 C49 1_555 1_555
C50 N8 1_555 1_555

#END
