
#######################################################################
#
#                 Cambridge Crystallographic Data Centre
#                                CCDC 
#
#######################################################################
#
# If this CIF has been generated from an entry in the Cambridge 
# Structural Database, then it will include bibliographic, chemical, 
# crystal, experimental, refinement or atomic coordinate data resulting 
# from the CCDC's data processing and validation procedures.
#
#######################################################################

data_XERJOV01
_chemical_name_common            CYCU-4
_chemical_formula_moiety         '(C16 H11 Al1 O5)n'
_chemical_name_systematic        
catena-[(\m-4,4'-ethene-1,2-diyldibenzoato)-(\m-hydroxo)-aluminium]
_symmetry_cell_setting           orthorhombic
_symmetry_space_group_name_H-M   'I m m a'
_symmetry_Int_Tables_number      74
_space_group_name_Hall           '-I 2b 2'
loop_
_symmetry_equiv_pos_site_id
_symmetry_equiv_pos_as_xyz
1 x,y,z
2 1/2+x,1/2+y,1/2+z
3 -x,1/2-y,z
4 1/2-x,-y,1/2+z
5 x,-y,-z
6 1/2+x,1/2-y,1/2-z
7 -x,1/2+y,-z
8 1/2-x,y,1/2-z
9 -x,-y,-z
10 1/2-x,1/2-y,1/2-z
11 x,1/2+y,-z
12 1/2+x,y,1/2-z
13 -x,y,z
14 1/2-x,1/2+y,1/2+z
15 x,1/2-y,z
16 1/2+x,-y,1/2+z
_cell_length_a                   28.23
_cell_length_b                   6.488
_cell_length_c                   19.19
_cell_angle_alpha                90
_cell_angle_beta                 90
_cell_angle_gamma                90
_cell_volume                     3514.77
_cell_formula_units_Z            8
loop_
_atom_site_label
_atom_site_type_symbol
_atom_site_fract_x
_atom_site_fract_y
_atom_site_fract_z
_atom_site_U_iso_or_equiv
_atom_site_thermal_displace_type
Al1 Al 0.000 0.000 0.000 0.1000 Uiso
C1 C -0.0701 -0.25 0.0745 0.1000 Uiso
C2 C -0.1148 -0.25 0.1161 0.1000 Uiso
C3 C -0.1349 -0.0694 0.1366 0.1000 Uiso
C4 C -0.174 -0.0694 0.1778 0.1000 Uiso
C5 C -0.1939 -0.25 0.1998 0.1000 Uiso
C6 C -0.2381 -0.1767 0.2352 0.0109 Uiso
O1 O 0.000 -0.25 -0.0377 0.1000 Uiso
O2 O -0.049 -0.0826 0.0585 0.1000 Uiso
C1I C -0.4299 -0.25 0.4255 0.1000 Uiso
C2I C -0.3852 -0.25 0.3839 0.1000 Uiso
C3I C -0.3651 -0.4306 0.3634 0.1000 Uiso
C4I C -0.326 -0.4306 0.3222 0.1000 Uiso
C5I C -0.3061 -0.25 0.3002 0.1000 Uiso
C6I C -0.2619 -0.3233 0.2648 0.0109 Uiso
O2I O -0.451 -0.4174 0.4415 0.1000 Uiso
C3G C -0.3651 -0.0694 0.3634 0.1000 Uiso
C4G C -0.326 -0.0694 0.3222 0.1000 Uiso
C6G C -0.2619 -0.1767 0.2648 0.0109 Uiso
O2G O -0.451 -0.0826 0.4415 0.1000 Uiso
C3N C -0.1349 -0.4306 0.1366 0.1000 Uiso
C4N C -0.174 -0.4306 0.1778 0.1000 Uiso
C6N C -0.2381 -0.3233 0.2352 0.0109 Uiso
O2N O -0.049 -0.4174 0.0585 0.1000 Uiso
Al1A Al -0.500 -0.500 0.500 0.1000 Uiso
Al1B Al 0.000 -0.500 0.000 0.1000 Uiso
Al1C Al -0.500 0.000 0.500 0.1000 Uiso
O1H O 0.000 0.25 0.0377 0.1000 Uiso
O2H O 0.049 0.0826 -0.0585 0.1000 Uiso
O2D O -0.049 0.0826 -0.0585 0.1000 Uiso
O2L O 0.049 -0.0826 0.0585 0.1000 Uiso
loop_
_geom_bond_atom_site_label_1
_geom_bond_atom_site_label_2
_geom_bond_site_symmetry_1
_geom_bond_site_symmetry_2
Al1 O1 1_555 1_555
C1 C2 1_555 1_555
C2 C3 1_555 1_555
C3 C4 1_555 1_555
C4 C5 1_555 1_555
C5 C6 1_555 1_555
C6 C6I 1_555 1_555
O1 Al1B 1_555 1_555
O2 Al1 1_555 1_555
C1I C2I 1_555 1_555
C2I C3I 1_555 1_555
C3I C4I 1_555 1_555
C4I C5I 1_555 1_555
C5I C6I 1_555 1_555
O2I C1I 1_555 1_555
C3G C2I 1_555 1_555
C4G C5I 1_555 1_555
C6G C5I 1_555 1_555
O2G C1I 1_555 1_555
C3N C2 1_555 1_555
C4N C5 1_555 1_555
C6N C5 1_555 1_555
O2N C1 1_555 1_555
Al1A O2I 1_555 1_555
Al1B O2N 1_555 1_555
Al1C O2G 1_555 1_555
O1H Al1 1_555 1_555
O2H Al1 1_555 1_555
O2D Al1 1_555 1_555
O2L Al1 1_555 1_555
C1 O2 1_555 1_555
C3G C4G 1_555 1_555
C6G C6N 1_555 1_555
C3N C4N 1_555 1_555

#END
