
#######################################################################
#
#                 Cambridge Crystallographic Data Centre
#                                CCDC 
#
#######################################################################
#
# If this CIF has been generated from an entry in the Cambridge 
# Structural Database, then it will include bibliographic, chemical, 
# crystal, experimental, refinement or atomic coordinate data resulting 
# from the CCDC's data processing and validation procedures.
#
#######################################################################

data_XOJCAB
_chemical_formula_moiety         '(C16 H8 Co2 F4 N8 O4)n,5n(H2 O1)'
_chemical_name_systematic        
'catena-(tetrakis(\m~2~-5-Fluoropyrimidin-2-olato)-di-cobalt(ii) pentahydrate clathrate)'
_symmetry_cell_setting           rhombohedral
_symmetry_space_group_name_H-M   'R 3 m'
_symmetry_Int_Tables_number      160
_space_group_name_Hall           'R 3 -2"'
loop_
_symmetry_equiv_pos_site_id
_symmetry_equiv_pos_as_xyz
1 x,y,z
2 -y,-x,z
3 -y,x-y,z
4 -x+y,-x,z
5 1/3+x,2/3+y,2/3+z
6 1/3-y,2/3+x-y,2/3+z
7 1/3-x+y,2/3-x,2/3+z
8 2/3+x,1/3+y,1/3+z
9 2/3-y,1/3+x-y,1/3+z
10 2/3-x+y,1/3-x,1/3+z
11 x,x-y,z
12 -x+y,y,z
13 1/3-y,2/3-x,2/3+z
14 1/3+x,2/3+x-y,2/3+z
15 1/3-x+y,2/3+y,2/3+z
16 2/3-y,1/3-x,1/3+z
17 2/3+x,1/3+x-y,1/3+z
18 2/3-x+y,1/3+y,1/3+z
_cell_length_a                   23.05947(72)
_cell_length_b                   23.05947(72)
_cell_length_c                   12.50476(47)
_cell_angle_alpha                90
_cell_angle_beta                 90
_cell_angle_gamma                120
_cell_volume                     5758.44
_exptl_crystal_colour            violet
_cell_formula_units_Z            9
loop_
_atom_site_label
_atom_site_type_symbol
_atom_site_fract_x
_atom_site_fract_y
_atom_site_fract_z
Co1 Co 0.76130(31) 0.76065(32) 0.00000
N1 N 0.649820 0.724550 -0.016340
N2 N 0.797020 0.699770 -0.054240
N3 N 0.817180 0.855720 -0.072080
N4 N 0.777490 0.763880 0.170400
C1 C 0.634890 0.704900 -0.12398
C2 C 0.601530 0.719290 0.045850
C3 C 0.865930 0.731860 -0.031270
C4 C 0.76847 0.639790 -0.097200
C5 C 0.797390 0.898700 -0.025650
C6 C 0.854170 0.875660 -0.158860
C7 C 0.819540 0.809970 0.236590
O1 O 0.679110 0.709260 -0.184120
C8 C 0.536243 0.695177 0.010197
H1 H 0.612780 0.732850 0.118200
O2 O 0.894030 0.788060 0.008980
C9 C 0.803240 0.606480 -0.121050
H2 H 0.721910 0.619100 -0.112020
O3 O 0.762740 0.881370 0.055660
C10 C 0.874710 0.937350 -0.207050
H3 H 0.866930 0.845820 -0.188800
H4 H 0.846570 0.853780 0.208520
F1 F 0.487703 0.690387 0.076207
F2 F 0.7724 0.5448 -0.16522
F3 F 0.91275 0.95637 -0.29630
C1I C 0.736677 0.698443 0.20935
N4E N 0.569453 0.680277 -0.162933
N2K N 0.902750 0.699770 -0.054240
N3J N 0.817180 0.961460 -0.072080
C8I C 0.825601 0.797090 0.343530
O1I O 0.696817 0.654223 0.149213
N1I N 0.741397 0.683513 0.316993
C7E C 0.523363 0.676237 -0.096743
Co1E Co 0.57268(32) 0.66732(45) -0.33333
C4K C 0.871320 0.639790 -0.097200
Co1K Co 0.99935(45) 0.76065(32) 0.00000
C6J C 0.854170 0.978510 -0.158860
Co1J Co 0.76130(31) 1.00065(45) 0.00000
F1I F 0.869351 0.845630 0.409540
C2I C 0.784427 0.731803 0.379183
Co1I Co 0.66602(45) 0.57203(31) 0.33333
H4E H 0.479553 0.659457 -0.124813
H2K H 0.897190 0.619100 -0.112020
H3J H 0.866930 1.021110 -0.188800
N1J N 0.649820 0.925270 -0.016340
N4J N 0.777490 1.013610 0.170400
N2J N 0.797020 1.097250 -0.054240
H1I H 0.786737 0.720553 0.451533
O4 O 0.81294(83) 0.18706(83) 0.6179(31)
O5 O 0.7885(12) -0.2732(10) 0.6435(22)
O6 O 0.63373(51) 1.2675(10) -0.5631(22)
O7 O 0.57000(79) 1.1400(16) -1.0166(31)
loop_
_geom_bond_atom_site_label_1
_geom_bond_atom_site_label_2
_geom_bond_site_symmetry_1
_geom_bond_site_symmetry_2
Co1 N1 1_555 1_555
N1 C1 1_555 1_555
N2 Co1 1_555 1_555
N3 Co1 1_555 1_555
N4 Co1 1_555 1_555
C1 O1 1_555 1_555
C2 N1 1_555 1_555
C3 N2 1_555 1_555
C4 N2 1_555 1_555
C5 N3 1_555 1_555
C6 N3 1_555 1_555
C7 N4 1_555 1_555
C8 C2 1_555 1_555
H1 C2 1_555 1_555
O2 C3 1_555 1_555
C9 C4 1_555 1_555
H2 C4 1_555 1_555
O3 C5 1_555 1_555
C10 C6 1_555 1_555
H3 C6 1_555 1_555
H4 C7 1_555 1_555
F1 C8 1_555 1_555
F2 C9 1_555 1_555
F3 C10 1_555 1_555
C1I N4 1_555 1_555
N4E C1 1_555 1_555
N2K C3 1_555 1_555
N3J C5 1_555 1_555
C8I C7 1_555 1_555
O1I C1I 1_555 1_555
N1I C1I 1_555 1_555
C7E C8 1_555 1_555
Co1E N4E 1_555 1_555
C4K C9 1_555 1_555
Co1K N2K 1_555 1_555
C6J C10 1_555 1_555
Co1J N3J 1_555 1_555
F1I C8I 1_555 1_555
C2I C8I 1_555 1_555
Co1I N1I 1_555 1_555
H4E C7E 1_555 1_555
H2K C4K 1_555 1_555
H3J C6J 1_555 1_555
N1J Co1J 1_555 1_555
N4J Co1J 1_555 1_555
N2J Co1J 1_555 1_555
H1I C2I 1_555 1_555
N4E C7E 1_555 1_555
N2K C4K 1_555 1_555
N3J C6J 1_555 1_555
N1I C2I 1_555 1_555

#END
