
#######################################################################
#
#                 Cambridge Crystallographic Data Centre
#                                CCDC 
#
#######################################################################
#
# If this CIF has been generated from an entry in the Cambridge 
# Structural Database, then it will include bibliographic, chemical, 
# crystal, experimental, refinement or atomic coordinate data resulting 
# from the CCDC's data processing and validation procedures.
#
#######################################################################

data_XOJCIJ
_chemical_formula_moiety         '(C16 H8 F4 N8 O4 Zn2)n,5n(H2 O1)'
_chemical_name_systematic        
'catena-(tetrakis(\m~2~-5-Fluoro-pyrimidin-2-olato)-di-zinc(ii) pentahydrate clathrate)'
_symmetry_cell_setting           rhombohedral
_symmetry_space_group_name_H-M   'R 3 m'
_symmetry_Int_Tables_number      160
_space_group_name_Hall           'R 3 -2"'
loop_
_symmetry_equiv_pos_site_id
_symmetry_equiv_pos_as_xyz
1 x,y,z
2 -y,-x,z
3 -y,x-y,z
4 -x+y,-x,z
5 1/3+x,2/3+y,2/3+z
6 1/3-y,2/3+x-y,2/3+z
7 1/3-x+y,2/3-x,2/3+z
8 2/3+x,1/3+y,1/3+z
9 2/3-y,1/3+x-y,1/3+z
10 2/3-x+y,1/3-x,1/3+z
11 x,x-y,z
12 -x+y,y,z
13 1/3-y,2/3-x,2/3+z
14 1/3+x,2/3+x-y,2/3+z
15 1/3-x+y,2/3+y,2/3+z
16 2/3-y,1/3-x,1/3+z
17 2/3+x,1/3+x-y,1/3+z
18 2/3-x+y,1/3+y,1/3+z
_cell_length_a                   23.27953(52)
_cell_length_b                   23.27953(52)
_cell_length_c                   12.58337(39)
_cell_angle_alpha                90
_cell_angle_beta                 90
_cell_angle_gamma                120
_cell_volume                     5905.76
_exptl_crystal_colour            white
_cell_formula_units_Z            9
loop_
_atom_site_label
_atom_site_type_symbol
_atom_site_fract_x
_atom_site_fract_y
_atom_site_fract_z
Zn1 Zn 0.75901(14) 0.75918(14) 0.00000
N1 N 0.667890 0.724280 -0.050720
N2 N 0.804670 0.714080 -0.052560
N3 N 0.799780 0.847520 -0.052050
N4 N 0.762260 0.746420 0.138700
C1 C 0.652150 0.706670 -0.158160
C2 C 0.620510 0.717590 0.013620
C3 C 0.872980 0.745970 -0.030110
C4 C 0.776290 0.654460 -0.094540
C5 C 0.780240 0.890120 -0.005840
C6 C 0.836300 0.867210 -0.138430
C7 C 0.801880 0.791590 0.206970
O1 O 0.695510 0.712400 -0.220290
C8 C 0.555433 0.693867 -0.019543
H1 H 0.632280 0.729780 0.085790
O2 O 0.900910 0.801820 0.009220
C9 C 0.810680 0.621360 -0.117850
H2 H 0.730140 0.633900 -0.109020
O3 O 0.746030 0.873010 0.075080
C10 C 0.856570 0.928290 -0.186390
H3 H 0.848890 0.837630 -0.168230
H4 H 0.829150 0.835280 0.180560
F1 F 0.507853 0.687577 0.048647
F2 F 0.78003 0.560060 -0.161010
F3 F 0.894130 0.947060 -0.275220
C1I C 0.721187 0.681183 0.175173
N4E N 0.586913 0.682507 -0.194633
N2K N 0.909410 0.714080 -0.052560
N3J N 0.799780 0.952260 -0.052050
C8I C 0.805101 0.777900 0.313790
O1I O 0.683557 0.637823 0.113043
N1I N 0.723057 0.665443 0.282613
C7E C 0.541743 0.676957 -0.126363
Zn1E Zn 0.57415(14) 0.66650(20) -0.33333
C4K C 0.878170 0.654460 -0.094540
Zn1K Zn 1.00017(20) 0.75918(14) 0.00000
C6J C 0.836300 0.969090 -0.138430
Zn1J Zn 0.75901(14) 0.99983(20) 0.00000
F1I F 0.846391 0.825480 0.381980
C2I C 0.763747 0.712823 0.346953
Zn1I Zn 0.66684(20) 0.57432(14) 0.33333
H4E H 0.498053 0.660537 -0.152773
H2K H 0.903760 0.633900 -0.109020
H3J H 0.848890 1.011260 -0.168230
N1J N 0.667890 0.943610 -0.050720
N4J N 0.762260 1.015840 0.138700
N2J N 0.804670 1.090590 -0.052560
H1I H 0.764167 0.701053 0.419123
O4 O 0.80606(40) 0.19394(40) 0.6216(16)
O5 O 0.77627(57) -0.28093(53) 0.6222(15)
O6 O 0.63035(30) 1.26070(60) -0.5691(13)
O7 O 0.56972(40) 1.13944(79) -0.0295(17)
loop_
_geom_bond_atom_site_label_1
_geom_bond_atom_site_label_2
_geom_bond_site_symmetry_1
_geom_bond_site_symmetry_2
Zn1 N1 1_555 1_555
N1 C1 1_555 1_555
N2 Zn1 1_555 1_555
N3 Zn1 1_555 1_555
N4 Zn1 1_555 1_555
C1 O1 1_555 1_555
C2 N1 1_555 1_555
C3 N2 1_555 1_555
C4 N2 1_555 1_555
C5 N3 1_555 1_555
C6 N3 1_555 1_555
C7 N4 1_555 1_555
C8 C2 1_555 1_555
H1 C2 1_555 1_555
O2 C3 1_555 1_555
C9 C4 1_555 1_555
H2 C4 1_555 1_555
O3 C5 1_555 1_555
C10 C6 1_555 1_555
H3 C6 1_555 1_555
H4 C7 1_555 1_555
F1 C8 1_555 1_555
F2 C9 1_555 1_555
F3 C10 1_555 1_555
C1I N4 1_555 1_555
N4E C1 1_555 1_555
N2K C3 1_555 1_555
N3J C5 1_555 1_555
C8I C7 1_555 1_555
O1I C1I 1_555 1_555
N1I C1I 1_555 1_555
C7E C8 1_555 1_555
Zn1E N4E 1_555 1_555
C4K C9 1_555 1_555
Zn1K N2K 1_555 1_555
C6J C10 1_555 1_555
Zn1J N3J 1_555 1_555
F1I C8I 1_555 1_555
C2I C8I 1_555 1_555
Zn1I N1I 1_555 1_555
H4E C7E 1_555 1_555
H2K C4K 1_555 1_555
H3J C6J 1_555 1_555
N1J Zn1J 1_555 1_555
N4J Zn1J 1_555 1_555
N2J Zn1J 1_555 1_555
H1I C2I 1_555 1_555
N4E C7E 1_555 1_555
N2K C4K 1_555 1_555
N3J C6J 1_555 1_555
N1I C2I 1_555 1_555

#END
