
#######################################################################
#
#                 Cambridge Crystallographic Data Centre
#                                CCDC 
#
#######################################################################
#
# If this CIF has been generated from an entry in the Cambridge 
# Structural Database, then it will include bibliographic, chemical, 
# crystal, experimental, refinement or atomic coordinate data resulting 
# from the CCDC's data processing and validation procedures.
#
#######################################################################

data_HILXAC
_chemical_formula_moiety         '(C18 H12 N2 O4 Zn1)n,0.5n(C3 H7 N1 O1)'
_chemical_name_systematic        
"catena-((\m~3~-Benzene-1,3-dicarboxylato)-(\m~2~-4,4'-bipyridine)-zinc dimethylformamide clathrate)"
_symmetry_cell_setting           monoclinic
_symmetry_space_group_name_H-M   'P 2/c'
_symmetry_Int_Tables_number      13
_space_group_name_Hall           '-P 2yc'
loop_
_symmetry_equiv_pos_site_id
_symmetry_equiv_pos_as_xyz
1 x,y,z
2 -x,y,1/2-z
3 -x,-y,-z
4 x,-y,1/2+z
_cell_length_a                   10.082(5)
_cell_length_b                   11.384(5)
_cell_length_c                   15.744(8)
_cell_angle_alpha                90
_cell_angle_beta                 103.917(8)
_cell_angle_gamma                90
_cell_volume                     1753.95
_exptl_crystal_colour            colorless
_exptl_crystal_description       prism
_cell_formula_units_Z            4
loop_
_atom_site_label
_atom_site_type_symbol
_atom_site_fract_x
_atom_site_fract_y
_atom_site_fract_z
Zn1 Zn 0.62512(6) 0.23565(5) 0.66157(4)
O1 O 0.8404(4) 0.2273(3) 0.6710(2)
O2 O 1.4280(4) 0.2308(3) 0.5885(2)
C1 C 1.3306(5) 0.2285(4) 0.6256(3)
O3 O 1.3429(4) 0.2486(3) 0.7047(2)
O4 O 0.7061(4) 0.2166(4) 0.5391(2)
C2 C 0.7288(6) 0.8648(5) 0.7286(3)
H1 H 0.7999 0.8266 0.7674
C3 C 1.0766(5) 0.2150(4) 0.6048(3)
H2 H 1.0879 0.2381 0.6627
C4 C 1.1898(5) 0.2016(4) 0.5710(3)
C5 C 0.8240(5) 0.2139(4) 0.5901(3)
N1 N 0.6290(4) 0.4229(4) 0.6597(3)
C6 C 0.9454(6) 0.1945(4) 0.5533(3)
C7 C 0.5224(5) 0.8627(5) 0.6187(3)
H3 H 0.4506 0.8234 0.5813
C8 C 0.6305(5) 0.6697(4) 0.6687(3)
C9 C 1.1719(6) 0.1607(5) 0.4850(3)
H4 H 1.2470 0.1510 0.4611
C10 C 0.5239(6) 0.9827(4) 0.6208(4)
H5 H 0.4525 1.0226 0.5836
N2 N 0.6217(4) 1.0459(4) 0.6729(3)
C11 C 0.6274(5) 0.7993(4) 0.6720(3)
C12 C 0.7234(6) 0.9852(5) 0.7270(3)
H6 H 0.7926 1.0269 0.7646
C13 C 0.9306(6) 0.1542(5) 0.4683(3)
H7 H 0.8439 0.1404 0.4329
C14 C 1.0434(6) 0.1350(6) 0.4365(4)
H8 H 1.0327 0.1038 0.3807
C15 C 0.7284(11) 0.6021(9) 0.7232(7)
H9 H 0.7993 0.6383 0.7635
C16 C 0.7222(12) 0.4801(9) 0.7185(7)
H10 H 0.7866 0.4369 0.7586
C17 C 0.5412(11) 0.4879(9) 0.6011(7)
H11 H 0.4778 0.4490 0.5575
C19 C 0.5387(12) 0.6079(10) 0.6012(7)
H13 H 0.4776 0.6485 0.5574
Zn1_2 Zn 1.62512(6) 0.23565(5) 0.66157(4)
Zn1A Zn 1.37488(6) 0.23565(5) 0.83843(4)
Zn1_3 Zn 0.62512(6) 1.23565(5) 0.66157(4)
O2_2 O 0.4280(4) 0.2308(3) 0.5885(2)
O3A O 0.6571(4) 0.2486(3) 0.7953(2)
N2_2 N 0.6217(4) 0.0459(4) 0.6729(3)
C18? C 0.7398(14) 0.4830(10) 0.6829(8)
H12? H 0.8216 0.4415 0.6975
C20? C 0.5110(15) 0.4860(12) 0.6407(9)
H14? H 0.4282 0.4460 0.6252
C21? C 0.5095(14) 0.6081(11) 0.6436(8)
H15? H 0.4269 0.6483 0.6286
C22? C 0.7475(13) 0.6047(10) 0.6879(8)
H16? H 0.8320 0.6417 0.7044
loop_
_geom_bond_atom_site_label_1
_geom_bond_atom_site_label_2
_geom_bond_site_symmetry_1
_geom_bond_site_symmetry_2
Zn1 O1 1_555 1_555
O1 C5 1_555 1_555
O2 C1 1_555 1_555
C1 O3 1_555 1_555
O3 Zn1A 1_555 1_555
O4 Zn1 1_555 1_555
C2 H1 1_555 1_555
C3 H2 1_555 1_555
C4 C1 1_555 1_555
C5 O4 1_555 1_555
N1 Zn1 1_555 1_555
C6 C3 1_555 1_555
C7 H3 1_555 1_555
C8 C11 1_555 1_555
C9 C4 1_555 1_555
H4 C9 1_555 1_555
C10 C7 1_555 1_555
H5 C10 1_555 1_555
N2 C10 1_555 1_555
C11 C2 1_555 1_555
C12 C2 1_555 1_555
H6 C12 1_555 1_555
C13 C6 1_555 1_555
H7 C13 1_555 1_555
C14 C9 1_555 1_555
H8 C14 1_555 1_555
C15 C8 1_555 1_555
H9 C15 1_555 1_555
C16 N1 1_555 1_555
H10 C16 1_555 1_555
C17 N1 1_555 1_555
H11 C17 1_555 1_555
C19 C8 1_555 1_555
H13 C19 1_555 1_555
Zn1_2 O2 1_555 1_555
Zn1_3 N2 1_555 1_555
O2_2 Zn1 1_555 1_555
O3A Zn1 1_555 1_555
N2_2 Zn1 1_555 1_555
C3 C4 1_555 1_555
C5 C6 1_555 1_555
C7 C11 1_555 1_555
N2 C12 1_555 1_555
C13 C14 1_555 1_555
C15 C16 1_555 1_555
C17 C19 1_555 1_555

#END
