
#######################################################################
#
#                 Cambridge Crystallographic Data Centre
#                                CCDC 
#
#######################################################################
#
# If this CIF has been generated from an entry in the Cambridge 
# Structural Database, then it will include bibliographic, chemical, 
# crystal, experimental, refinement or atomic coordinate data resulting 
# from the CCDC's data processing and validation procedures.
#
#######################################################################

data_RAXYIZ
_chemical_formula_moiety         
'(C15 H8 N4 Ni1 O6 2-)n,n(C18 H18 N12 Ni1 2+),2n(H2 O1)'
_chemical_name_systematic        
"catena-(tris(2,2'-Bi-imidazole-N,N')-nickel(ii) (\m~2~-2,2'-bi-imidazolato-N,N',N'')-(\m~2~-benzene-1,3,5-tricarboxylato-O,O')-nickel(ii) dihydrate)"
_symmetry_cell_setting           orthorhombic
_symmetry_space_group_name_H-M   'C c c 2'
_symmetry_Int_Tables_number      37
_space_group_name_Hall           'C 2 -2c'
loop_
_symmetry_equiv_pos_site_id
_symmetry_equiv_pos_as_xyz
1 x,y,z
2 -x,-y,z
3 x,-y,1/2+z
4 -x,y,1/2+z
5 1/2+x,1/2+y,z
6 1/2-x,1/2-y,z
7 1/2+x,1/2-y,1/2+z
8 1/2-x,1/2+y,1/2+z
_cell_length_a                   17.6391(15)
_cell_length_b                   39.530(4)
_cell_length_c                   11.7333(11)
_cell_angle_alpha                90
_cell_angle_beta                 90
_cell_angle_gamma                90
_cell_volume                     8181.32
_exptl_crystal_colour            green
_exptl_crystal_description       block
_cell_formula_units_Z            8
loop_
_atom_site_label
_atom_site_type_symbol
_atom_site_fract_x
_atom_site_fract_y
_atom_site_fract_z
_atom_site_U_iso_or_equiv
_atom_site_thermal_displace_type
Ni1 Ni 0.23753(3) 0.098301(12) 0.95871(9) 0.0484 Uani
C1 C 0.3297(4) 0.05039(16) 0.7756(7) 0.0823 Uani
H1 H 0.3505 0.0661 0.7256 0.0990 Uiso
C2 C 0.3416(5) 0.01720(16) 0.7719(8) 0.1050 Uani
H2 H 0.3725 0.0057 0.7207 0.1260 Uiso
C3 C 0.2650(3) 0.02868(12) 0.9112(6) 0.0583 Uani
C4 C 0.2151(3) 0.02798(11) 1.0048(5) 0.0560 Uani
C5 C 0.1458(4) 0.04888(14) 1.1396(6) 0.0780 Uani
H3 H 0.1215 0.0641 1.1878 0.0940 Uiso
C6 C 0.1411(4) 0.01535(16) 1.1459(7) 0.0960 Uani
H4 H 0.1125 0.0033 1.1985 0.1150 Uiso
C7 C 0.3609(4) 0.09050(15) 1.1694(6) 0.0743 Uani
H5 H 0.3368 0.0752 1.2173 0.0890 Uiso
C8 C 0.4274(4) 0.10406(17) 1.1883(7) 0.0873 Uani
H6 H 0.4588 0.1000 1.2506 0.1050 Uiso
C9 C 0.3829(3) 0.12309(12) 1.0281(5) 0.0493 Uani
C10 C 0.3677(3) 0.14013(11) 0.9214(5) 0.0477 Uani
C11 C 0.3706(4) 0.17151(15) 0.7707(6) 0.0707 Uani
H7 H 0.3855 0.1870 0.7153 0.0850 Uiso
C12 C 0.3046(4) 0.15429(15) 0.7724(6) 0.0650 Uani
H8 H 0.2666 0.1556 0.7177 0.0780 Uiso
C13 C 0.1124(4) 0.09575(14) 0.7484(6) 0.0693 Uani
H9 H 0.1345 0.0805 0.6979 0.0830 Uiso
C14 C 0.0461(4) 0.11143(16) 0.7318(6) 0.0787 Uani
H10 H 0.0137 0.1090 0.6699 0.0940 Uiso
C15 C 0.0944(3) 0.12725(11) 0.8939(5) 0.0433 Uani
C16 C 0.1119(3) 0.14276(11) 1.0036(4) 0.0407 Uani
C17 C 0.1159(3) 0.17217(13) 1.1593(5) 0.0560 Uani
H11 H 0.1036 0.1870 1.2181 0.0680 Uiso
C18 C 0.1779(3) 0.15287(12) 1.1518(5) 0.0500 Uani
H12 H 0.2168 0.1522 1.2053 0.0600 Uiso
N1 N 0.2820(3) 0.05790(10) 0.8649(5) 0.0607 Uani
N2 N 0.2995(3) 0.00298(12) 0.8581(5) 0.0847 Uani
H20 H 0.2960 -0.0182 0.8745 0.1020 Uiso
N3 N 0.1924(2) 0.05726(9) 1.0503(5) 0.0603 Uani
N4 N 0.1843(3) 0.00197(12) 1.0643(6) 0.0813 Uani
H21 H 0.1913 -0.0192 1.0518 0.0970 Uiso
N5 N 0.3319(2) 0.10235(9) 1.0676(4) 0.0500 Uani
N6 N 0.4420(3) 0.12527(13) 1.0991(5) 0.0713 Uani
H22 H 0.4817 0.1377 1.0903 0.0860 Uiso
N7 N 0.3031(2) 0.13447(10) 0.8692(4) 0.0497 Uani
N8 N 0.4113(3) 0.16240(11) 0.8637(5) 0.0613 Uani
H23 H 0.4558 0.1694 0.8822 0.0740 Uiso
N9 N 0.1428(2) 0.10538(10) 0.8505(4) 0.0520 Uani
N10 N 0.0356(2) 0.13196(12) 0.8252(4) 0.0637 Uani
H24 H -0.0020 0.1454 0.8368 0.0760 Uiso
N11 N 0.1755(2) 0.13422(9) 1.0534(4) 0.0434 Uani
N12 N 0.0739(2) 0.16574(10) 1.0630(4) 0.0507 Uani
H25 H 0.0314 0.1749 1.0447 0.0610 Uiso
Ni2 Ni 0.46960(3) -0.254146(12) 0.96004(7) 0.0355 Uani
C19 C 0.6776(3) -0.21968(13) 1.1209(5) 0.0507 Uani
H13 H 0.7265 -0.2114 1.1313 0.0610 Uiso
C20 C 0.6419(3) -0.22508(12) 1.0200(5) 0.0507 Uani
H14 H 0.6622 -0.2209 0.9483 0.0610 Uiso
C21 C 0.5636(2) -0.23959(10) 1.1533(4) 0.0353 Uani
C22 C 0.4938(3) -0.25273(9) 1.2015(5) 0.0353 Uani
C23 C 0.3830(3) -0.27435(13) 1.1900(4) 0.0477 Uani
H15 H 0.3370 -0.2824 1.1625 0.0570 Uiso
C24 C 0.4050(3) -0.27363(13) 1.3020(4) 0.0473 Uani
H16 H 0.3763 -0.2814 1.3631 0.0710 Uiso
C25 C 0.3285(2) -0.16596(9) 0.9569(5) 0.0410 Uani
C26 C 0.3239(2) -0.13087(10) 0.9647(6) 0.0494 Uani
H17 H 0.3681 -0.1182 0.9700 0.0590 Uiso
C27 C 0.2542(3) -0.11467(10) 0.9646(7) 0.0527 Uani
C28 C 0.1882(2) -0.13369(10) 0.9585(6) 0.0477 Uani
H18 H 0.1414 -0.1230 0.9624 0.0570 Uiso
C29 C 0.1918(2) -0.16886(9) 0.9464(5) 0.0359 Uani
C30 C 0.2617(2) -0.18468(10) 0.9459(5) 0.0367 Uani
H19 H 0.2644 -0.2081 0.9382 0.0440 Uiso
C31 C 0.4034(2) -0.18319(10) 0.9595(6) 0.0427 Uani
C32 C 0.2507(3) -0.07600(11) 0.9676(8) 0.0700 Uani
N13 N 0.5699(2) -0.23787(10) 1.0416(4) 0.0430 Uani
N14 N 0.6269(2) -0.22894(10) 1.2045(4) 0.0480 Uani
H26 H 0.6346 -0.2280 1.2768 0.0570 Uiso
N15 N 0.4404(2) -0.26114(10) 1.1261(3) 0.0414 Uani
O1 O 0.40460(17) -0.21364(7) 0.9279(3) 0.0465 Uani
O2 O 0.45969(19) -0.16782(10) 0.9941(5) 0.0867 Uani
O3 O 0.3075(2) -0.06052(8) 0.9383(5) 0.0949 Uani
O4 O 0.1892(3) -0.06347(9) 1.0004(4) 0.0873 Uani
N16 N 0.4758(2) -0.25968(10) 1.3097(3) 0.0403 Uani
C33 C 0.1204(2) -0.18936(11) 0.9358(4) 0.0393 Uani
O5 O 0.12733(16) -0.22037(7) 0.9143(3) 0.0397 Uani
O6 O 0.05736(16) -0.17519(8) 0.9525(4) 0.0562 Uani
Ni2C Ni 0.53040(3) -0.254146(12) 1.46004(7) 0.0355 Uani
Ni2E Ni 0.03040(3) -0.245854(12) 0.96004(7) 0.0355 Uani
N16C N 0.5242(2) -0.25968(10) 0.8097(3) 0.0403 Uani
O5E O 0.37267(16) -0.27963(7) 0.9143(3) 0.0397 Uani
O7 O 0.4681(11) 0.0590(6) 1.451(3) 0.3777 Uani
H27 H 0.4362 0.0638 1.5028 0.4540 Uiso
H28 H 0.5141 0.0552 1.4680 0.4540 Uiso
O8 O 0.0323(10) 0.0692(6) 0.480(2) 0.2500 Uani
H29 H -0.0118 0.0652 0.5062 0.3010 Uiso
H30 H 0.0375 0.0798 0.4175 0.3010 Uiso
loop_
_atom_site_aniso_label
_atom_site_aniso_U_11
_atom_site_aniso_U_22
_atom_site_aniso_U_33
_atom_site_aniso_U_23
_atom_site_aniso_U_13
_atom_site_aniso_U_12
Ni1 0.0428(3) 0.0308(2) 0.0715(4) -0.0033(4) 0.0018(5) 0.0015(2)
C1 0.096(5) 0.059(4) 0.092(6) 0.004(3) 0.042(4) 0.002(3)
C2 0.137(7) 0.056(4) 0.122(7) -0.014(4) 0.079(6) 0.000(4)
C3 0.058(3) 0.031(2) 0.086(5) -0.007(2) 0.016(3) -0.002(2)
C4 0.055(3) 0.028(2) 0.085(5) 0.001(2) 0.015(3) -0.006(2)
C5 0.083(4) 0.053(3) 0.098(6) 0.003(3) 0.044(4) 0.004(3)
C6 0.102(5) 0.058(4) 0.128(7) 0.014(4) 0.064(5) -0.003(3)
C7 0.070(4) 0.069(4) 0.084(5) 0.036(3) -0.002(4) -0.009(3)
C8 0.071(4) 0.099(5) 0.092(6) 0.046(4) -0.012(4) -0.012(4)
C9 0.035(2) 0.040(3) 0.073(4) 0.012(2) -0.001(2) -0.001(2)
C10 0.048(3) 0.033(2) 0.062(4) -0.002(2) 0.012(2) -0.003(2)
C11 0.084(4) 0.067(4) 0.061(4) 0.007(3) 0.011(4) -0.014(3)
C12 0.080(4) 0.058(3) 0.057(4) 0.006(3) -0.006(3) 0.005(3)
C13 0.078(4) 0.060(3) 0.070(4) -0.027(3) -0.002(3) 0.011(3)
C14 0.081(4) 0.086(4) 0.069(5) -0.031(4) -0.022(3) 0.020(4)
C15 0.040(3) 0.033(2) 0.057(3) -0.009(2) -0.008(2) 0.0049(19)
C16 0.043(3) 0.032(2) 0.047(3) 0.0006(19) 0.001(2) 0.0052(19)
C17 0.074(4) 0.052(3) 0.042(3) -0.010(2) -0.005(3) 0.012(3)
C18 0.053(3) 0.043(3) 0.054(4) -0.002(2) -0.009(3) -0.001(2)
N1 0.056(2) 0.036(2) 0.090(4) -0.002(2) 0.019(3) 0.0022(19)
N2 0.106(4) 0.038(2) 0.110(5) -0.001(3) 0.052(4) 0.006(3)
N3 0.059(3) 0.032(2) 0.090(4) -0.007(2) 0.017(3) 0.0022(18)
N4 0.090(4) 0.036(2) 0.118(5) -0.004(3) 0.047(3) -0.001(2)
N5 0.047(2) 0.043(2) 0.060(3) 0.012(2) 0.001(2) 0.0039(18)
N6 0.052(3) 0.077(3) 0.085(4) 0.027(3) -0.012(3) -0.010(2)
N7 0.051(2) 0.041(2) 0.057(3) -0.0026(19) -0.001(2) 0.0018(17)
N8 0.056(3) 0.061(3) 0.067(4) 0.010(2) 0.008(3) -0.014(2)
N9 0.052(2) 0.043(2) 0.061(3) -0.017(2) -0.010(2) 0.0017(18)
N10 0.060(3) 0.069(3) 0.062(3) -0.021(2) -0.016(2) 0.021(2)
N11 0.046(2) 0.0323(18) 0.052(3) -0.0031(18) -0.0038(19) 0.0039(16)
N12 0.049(2) 0.047(2) 0.056(3) -0.008(2) -0.007(2) 0.0132(18)
Ni2 0.0349(2) 0.0400(3) 0.0316(3) -0.0007(4) 0.0001(3) 0.00069(19)
C19 0.041(3) 0.066(3) 0.045(3) -0.006(2) 0.004(2) -0.018(2)
C20 0.046(3) 0.057(3) 0.049(3) 0.003(2) 0.009(2) -0.011(2)
C21 0.036(2) 0.038(2) 0.032(3) 0.0019(18) 0.003(2) 0.0030(18)
C22 0.034(2) 0.0378(18) 0.034(2) -0.008(2) -0.0018(19) -0.004(2)
C23 0.040(2) 0.068(3) 0.035(3) -0.005(2) 0.000(2) -0.018(2)
C24 0.046(3) 0.058(3) 0.038(3) -0.001(2) 0.006(2) -0.015(2)
C25 0.045(2) 0.0331(18) 0.045(3) 0.000(3) 0.014(3) -0.0050(15)
C26 0.051(2) 0.0322(18) 0.065(3) -0.007(3) 0.022(3) -0.0122(17)
C27 0.071(3) 0.032(2) 0.055(3) -0.001(3) 0.017(3) 0.0010(19)
C28 0.055(2) 0.037(2) 0.051(3) 0.012(3) 0.010(3) 0.0100(18)
C29 0.041(2) 0.0296(17) 0.037(3) 0.005(2) 0.006(2) 0.0032(15)
C30 0.048(2) 0.0292(17) 0.033(3) 0.001(2) 0.007(2) -0.0019(15)
C31 0.041(2) 0.039(2) 0.048(3) -0.005(3) 0.015(3) -0.0056(16)
C32 0.100(4) 0.030(2) 0.080(4) 0.000(4) 0.029(4) -0.001(3)
N13 0.037(2) 0.053(2) 0.039(2) 0.0022(18) 0.0011(18) -0.0015(17)
N14 0.040(2) 0.065(3) 0.039(3) -0.008(2) -0.0018(18) -0.0133(18)
N15 0.0371(19) 0.055(2) 0.032(2) -0.0029(17) -0.0014(17) -0.0061(17)
O1 0.0477(17) 0.0407(16) 0.051(2) -0.0085(13) -0.0041(15) 0.0120(13)
O2 0.044(2) 0.065(2) 0.151(6) -0.044(3) 0.003(2) -0.0128(17)
O3 0.105(3) 0.0318(17) 0.148(5) -0.001(3) 0.052(3) -0.0115(18)
O4 0.101(3) 0.0339(18) 0.127(5) 0.000(2) 0.046(3) 0.0120(19)
N16 0.040(2) 0.051(2) 0.030(2) -0.0005(17) 0.0000(17) -0.0083(17)
C33 0.042(2) 0.049(2) 0.027(3) 0.0083(18) 0.0052(19) 0.0015(18)
O5 0.0405(16) 0.0379(16) 0.0408(19) 0.0000(13) 0.0032(13) -0.0043(12)
O6 0.0442(16) 0.0613(18) 0.063(2) 0.005(2) 0.000(2) 0.0139(14)
Ni2C 0.0349 0.04 0.0316 -0.0007 -0.0001 -0.00069
Ni2E 0.0349 0.04 0.0316 0.0007 -0.0001 0.00069
N16C 0.04 0.051 0.03 -0.0005 0 0.0083
O5E 0.0405 0.0379 0.0408 0 -0.0032 -0.0043
O7 0.183(19) 0.32(3) 0.63(6) -0.15(4) -0.14(3) 0.021(18)
O8 0.210(18) 0.29(3) 0.25(3) -0.01(2) -0.015(19) -0.020(17)
loop_
_geom_bond_atom_site_label_1
_geom_bond_atom_site_label_2
_geom_bond_site_symmetry_1
_geom_bond_site_symmetry_2
Ni1 N1 1_555 1_555
Ni2 N13 1_555 1_555
C1 H1 1_555 1_555
C2 C1 1_555 1_555
H2 C2 1_555 1_555
C3 C4 1_555 1_555
C4 N3 1_555 1_555
C5 H3 1_555 1_555
C6 C5 1_555 1_555
H4 C6 1_555 1_555
C7 H5 1_555 1_555
C8 C7 1_555 1_555
H6 C8 1_555 1_555
C9 C10 1_555 1_555
C10 N7 1_555 1_555
C11 H7 1_555 1_555
C12 C11 1_555 1_555
H8 C12 1_555 1_555
C13 H9 1_555 1_555
C14 C13 1_555 1_555
H10 C14 1_555 1_555
C15 C16 1_555 1_555
C16 N11 1_555 1_555
C17 H11 1_555 1_555
C18 C17 1_555 1_555
H12 C18 1_555 1_555
C19 H13 1_555 1_555
C20 C19 1_555 1_555
H14 C20 1_555 1_555
C21 C22 1_555 1_555
C22 N15 1_555 1_555
C23 H15 1_555 1_555
C24 C23 1_555 1_555
H16 C24 1_555 1_555
C25 C26 1_555 1_555
C26 H17 1_555 1_555
C27 C26 1_555 1_555
C28 C27 1_555 1_555
H18 C28 1_555 1_555
C29 C28 1_555 1_555
C30 C25 1_555 1_555
H19 C30 1_555 1_555
C31 C25 1_555 1_555
C32 C27 1_555 1_555
N1 C1 1_555 1_555
N2 C2 1_555 1_555
H20 N2 1_555 1_555
N3 Ni1 1_555 1_555
N4 C4 1_555 1_555
H21 N4 1_555 1_555
N5 Ni1 1_555 1_555
N6 C8 1_555 1_555
H22 N6 1_555 1_555
N7 Ni1 1_555 1_555
N8 C10 1_555 1_555
H23 N8 1_555 1_555
N9 Ni1 1_555 1_555
N10 C14 1_555 1_555
H24 N10 1_555 1_555
N11 Ni1 1_555 1_555
N12 C16 1_555 1_555
H25 N12 1_555 1_555
N13 C20 1_555 1_555
N14 C19 1_555 1_555
H26 N14 1_555 1_555
N15 Ni2 1_555 1_555
O1 Ni2 1_555 1_555
O2 C31 1_555 1_555
O3 C32 1_555 1_555
O4 C32 1_555 1_555
N16 C22 1_555 1_555
C33 C29 1_555 1_555
O5 C33 1_555 1_555
O6 C33 1_555 1_555
O7 H27 1_555 1_555
H28 O7 1_555 1_555
O8 H29 1_555 1_555
H30 O8 1_555 1_555
Ni2C N16 1_555 1_555
Ni2E O5 1_555 1_555
N16C Ni2 1_555 1_555
O5E Ni2 1_555 1_555
C3 N1 1_555 1_555
C3 N2 1_555 1_555
C5 N3 1_555 1_555
C6 N4 1_555 1_555
C7 N5 1_555 1_555
C9 N5 1_555 1_555
C9 N6 1_555 1_555
C11 N8 1_555 1_555
C12 N7 1_555 1_555
C13 N9 1_555 1_555
C15 N9 1_555 1_555
C15 N10 1_555 1_555
C17 N12 1_555 1_555
C18 N11 1_555 1_555
C21 N13 1_555 1_555
C21 N14 1_555 1_555
C23 N15 1_555 1_555
C24 N16 1_555 1_555
C29 C30 1_555 1_555
C31 O1 1_555 1_555

#END
