
#######################################################################
#
#                 Cambridge Crystallographic Data Centre
#                                CCDC 
#
#######################################################################
#
# If this CIF has been generated from an entry in the Cambridge 
# Structural Database, then it will include bibliographic, chemical, 
# crystal, experimental, refinement or atomic coordinate data resulting 
# from the CCDC's data processing and validation procedures.
#
#######################################################################

data_ZODXUN
_chemical_formula_moiety         '(C16 H8 N4 Ni1)n'
_chemical_name_systematic        
'catena-[(\m~4~-1,4-bis(1H-pyrazol-4-ylethynyl)benzene)-nickel(ii) unknown solvate]'
_symmetry_cell_setting           orthorhombic
_symmetry_space_group_name_H-M   'I m m a'
_symmetry_Int_Tables_number      74
_space_group_name_Hall           '-I 2b 2'
loop_
_symmetry_equiv_pos_site_id
_symmetry_equiv_pos_as_xyz
1 x,y,z
2 -x,1/2-y,z
3 -x,1/2+y,-z
4 1/2-x,-y,1/2+z
5 1/2-x,y,1/2-z
6 x,-y,-z
7 1/2+x,1/2-y,1/2-z
8 1/2+x,1/2+y,1/2+z
9 -x,-y,-z
10 x,1/2+y,-z
11 x,1/2-y,z
12 1/2+x,y,1/2-z
13 1/2+x,-y,1/2+z
14 -x,y,z
15 1/2-x,1/2+y,1/2+z
16 1/2-x,1/2-y,1/2-z
_cell_length_a                   6.8000(24)
_cell_length_b                   31.727(10)
_cell_length_c                   18.3560(33)
_cell_angle_alpha                90
_cell_angle_beta                 90
_cell_angle_gamma                90
_cell_volume                     3960.19
_exptl_crystal_colour            'dark orange'
_cell_formula_units_Z            4
loop_
_atom_site_label
_atom_site_type_symbol
_atom_site_fract_x
_atom_site_fract_y
_atom_site_fract_z
_atom_site_U_iso_or_equiv
_atom_site_thermal_displace_type
Ni1 Ni 0.250 0.250 0.250 0.1013 Uiso
C1 C 0.500 0.037941 0.037862 0.1267 Uiso
C2 C 0.411542 0.035403 -0.030263 0.1330 Uiso
H1 H 0.351084 0.059599 -0.050947 0.1330 Uiso
C3 C 0.500 0.079977 0.079810 0.1267 Uiso
C4 C 0.500 0.113824 0.113587 0.1267 Uiso
C5 C 0.500 0.155860 0.155535 0.1267 Uiso
C6 C 0.661803 0.177680 0.177309 0.1267 Uiso
H2 H 0.794672 0.169667 0.169313 0.1267 Uiso
N1 N 0.6 0.212985 0.212541 0.1267 Uiso
C7 C 0.411542 -0.002538 -0.068126 0.1330 Uiso
H3 H 0.351084 -0.004273 -0.114687 0.1330 Uiso
C1H C 0.500 -0.037941 -0.037862 0.1267 Uiso
C2H C 0.588458 -0.035403 0.030263 0.1330 Uiso
H1H H 0.648916 -0.059599 0.050947 0.1330 Uiso
C3H C 0.500 -0.079977 -0.079810 0.1267 Uiso
C4H C 0.500 -0.113824 -0.113587 0.1267 Uiso
C5H C 0.500 -0.155860 -0.155535 0.1267 Uiso
C6H C 0.338197 -0.177680 -0.177309 0.1267 Uiso
H2H H 0.205328 -0.169667 -0.169313 0.1267 Uiso
N1H N 0.4 -0.212985 -0.212541 0.1267 Uiso
C7H C 0.588458 0.002538 0.068126 0.1330 Uiso
H3H H 0.648916 0.004273 0.114687 0.1330 Uiso
C2M C 0.588458 0.035403 -0.030263 0.1330 Uiso
H1M H 0.648916 0.059599 -0.050947 0.1330 Uiso
C6M C 0.338197 0.177680 0.177309 0.1267 Uiso
H2M H 0.205328 0.169667 0.169313 0.1267 Uiso
N1M N 0.4 0.212985 0.212541 0.1267 Uiso
C7M C 0.588458 -0.002538 -0.068126 0.1330 Uiso
H3M H 0.648916 -0.004273 -0.114687 0.1330 Uiso
C2E C 0.411542 -0.035403 0.030263 0.1330 Uiso
H1E H 0.351084 -0.059599 0.050947 0.1330 Uiso
C6E C 0.661803 -0.177680 -0.177309 0.1267 Uiso
H2E H 0.794672 -0.169667 -0.169313 0.1267 Uiso
N1E N 0.6 -0.212985 -0.212541 0.1267 Uiso
C7E C 0.411542 0.002538 0.068126 0.1330 Uiso
H3E H 0.351084 0.004273 0.114687 0.1330 Uiso
Ni1H Ni 0.750 -0.250 -0.250 0.1013 Uiso
Ni1A Ni 0.750 0.250 0.250 0.1013 Uiso
Ni1C Ni 0.250 -0.250 -0.250 0.1013 Uiso
N1A N 0.4 0.287015 0.212541 0.1267 Uiso
N1F N 0.1 0.287015 0.287459 0.1267 Uiso
N1K N 0.1 0.212985 0.287459 0.1267 Uiso
loop_
_geom_bond_atom_site_label_1
_geom_bond_atom_site_label_2
_geom_bond_site_symmetry_1
_geom_bond_site_symmetry_2
Ni1 N1M 1_555 1_555
C1 C2 1_555 1_555
C2 H1 1_555 1_555
C3 C1 1_555 1_555
C4 C3 1_555 1_555
C5 C4 1_555 1_555
C6 C5 1_555 1_555
H2 C6 1_555 1_555
N1 C6 1_555 1_555
C7 C2 1_555 1_555
H3 C7 1_555 1_555
C1H C7 1_555 1_555
C2H C1H 1_555 1_555
H1H C2H 1_555 1_555
C3H C1H 1_555 1_555
C4H C3H 1_555 1_555
C5H C4H 1_555 1_555
C6H C5H 1_555 1_555
H2H C6H 1_555 1_555
N1H C6H 1_555 1_555
C7H C1 1_555 1_555
H3H C7H 1_555 1_555
C2M C1 1_555 1_555
H1M C2M 1_555 1_555
C6M C5 1_555 1_555
H2M C6M 1_555 1_555
N1M N1 1_555 1_555
C7M C7 1_555 1_555
H3M C7M 1_555 1_555
C2E C1H 1_555 1_555
H1E C2E 1_555 1_555
C6E C5H 1_555 1_555
H2E C6E 1_555 1_555
N1E N1H 1_555 1_555
C7E C1 1_555 1_555
H3E C7E 1_555 1_555
Ni1H N1E 1_555 1_555
Ni1A N1 1_555 1_555
Ni1C N1H 1_555 1_555
N1A Ni1 1_555 1_555
N1F Ni1 1_555 1_555
N1K Ni1 1_555 1_555
C2 C2M 1_555 1_555
C1H C7M 1_555 1_555
C2H C7H 1_555 1_555
C2H C2E 1_555 1_555
C7H C7E 1_555 1_555
C2M C7M 1_555 1_555
C6M N1M 1_555 1_555
C2E C7E 1_555 1_555
C6E N1E 1_555 1_555

#END
