
#######################################################################
#
#                 Cambridge Crystallographic Data Centre
#                                CCDC 
#
#######################################################################
#
# If this CIF has been generated from an entry in the Cambridge 
# Structural Database, then it will include bibliographic, chemical, 
# crystal, experimental, refinement or atomic coordinate data resulting 
# from the CCDC's data processing and validation procedures.
#
#######################################################################

data_HAZGOF05
_chemical_name_common            
catena-[tris(mu!4$-Terephthalato)-di-scandium(iii)]
_chemical_formula_moiety         '(C24 H12 O12 Sc2)n'
_chemical_name_systematic        
catena-[tris(\m~4~-Benzene-1,4-dicarboxylato)-di-scandium(iii)]
_symmetry_cell_setting           orthorhombic
_symmetry_space_group_name_H-M   'F d d d'
_symmetry_Int_Tables_number      70
_space_group_name_Hall           '-F 2uv 2vw'
loop_
_symmetry_equiv_pos_site_id
_symmetry_equiv_pos_as_xyz
1 x,y,z
2 3/4-x,1/4-y,1/2+z
3 x,3/4-y,3/4-z
4 3/4-x,y,3/4-z
5 x,1/2+y,1/2+z
6 3/4-x,3/4-y,z
7 x,1/4-y,1/4-z
8 3/4-x,1/2+y,1/4-z
9 1/2+x,y,1/2+z
10 1/4-x,1/4-y,z
11 1/2+x,3/4-y,1/4-z
12 1/4-x,y,1/4-z
13 1/2+x,1/2+y,z
14 1/4-x,3/4-y,1/2+z
15 1/2+x,1/4-y,3/4-z
16 1/4-x,1/2+y,3/4-z
17 -x,-y,-z
18 1/4+x,3/4+y,1/2-z
19 -x,1/4+y,1/4+z
20 1/4+x,-y,1/4+z
21 -x,1/2-y,1/2-z
22 1/4+x,1/4+y,-z
23 -x,3/4+y,3/4+z
24 1/4+x,1/2-y,3/4+z
25 1/2-x,-y,1/2-z
26 3/4+x,3/4+y,-z
27 1/2-x,1/4+y,3/4+z
28 3/4+x,-y,3/4+z
29 1/2-x,1/2-y,-z
30 3/4+x,1/4+y,1/2-z
31 1/2-x,3/4+y,1/4+z
32 3/4+x,1/2-y,1/4+z
_cell_length_a                   8.734610(15)
_cell_length_b                   20.733114(25)
_cell_length_c                   34.35274(4)
_cell_angle_alpha                90
_cell_angle_beta                 90
_cell_angle_gamma                90
_cell_volume                     6221.13
_cell_formula_units_Z            8
_exptl_crystal_preparation       
'The void space in the structure contains no guest molecules as the sample was heated to 623 K under vacuum prior to data collection'
loop_
_atom_site_label
_atom_site_type_symbol
_atom_site_fract_x
_atom_site_fract_y
_atom_site_fract_z
_atom_site_U_iso_or_equiv
_atom_site_thermal_displace_type
Sc1 Sc 0.125 0.125 0.364268(30) 0.0124 Uiso
O1 O -0.00555(28) 0.20807(10) 0.36461(6) 0.0422 Uiso
O2 O 0.26193(29) 0.16538(11) 0.32032(6) 0.0316 Uiso
O3 O 0.49520(31) 0.16498(12) 0.34211(6) 0.0421 Uiso
C1 C -0.125 0.23636(24) 0.375 0.0485 Uiso
C2 C -0.125 0.31078(22) 0.375 0.0355 Uiso
C3 C -0.2659(4) 0.34027(14) 0.37532(12) 0.0525 Uiso
C4 C 0.3963(5) 0.17974(17) 0.31675(10) 0.0556 Uiso
C5 C 0.4586(5) 0.21873(18) 0.28075(10) 0.0323 Uiso
C6 C 0.3363(4) 0.23473(18) 0.25505(11) 0.0445 Uiso
C7 C 0.6087(6) 0.23037(18) 0.27817(11) 0.0550 Uiso
Sc1C Sc -0.375 0.125 0.385732(30) 0.0124 Uiso
Sc1C_2 Sc 0.625 0.125 0.385732(30) 0.0124 Uiso
Sc1B Sc 0.125 0.625 0.385732(30) 0.0124 Uiso
Sc1E Sc -0.375 0.625 0.364268(30) 0.0124 Uiso
Sc1T Sc 0.875 0.375 0.135732(30) 0.0124 Uiso
Sc1W Sc 0.375 0.375 0.114268(30) 0.0124 Uiso
Sc1Q Sc -0.625 -0.125 0.135732(30) 0.0124 Uiso
Sc1V Sc -0.125 -0.125 0.114268(30) 0.0124 Uiso
O1C O -0.24445(28) 0.20807(10) 0.38539(6) 0.0422 Uiso
O1B O -0.00555(28) 0.54193(10) 0.38539(6) 0.0422 Uiso
O1E O -0.24445(28) 0.54193(10) 0.36461(6) 0.0422 Uiso
O1I O 0.25555(28) 0.04193(10) 0.36461(6) 0.0422 Uiso
O1N O -0.50555(28) 0.04193(10) 0.38539(6) 0.0422 Uiso
O2T O 0.73807(29) 0.33462(11) 0.17968(6) 0.0316 Uiso
O2I O -0.01193(29) 0.08462(11) 0.32032(6) 0.0316 Uiso
O2Q O -0.48807(29) -0.08462(11) 0.17968(6) 0.0316 Uiso
O2C O -0.51193(29) 0.16538(11) 0.42968(6) 0.0316 Uiso
O2N O -0.23807(29) 0.08462(11) 0.42968(6) 0.0316 Uiso
O3T O 0.50480(31) 0.33502(12) 0.15789(6) 0.0421 Uiso
O3I O -0.24520(31) 0.08502(12) 0.34211(6) 0.0421 Uiso
O3Q O -0.25480(31) -0.08502(12) 0.15789(6) 0.0421 Uiso
O3C O 0.25480(31) 0.16498(12) 0.40789(6) 0.0421 Uiso
O3N O -0.00480(31) 0.08502(12) 0.40789(6) 0.0421 Uiso
O3_2 O -0.50480(31) 0.16498(12) 0.34211(6) 0.0421 Uiso
C1B C -0.125 0.51364(24) 0.375 0.0485 Uiso
C2B C -0.125 0.43922(22) 0.375 0.0355 Uiso
C3B C -0.2659(4) 0.40973(14) 0.37468(12) 0.0525 Uiso
C3E C 0.0159(4) 0.40973(14) 0.37532(12) 0.0525 Uiso
C3C C 0.0159(4) 0.34027(14) 0.37468(12) 0.0525 Uiso
C4T C 0.6037(5) 0.32026(17) 0.18325(10) 0.0556 Uiso
C4I C -0.1463(5) 0.07026(17) 0.31675(10) 0.0556 Uiso
C4Q C -0.3537(5) -0.07026(17) 0.18325(10) 0.0556 Uiso
C5T C 0.5414(5) 0.28127(18) 0.21925(10) 0.0323 Uiso
C5I C -0.2086(5) 0.03127(18) 0.28075(10) 0.0323 Uiso
C5Q C -0.2914(5) -0.03127(18) 0.21925(10) 0.0323 Uiso
C6T C 0.6637(4) 0.26527(18) 0.24495(11) 0.0445 Uiso
C6I C -0.0863(4) 0.01527(18) 0.25505(11) 0.0445 Uiso
C6Q C -0.4137(4) -0.01527(18) 0.24495(11) 0.0445 Uiso
C7T C 0.3913(6) 0.26963(18) 0.22183(11) 0.0550 Uiso
C7I C -0.3587(6) 0.01963(18) 0.27817(11) 0.0550 Uiso
C7Q C -0.1413(6) -0.01963(18) 0.22183(11) 0.0550 Uiso
loop_
_geom_bond_atom_site_label_1
_geom_bond_atom_site_label_2
_geom_bond_site_symmetry_1
_geom_bond_site_symmetry_2
Sc1 O1 1_555 1_555
O1 C1 1_555 1_555
O2 Sc1 1_555 1_555
O3 C4 1_555 1_555
C1 C2 1_555 1_555
C2 C3 1_555 1_555
C3 C3B 1_555 1_555
C4 O2 1_555 1_555
C5 C4 1_555 1_555
C6 C5 1_555 1_555
C7 C5 1_555 1_555
Sc1C O1C 1_555 1_555
Sc1C_2 O3 1_555 1_555
Sc1B O1B 1_555 1_555
Sc1E O1E 1_555 1_555
Sc1T O2T 1_555 1_555
Sc1W O3T 1_555 1_555
Sc1Q O2Q 1_555 1_555
Sc1V O3Q 1_555 1_555
O1C C1 1_555 1_555
O1B C1B 1_555 1_555
O1E C1B 1_555 1_555
O1I Sc1 1_555 1_555
O1N Sc1C 1_555 1_555
O2T C4T 1_555 1_555
O2I Sc1 1_555 1_555
O2Q C4Q 1_555 1_555
O2C Sc1C 1_555 1_555
O2N Sc1C 1_555 1_555
O3T C4T 1_555 1_555
O3I Sc1C 1_555 1_555
O3Q C4Q 1_555 1_555
O3C Sc1 1_555 1_555
O3N Sc1 1_555 1_555
O3_2 Sc1C 1_555 1_555
C1B C2B 1_555 1_555
C2B C3B 1_555 1_555
C3E C2B 1_555 1_555
C3C C2 1_555 1_555
C4T C5T 1_555 1_555
C4I O2I 1_555 1_555
C4Q C5Q 1_555 1_555
C5T C6T 1_555 1_555
C5I C4I 1_555 1_555
C5Q C6Q 1_555 1_555
C6T C7 1_555 1_555
C6I C5I 1_555 1_555
C6Q C7I 1_555 1_555
C7T C6 1_555 1_555
C7I C5I 1_555 1_555
C7Q C5Q 1_555 1_555
O3I C4I 1_555 1_555
C3E C3C 1_555 1_555
C5T C7T 1_555 1_555
C6I C7Q 1_555 1_555

#END
