
#######################################################################
#
#                 Cambridge Crystallographic Data Centre
#                                CCDC 
#
#######################################################################
#
# If this CIF has been generated from an entry in the Cambridge 
# Structural Database, then it will include bibliographic, chemical, 
# crystal, experimental, refinement or atomic coordinate data resulting 
# from the CCDC's data processing and validation procedures.
#
#######################################################################

data_MAWWAK
_chemical_name_common            
catena-[tris(mu!4$-2-Nitroterephthalato)-di-scandium(iii)]
_chemical_formula_moiety         '(C24 H9 N3 O18 Sc2)n'
_chemical_name_systematic        
catena-[tris(\m~4~-2-Nitrobenzene-1,4-dicarboxylato)-di-scandium(iii)]
_symmetry_cell_setting           monoclinic
_symmetry_space_group_name_H-M   'C 2/c'
_symmetry_Int_Tables_number      15
_space_group_name_Hall           '-C 2yc'
loop_
_symmetry_equiv_pos_site_id
_symmetry_equiv_pos_as_xyz
1 x,y,z
2 -x,y,1/2-z
3 1/2+x,1/2+y,z
4 1/2-x,1/2+y,1/2-z
5 -x,-y,-z
6 x,-y,1/2+z
7 1/2-x,1/2-y,-z
8 1/2+x,1/2-y,1/2+z
_cell_length_a                   8.66745(20)
_cell_length_b                   34.34855(30)
_cell_length_c                   11.42264(15)
_cell_angle_alpha                90
_cell_angle_beta                 115.2333(12)
_cell_angle_gamma                90
_cell_volume                     3076.19
_cell_formula_units_Z            4
_exptl_crystal_preparation       
'The void space in the structure contains no guest molecules as the sample was heated to 443 K under vacuum prior to data collection'
loop_
_atom_site_label
_atom_site_type_symbol
_atom_site_fract_x
_atom_site_fract_y
_atom_site_fract_z
_atom_site_U_iso_or_equiv
_atom_site_thermal_displace_type
Sc1 Sc 0.00000 0.36303(15) 0.2500 0.0043 Uiso
Sc2 Sc 0.50000 0.38348(18) 0.2500 0.0043 Uiso
O1 O 0.2359(7) 0.3667(4) 0.4138(6) 0.0115 Uiso
O2 O 0.4921(11) 0.3816(4) 0.4343(7) 0.0115 Uiso
O3 O 0.0597(11) 0.40293(21) 0.1370(7) 0.0115 Uiso
O4 O 0.3107(10) 0.42655(26) 0.1726(13) 0.0115 Uiso
O5 O -0.0771(11) 0.31810(21) 0.3363(9) 0.0115 Uiso
O6 O -0.3287(11) 0.33768(26) 0.3112(12) 0.0115 Uiso
C1 C 0.3935(14) 0.3720(8) 0.4813(9) 0.0855 Uiso
C2 C 0.4532(6) 0.3753(6) 0.6187(5) 0.0855 Uiso
C3 C 0.3290(6) 0.3740(6) 0.6653(5) 0.0855 Uiso
C4 C 0.6271(5) 0.3749(5) 0.7016(5) 0.0855 Uiso
N1 N 0.7597(9) 0.3744(4) 0.6523(9) 0.0855 Uiso
C5 C 0.1578(9) 0.43202(23) 0.1359(13) 0.0855 Uiso
C6 C 0.0808(5) 0.46693(14) 0.0690(8) 0.0855 Uiso
C7 C -0.0971(5) 0.46722(11) -0.0069(11) 0.0855 Uiso
C8 C 0.17620(19) 0.49598(14) 0.0443(7) 0.0855 Uiso
N2 N 0.3628(5) 0.4902(4) 0.0701(11) 0.0855 Uiso
C9 C -0.1991(12) 0.31544(27) 0.3690(11) 0.0855 Uiso
C10 C -0.2151(7) 0.28298(19) 0.4445(9) 0.0855 Uiso
C11 C -0.0875(6) 0.25472(20) 0.4988(9) 0.0855 Uiso
N3 N 0.0848(8) 0.2580(4) 0.5005(11) 0.0855 Uiso
C12 C -0.3756(7) 0.27801(21) 0.4426(10) 0.0855 Uiso
O7 O 0.8154(16) 0.3425(4) 0.6233(14) 0.0855 Uiso
O8 O 0.8312(15) 0.4048(4) 0.6340(14) 0.0855 Uiso
O9 O 0.3705(10) 0.4752(4) -0.0292(9) 0.0855 Uiso
O10 O 0.4653(7) 0.5046(5) 0.1670(11) 0.0855 Uiso
O11 O 0.1193(14) 0.2421(5) 0.4107(12) 0.0855 Uiso
O12 O 0.2062(11) 0.2787(4) 0.5826(15) 0.0855 Uiso
Sc1_2 Sc 1.00000 0.36303(15) 1.2500 0.0043 Uiso
Sc1D Sc 0.00000 0.63697(15) -0.2500 0.0043 Uiso
Sc1F Sc -0.50000 0.13697(15) 0.7500 0.0043 Uiso
Sc2_2 Sc -0.50000 0.38348(18) 0.2500 0.0043 Uiso
Sc2_3 Sc 0.50000 0.38348(18) 1.2500 0.0043 Uiso
Sc2D Sc -0.50000 0.61652(18) -0.2500 0.0043 Uiso
Sc2F Sc 0.00000 0.11652(18) 0.7500 0.0043 Uiso
O1A O 0.7641(7) 0.3667(4) 1.0862(6) 0.0115 Uiso
O1A_2 O -0.2359(7) 0.3667(4) 0.0862(6) 0.0115 Uiso
O2A O 0.5079(11) 0.3816(4) 1.0657(7) 0.0115 Uiso
O2A_2 O 0.5079(11) 0.3816(4) 0.0657(7) 0.0115 Uiso
O3D O -0.0597(11) 0.59707(21) -0.1370(7) 0.0115 Uiso
O3A O -0.0597(11) 0.40293(21) 0.3630(7) 0.0115 Uiso
O4D O -0.3107(10) 0.57345(26) -0.1726(13) 0.0115 Uiso
O4A O 0.6893(10) 0.42655(26) 0.3274(13) 0.0115 Uiso
O5F O -0.4229(11) 0.18190(21) 0.6637(9) 0.0115 Uiso
O5A O 0.0771(11) 0.31810(21) 0.1637(9) 0.0115 Uiso
O6F O -0.1713(11) 0.16232(26) 0.6888(12) 0.0115 Uiso
O6_2 O 0.6713(11) 0.33768(26) 0.3112(12) 0.0115 Uiso
O6A O 0.3287(11) 0.33768(26) 0.1888(12) 0.0115 Uiso
C1A C 0.6065(14) 0.3720(8) 1.0187(9) 0.0855 Uiso
C2A C 0.5468(6) 0.3753(6) 0.8813(5) 0.0855 Uiso
C3A C 0.6710(6) 0.3740(6) 0.8347(5) 0.0855 Uiso
C4A C 0.3729(5) 0.3749(5) 0.7984(5) 0.0855 Uiso
N1A N 0.2403(9) 0.3744(4) 0.8477(9) 0.0855 Uiso
C5D C -0.1578(9) 0.56798(23) -0.1359(13) 0.0855 Uiso
C6D C -0.0808(5) 0.53307(14) -0.0690(8) 0.0855 Uiso
C7D C 0.0971(5) 0.53278(11) 0.0069(11) 0.0855 Uiso
C8D C -0.17620(19) 0.50402(14) -0.0443(7) 0.0855 Uiso
N2D N -0.3628(5) 0.5098(4) -0.0701(11) 0.0855 Uiso
C9F C -0.3009(12) 0.18456(27) 0.6310(11) 0.0855 Uiso
C10F C -0.2849(7) 0.21702(19) 0.5555(9) 0.0855 Uiso
C11F C -0.4125(6) 0.24528(20) 0.5012(9) 0.0855 Uiso
N3F N -0.5848(8) 0.2420(4) 0.4995(11) 0.0855 Uiso
C12F C -0.1244(7) 0.22199(21) 0.5574(10) 0.0855 Uiso
O7A O 0.1846(16) 0.3425(4) 0.8767(14) 0.0855 Uiso
O8A O 0.1688(15) 0.4048(4) 0.8660(14) 0.0855 Uiso
O9D O -0.3705(10) 0.5248(4) 0.0292(9) 0.0855 Uiso
O10D O -0.4653(7) 0.4954(5) -0.1670(11) 0.0855 Uiso
O11F O -0.6193(14) 0.2579(5) 0.5893(12) 0.0855 Uiso
O12F O -0.7062(11) 0.2213(4) 0.4174(15) 0.0855 Uiso
loop_
_geom_bond_atom_site_label_1
_geom_bond_atom_site_label_2
_geom_bond_site_symmetry_1
_geom_bond_site_symmetry_2
Sc1 O1 1_555 1_555
Sc2 O2 1_555 1_555
O1 C1 1_555 1_555
O2 C1 1_555 1_555
O3 Sc1 1_555 1_555
O4 Sc2 1_555 1_555
O5 Sc1 1_555 1_555
O6 C9 1_555 1_555
C1 C2 1_555 1_555
C2 C3 1_555 1_555
C3 C4A 1_555 1_555
C4 C2 1_555 1_555
N1 C4 1_555 1_555
C5 O3 1_555 1_555
C6 C5 1_555 1_555
C7 C6 1_555 1_555
C8 C6 1_555 1_555
N2 C8 1_555 1_555
C9 O5 1_555 1_555
C10 C9 1_555 1_555
C11 C10 1_555 1_555
N3 C11 1_555 1_555
C12 C10 1_555 1_555
O7 N1 1_555 1_555
O8 N1 1_555 1_555
O9 N2 1_555 1_555
O10 N2 1_555 1_555
O11 N3 1_555 1_555
O12 N3 1_555 1_555
Sc1_2 O1A 1_555 1_555
Sc1D O3D 1_555 1_555
Sc1F O5F 1_555 1_555
Sc2_2 O6 1_555 1_555
Sc2_3 O2A 1_555 1_555
Sc2D O4D 1_555 1_555
Sc2F O6F 1_555 1_555
O1A C1A 1_555 1_555
O1A_2 Sc1 1_555 1_555
O2A C1A 1_555 1_555
O2A_2 Sc2 1_555 1_555
O3D C5D 1_555 1_555
O3A Sc1 1_555 1_555
O4D C5D 1_555 1_555
O4A Sc2 1_555 1_555
O5F C9F 1_555 1_555
O5A Sc1 1_555 1_555
O6F C9F 1_555 1_555
O6_2 Sc2 1_555 1_555
O6A Sc2 1_555 1_555
C1A C2A 1_555 1_555
C2A C3A 1_555 1_555
C3A C4 1_555 1_555
C4A C2A 1_555 1_555
N1A C4A 1_555 1_555
C5D C6D 1_555 1_555
C6D C7D 1_555 1_555
C7D C8 1_555 1_555
C8D C7 1_555 1_555
N2D C8D 1_555 1_555
C9F C10F 1_555 1_555
C10F C11F 1_555 1_555
C11F C12 1_555 1_555
N3F C11F 1_555 1_555
C12F C11 1_555 1_555
O7A N1A 1_555 1_555
O8A N1A 1_555 1_555
O9D N2D 1_555 1_555
O10D N2D 1_555 1_555
O11F N3F 1_555 1_555
O12F N3F 1_555 1_555
O4 C5 1_555 1_555
C6D C8D 1_555 1_555
C10F C12F 1_555 1_555

#END
