
#######################################################################
#
#                 Cambridge Crystallographic Data Centre
#                                CCDC 
#
#######################################################################
#
# If this CIF has been generated from an entry in the Cambridge 
# Structural Database, then it will include bibliographic, chemical, 
# crystal, experimental, refinement or atomic coordinate data resulting 
# from the CCDC's data processing and validation procedures.
#
#######################################################################

data_AGOFEJ
_chemical_formula_moiety         
'(C104 H104 Cu6 N16 O20 2+)n,2n(N1 O3 1-),12n(C3 H7 N1 O1)'
_chemical_name_systematic        
"catena-[tetrakis(\m~5~-4,4'-(Methylenebis(3,5-dimethyl-1H-pyrazole-1,4-diyl))dibenzoato)-diaqua-bis(ethanol)-di-copper(i)-tetra-copper(ii) dinitrate N,N-dimethylformamide solvate]"
_symmetry_cell_setting           monoclinic
_symmetry_space_group_name_H-M   'P 21/c'
_symmetry_Int_Tables_number      14
_space_group_name_Hall           '-P 2ybc'
loop_
_symmetry_equiv_pos_site_id
_symmetry_equiv_pos_as_xyz
1 x,y,z
2 -x,1/2+y,1/2-z
3 -x,-y,-z
4 x,1/2-y,1/2+z
_cell_length_a                   19.4251(9)
_cell_length_b                   36.589(2)
_cell_length_c                   37.762(2)
_cell_angle_alpha                90
_cell_angle_beta                 114.202(4)
_cell_angle_gamma                90
_cell_volume                     24480.1
_exptl_crystal_colour            blue
_exptl_crystal_description       rod
_cell_formula_units_Z            4
loop_
_atom_site_label
_atom_site_type_symbol
_atom_site_fract_x
_atom_site_fract_y
_atom_site_fract_z
Cu1 Cu 1.096413(18) 0.189285(8) 0.247032(11)
C1 C 0.67548(16) -0.01154(7) 0.30985(8)
H1 H 0.7157 -0.0293 0.3242
H2 H 0.6476 -0.0059 0.3260
C2 C 0.67134(15) 0.35590(7) 0.33090(9)
H3 H 0.6924 0.3436 0.3565
H4 H 0.6701 0.3825 0.3355
C3 C 0.48790(16) 0.43387(6) 0.17947(9)
H5 H 0.4498 0.4476 0.1577
H6 H 0.4649 0.4269 0.1975
C4 C 0.39284(17) 0.41904(7) -0.28151(8)
H7 H 0.3831 0.4453 -0.2791
H8 H 0.3435 0.4067 -0.2948
Cu2 Cu 1.162010(18) 0.188757(7) 0.323391(11)
Cu3 Cu 0.40693(2) 0.205137(8) -0.052836(10)
Cu4 Cu 0.55494(2) 0.200897(8) -0.026912(10)
Cu5 Cu 0.547886(19) 0.456671(7) -0.237779(10)
Cu6 Cu 0.605013(19) 0.392183(7) 0.249222(11)
N1 N 0.62448(13) -0.02745(5) 0.27348(6)
N2 N 0.71992(13) 0.34895(6) 0.31097(8)
N3 N 0.55249(13) 0.45680(5) 0.19941(7)
N4 N 0.43649(15) 0.41518(6) -0.30501(7)
N5 N 0.55492(13) -0.01144(5) 0.25407(6)
N6 N 0.71141(14) 0.37026(6) 0.27979(8)
N7 N 0.60507(13) 0.44531(5) 0.23428(7)
N8 N 0.50256(15) 0.43409(6) -0.29386(7)
C5 C 0.52233(16) -0.02951(6) 0.22025(8)
C6 C 0.76589(18) 0.35971(8) 0.26914(11)
C7 C 0.65978(16) 0.47052(6) 0.24542(9)
C8 C 0.5248(2) 0.42860(8) -0.32265(9)
C9 C 0.57310(16) -0.05650(6) 0.21741(8)
C10 C 0.81045(18) 0.33187(7) 0.29355(11)
C11 C 0.64122(17) 0.49848(6) 0.21701(9)
C12 C 0.4731(2) 0.40692(8) -0.35200(9)
C13 C 0.63699(18) -0.05438(6) 0.25216(9)
C14 C 0.77864(17) 0.32532(7) 0.32007(10)
C15 C 0.57171(17) 0.48877(6) 0.18807(9)
C16 C 0.4162(2) 0.39865(8) -0.34002(9)
C17 C 0.44489(17) -0.01997(7) 0.19222(9)
H9 H 0.4098 -0.0393 0.1921
H10 H 0.4440 -0.0175 0.1662
H11 H 0.4297 0.0032 0.1999
C18 C 0.7745(2) 0.37881(11) 0.23553(14)
H12 H 0.7545 0.3631 0.2125
H13 H 0.8281 0.3837 0.2424
H14 H 0.7466 0.4019 0.2300
C19 C 0.72755(19) 0.46606(7) 0.28259(11)
H15 H 0.7239 0.4826 0.3022
H16 H 0.7730 0.4719 0.2785
H17 H 0.7304 0.4408 0.2916
C20 C 0.5966(2) 0.44713(11) -0.31998(12)
H18 H 0.6088 0.4674 -0.3014
H19 H 0.5892 0.4566 -0.3456
H20 H 0.6381 0.4294 -0.3112
C21 C 0.70785(19) -0.07629(8) 0.26809(11)
H21 H 0.7478 -0.0632 0.2638
H22 H 0.6991 -0.1001 0.2550
H23 H 0.7233 -0.0800 0.2960
C22 C 0.7973(2) 0.29810(11) 0.35213(13)
H24 H 0.8208 0.3106 0.3772
H25 H 0.8324 0.2799 0.3500
H26 H 0.7510 0.2859 0.3502
C23 C 0.52192(19) 0.50750(7) 0.15197(10)
H27 H 0.5326 0.4986 0.1303
H28 H 0.5310 0.5339 0.1549
H29 H 0.4691 0.5025 0.1468
C24 C 0.3493(3) 0.37590(11) -0.35734(11)
H30 H 0.3502 0.3569 -0.3388
H31 H 0.3484 0.3644 -0.3810
H32 H 0.3041 0.3910 -0.3639
C25 C 0.56124(17) -0.08101(6) 0.18433(8)
C26 C 0.8751(2) 0.31242(8) 0.29181(12)
C27 C 0.68487(17) 0.53176(6) 0.21739(9)
C28 C 0.4774(2) 0.39432(9) -0.38838(11)
C29 C 0.48989(17) -0.09397(6) 0.16002(8)
H33 H 0.4473 -0.0868 0.1647
C30 C 0.8746(2) 0.30152(11) 0.25619(13)
H34 H 0.8342 0.3088 0.2328
C31 C 0.73195(17) 0.54855(6) 0.25242(10)
H35 H 0.7375 0.5380 0.2764
C32 C 0.5446(3) 0.38167(11) -0.38840(12)
H36 H 0.5895 0.3831 -0.3653
C33 C 0.47983(18) -0.11703(6) 0.12916(8)
H37 H 0.4306 -0.1251 0.1126
C34 C 0.9325(2) 0.28015(11) 0.25455(13)
H38 H 0.9317 0.2731 0.2302
C35 C 0.77046(17) 0.58043(7) 0.25224(10)
H39 H 0.8030 0.5913 0.2761
C36 C 0.5474(3) 0.36679(10) -0.42210(12)
H40 H 0.5942 0.3589 -0.4218
C37 C 0.54162(18) -0.12842(6) 0.12247(8)
C38 C 0.99200(19) 0.26901(8) 0.28901(11)
C39 C 0.76150(16) 0.59656(6) 0.21696(10)
C40 C 0.4819(2) 0.36368(9) -0.45573(11)
C41 C 0.61378(19) -0.11550(7) 0.14631(9)
H41 H 0.6564 -0.1231 0.1419
C42 C 0.99425(19) 0.28129(9) 0.32420(11)
H42 H 1.0353 0.2747 0.3477
C43 C 0.71709(19) 0.58000(7) 0.18292(11)
H43 H 0.7114 0.5909 0.1591
C44 C 0.4136(3) 0.37732(9) -0.45617(11)
H44 H 0.3686 0.3758 -0.4792
C45 C 0.62252(19) -0.09167(7) 0.17613(10)
H45 H 0.6713 -0.0822 0.1915
C46 C 0.9374(2) 0.30302(9) 0.32518(12)
H46 H 0.9409 0.3119 0.3495
C47 C 0.67984(19) 0.54730(7) 0.18237(10)
H47 H 0.6511 0.5355 0.1584
C48 C 0.4123(3) 0.39276(10) -0.42321(11)
H48 H 0.3664 0.4026 -0.4241
C49 C 0.5321(2) -0.15536(6) 0.09034(9)
C50 C 1.04892(19) 0.24210(7) 0.28780(11)
C51 C 0.80073(17) 0.63192(6) 0.21677(11)
C52 C 0.4822(3) 0.34252(8) -0.48978(11)
O1 O 0.59285(13) -0.16934(5) 0.09121(6)
O2 O 1.04701(12) 0.23367(5) 0.25443(7)
O3 O 0.84841(12) 0.64355(5) 0.24920(7)
O4 O 0.41746(17) 0.33386(6) -0.51577(7)
O5 O 0.46588(14) -0.16259(5) 0.06660(6)
O6 O 1.09249(12) 0.22863(5) 0.31989(7)
O7 O 0.78212(11) 0.64733(5) 0.18433(7)
O8 O 0.54640(15) 0.33400(6) -0.48908(7)
N9 N 0.70903(13) 0.02159(5) 0.30306(7)
N10 N 0.59535(12) 0.34297(5) 0.30875(7)
N11 N 0.50933(15) 0.40101(5) 0.16458(7)
N12 N 0.43162(13) 0.40364(5) -0.24318(6)
N13 N 0.66275(14) 0.05072(5) 0.28787(8)
N14 N 0.55302(13) 0.36013(5) 0.27506(7)
N15 N 0.55641(16) 0.37700(5) 0.19136(8)
N16 N 0.49398(13) 0.42130(5) -0.21705(6)
C53 C 0.70670(18) 0.07672(7) 0.28325(11)
C54 C 0.48584(15) 0.34372(6) 0.26175(8)
C55 C 0.5638(2) 0.34925(7) 0.17023(10)
C56 C 0.51864(15) 0.40078(6) -0.18463(8)
C57 C 0.78127(18) 0.06403(8) 0.29559(11)
C58 C 0.48524(16) 0.31646(6) 0.28778(9)
C59 C 0.5228(2) 0.35567(8) 0.13074(11)
C60 C 0.46996(16) 0.37034(6) -0.19034(8)
C61 C 0.78031(17) 0.02858(7) 0.30793(10)
C62 C 0.55559(16) 0.31654(6) 0.31748(9)
C63 C 0.4877(2) 0.38924(7) 0.12772(10)
C64 C 0.41625(16) 0.37250(6) -0.22807(8)
C65 C 0.6743(2) 0.11404(8) 0.26824(14)
H49 H 0.6630 0.1157 0.2405
H50 H 0.7110 0.1329 0.2824
H51 H 0.6278 0.1176 0.2721
C66 C 0.42290(17) 0.35572(8) 0.22434(9)
H52 H 0.4227 0.3824 0.2226
H53 H 0.3745 0.3474 0.2237
H54 H 0.4305 0.3451 0.2024
C67 C 0.6108(3) 0.31663(8) 0.19032(12)
H55 H 0.6621 0.3196 0.1917
H56 H 0.5881 0.2944 0.1757
H57 H 0.6129 0.3147 0.2166
C68 C 0.58699(17) 0.41098(7) -0.15004(9)
H58 H 0.6297 0.3960 -0.1490
H59 H 0.5782 0.4068 -0.1266
H60 H 0.5984 0.4369 -0.1516
C69 C 0.8427(2) 0.00078(10) 0.32427(14)
H61 H 0.8574 -0.0017 0.3523
H62 H 0.8864 0.0088 0.3196
H63 H 0.8250 -0.0229 0.3116
C70 C 0.59029(18) 0.29332(8) 0.35381(10)
H64 H 0.6392 0.2839 0.3562
H65 H 0.5566 0.2728 0.3521
H66 H 0.5975 0.3082 0.3766
C71 C 0.4375(3) 0.41076(9) 0.09335(11)
H67 H 0.3858 0.4102 0.0916
H68 H 0.4385 0.4002 0.0697
H69 H 0.4551 0.4361 0.0961
C72 C 0.35382(18) 0.34727(7) -0.25101(9)
H70 H 0.3059 0.3607 -0.2611
H71 H 0.3513 0.3273 -0.2343
H72 H 0.3631 0.3373 -0.2727
C73 C 0.84557(19) 0.08452(8) 0.29434(12)
C74 C 0.42000(16) 0.29377(6) 0.28551(9)
C75 C 0.5148(3) 0.33058(8) 0.09808(12)
C76 C 0.47532(16) 0.34178(6) -0.16164(8)
C77 C 0.9134(2) 0.08870(9) 0.32674(13)
H73 H 0.9200 0.0771 0.3504
C78 C 0.40277(16) 0.29056(6) 0.31797(9)
H74 H 0.4329 0.3030 0.3413
C79 C 0.5775(3) 0.31542(10) 0.09555(12)
H75 H 0.6262 0.3225 0.1137
C80 C 0.54283(16) 0.32349(6) -0.14062(9)
H76 H 0.5874 0.3301 -0.1437
C81 C 0.9711(2) 0.10941(9) 0.32504(12)
H77 H 1.0161 0.1129 0.3478
C82 C 0.34277(15) 0.26955(6) 0.31661(8)
H78 H 0.3329 0.2673 0.3392
C83 C 0.5711(3) 0.28965(10) 0.06671(13)
H79 H 0.6150 0.2791 0.0657
C84 C 0.54499(17) 0.29550(6) -0.11499(9)
H80 H 0.5912 0.2833 -0.1005
C85 C 0.96417(19) 0.12517(8) 0.29028(12)
C86 C 0.29735(15) 0.25193(6) 0.28324(8)
C87 C 0.5007(2) 0.27985(9) 0.03997(11)
C88 C 0.48017(16) 0.28538(6) -0.11061(8)
C89 C 0.8985(2) 0.12072(10) 0.25771(12)
H81 H 0.8935 0.1310 0.2337
C90 C 0.31210(16) 0.25513(7) 0.24998(9)
H82 H 0.2807 0.2431 0.2266
C91 C 0.4363(3) 0.29569(10) 0.04125(14)
H83 H 0.3874 0.2896 0.0224
C92 C 0.41243(17) 0.30395(6) -0.13095(9)
H84 H 0.3681 0.2973 -0.1276
C93 C 0.8390(2) 0.10101(11) 0.26005(13)
H85 H 0.7930 0.0988 0.2376
C94 C 0.37316(17) 0.27603(7) 0.25150(9)
H86 H 0.3831 0.2782 0.2289
C95 C 0.4453(3) 0.32069(10) 0.07082(13)
H87 H 0.4016 0.3312 0.0721
C96 C 0.41035(16) 0.33211(6) -0.15602(9)
H88 H 0.3645 0.3450 -0.1695
C97 C 1.0269(2) 0.14860(8) 0.28890(12)
C98 C 0.23355(16) 0.22886(6) 0.28268(9)
C99 C 0.4928(3) 0.25146(8) 0.01005(11)
C100 C 0.48107(17) 0.25393(6) -0.08472(8)
O9 O 1.08276(13) 0.15452(6) 0.32052(8)
O10 O 0.23122(10) 0.22291(4) 0.31526(6)
O11 O 0.55360(15) 0.24022(6) 0.00845(7)
O12 O 0.41871(12) 0.24507(5) -0.08420(6)
O13 O 1.01854(12) 0.16079(6) 0.25605(8)
O14 O 0.18595(11) 0.21714(4) 0.25018(6)
O15 O 0.42705(16) 0.24032(6) -0.01058(7)
O16 O 0.54324(11) 0.23855(4) -0.06615(6)
O17 O 0.28861(16) 0.20651(8) -0.07271(10)
H89 H 0.2671 0.2033 -0.0544
C101 C 0.2425(6) 0.2118(3) -0.1098(3)
H90 H 0.2724 0.2265 -0.1205
H91 H 0.2028 0.2283 -0.1091
C102 C 0.1974(5) 0.1823(2) -0.1440(3)
H92 H 0.2258 0.1780 -0.1598
H93 H 0.1473 0.1920 -0.1604
H94 H 0.1918 0.1593 -0.1322
O18 O 0.67381(16) 0.19676(7) -0.00710(8)
H95 H 0.7035 0.1875 0.0181
C103 C 0.7033(7) 0.2063(3) -0.0282(3)
H96 H 0.6716 0.2272 -0.0424
H97 H 0.6903 0.1863 -0.0475
C104 C 0.7835(12) 0.2178(5) -0.0237(6)
H98 H 0.7867 0.2445 -0.0240
H99 H 0.7933 0.2077 -0.0452
H100 H 0.8211 0.2084 0.0010
O19 O 1.04435(17) 0.18946(8) 0.18543(8)
O20 O 1.2187(2) 0.18743(8) 0.38507(9)
Cu1_2 Cu 0.096413(18) 0.189285(8) 0.247032(11)
Cu1A Cu 0.903587(18) 0.689285(8) 0.252968(11)
Cu2_2 Cu 0.162010(18) 0.188757(7) 0.323391(11)
Cu2A Cu 0.837990(18) 0.688757(7) 0.176609(11)
Cu3B Cu 0.59307(2) -0.205137(8) 0.052836(10)
Cu3C Cu 0.40693(2) 0.294863(8) -0.552836(10)
Cu4B Cu 0.44506(2) -0.200897(8) 0.026912(10)
Cu4C Cu 0.55494(2) 0.299103(8) -0.526912(10)
Cu5C Cu 0.547886(19) 0.043329(7) 0.262221(10)
N5C N 0.55492(13) 0.51144(5) -0.24593(6)
O1B O 0.40715(13) 0.16934(5) -0.09121(6)
O3A O 1.15159(12) 0.14355(5) 0.25080(7)
O4C O 0.41746(17) 0.16614(6) -0.01577(7)
O5B O 0.53412(14) 0.16259(5) -0.06660(6)
O7A O 1.21788(11) 0.14733(5) 0.31567(7)
O8C O 0.54640(15) 0.16600(6) 0.01092(7)
N13C N 0.66275(14) 0.44928(5) -0.21213(8)
O10_2 O 1.23122(10) 0.22291(4) 0.31526(6)
O14_2 O 1.18595(11) 0.21714(4) 0.25018(6)
loop_
_geom_bond_atom_site_label_1
_geom_bond_atom_site_label_2
_geom_bond_site_symmetry_1
_geom_bond_site_symmetry_2
Cu1 Cu2 1_555 1_555
C1 H1 1_555 1_555
H2 C1 1_555 1_555
C2 H3 1_555 1_555
H4 C2 1_555 1_555
C3 H5 1_555 1_555
H6 C3 1_555 1_555
C4 H7 1_555 1_555
H8 C4 1_555 1_555
Cu2 O6 1_555 1_555
Cu3 Cu4 1_555 1_555
Cu4 O11 1_555 1_555
Cu5 N8 1_555 1_555
Cu6 N6 1_555 1_555
N1 C1 1_555 1_555
N2 C2 1_555 1_555
N3 C3 1_555 1_555
N4 C4 1_555 1_555
N5 N1 1_555 1_555
N6 N2 1_555 1_555
N7 Cu6 1_555 1_555
N8 N4 1_555 1_555
C5 N5 1_555 1_555
C6 N6 1_555 1_555
C7 N7 1_555 1_555
C8 N8 1_555 1_555
C9 C5 1_555 1_555
C10 C6 1_555 1_555
C11 C7 1_555 1_555
C12 C8 1_555 1_555
C13 N1 1_555 1_555
C14 N2 1_555 1_555
C15 N3 1_555 1_555
C16 N4 1_555 1_555
C17 C5 1_555 1_555
H9 C17 1_555 1_555
H10 C17 1_555 1_555
H11 C17 1_555 1_555
C18 C6 1_555 1_555
H12 C18 1_555 1_555
H13 C18 1_555 1_555
H14 C18 1_555 1_555
C19 C7 1_555 1_555
H15 C19 1_555 1_555
H16 C19 1_555 1_555
H17 C19 1_555 1_555
C20 C8 1_555 1_555
H18 C20 1_555 1_555
H19 C20 1_555 1_555
H20 C20 1_555 1_555
C21 C13 1_555 1_555
H21 C21 1_555 1_555
H22 C21 1_555 1_555
H23 C21 1_555 1_555
C22 C14 1_555 1_555
H24 C22 1_555 1_555
H25 C22 1_555 1_555
H26 C22 1_555 1_555
C23 C15 1_555 1_555
H27 C23 1_555 1_555
H28 C23 1_555 1_555
H29 C23 1_555 1_555
C24 C16 1_555 1_555
H30 C24 1_555 1_555
H31 C24 1_555 1_555
H32 C24 1_555 1_555
C25 C9 1_555 1_555
C26 C10 1_555 1_555
C27 C11 1_555 1_555
C28 C12 1_555 1_555
C29 C25 1_555 1_555
H33 C29 1_555 1_555
C30 C26 1_555 1_555
H34 C30 1_555 1_555
C31 C27 1_555 1_555
H35 C31 1_555 1_555
C32 C28 1_555 1_555
H36 C32 1_555 1_555
C33 C29 1_555 1_555
H37 C33 1_555 1_555
C34 C30 1_555 1_555
H38 C34 1_555 1_555
C35 C31 1_555 1_555
H39 C35 1_555 1_555
C36 C32 1_555 1_555
H40 C36 1_555 1_555
C37 C33 1_555 1_555
C38 C34 1_555 1_555
C39 C35 1_555 1_555
C40 C36 1_555 1_555
C41 C37 1_555 1_555
H41 C41 1_555 1_555
C42 C38 1_555 1_555
H42 C42 1_555 1_555
C43 C39 1_555 1_555
H43 C43 1_555 1_555
C44 C40 1_555 1_555
H44 C44 1_555 1_555
C45 C25 1_555 1_555
H45 C45 1_555 1_555
C46 C26 1_555 1_555
H46 C46 1_555 1_555
C47 C27 1_555 1_555
H47 C47 1_555 1_555
C48 C28 1_555 1_555
H48 C48 1_555 1_555
C49 C37 1_555 1_555
C50 C38 1_555 1_555
C51 C39 1_555 1_555
C52 C40 1_555 1_555
O1 C49 1_555 1_555
O2 Cu1 1_555 1_555
O3 C51 1_555 1_555
O4 C52 1_555 1_555
O5 C49 1_555 1_555
O6 C50 1_555 1_555
O7 C51 1_555 1_555
O8 C52 1_555 1_555
N9 C1 1_555 1_555
N10 C2 1_555 1_555
N11 C3 1_555 1_555
N12 C4 1_555 1_555
N13 N9 1_555 1_555
N14 Cu6 1_555 1_555
N15 Cu6 1_555 1_555
N16 Cu5 1_555 1_555
C53 N13 1_555 1_555
C54 N14 1_555 1_555
C55 N15 1_555 1_555
C56 N16 1_555 1_555
C57 C53 1_555 1_555
C58 C54 1_555 1_555
C59 C55 1_555 1_555
C60 C56 1_555 1_555
C61 N9 1_555 1_555
C62 N10 1_555 1_555
C63 N11 1_555 1_555
C64 N12 1_555 1_555
C65 C53 1_555 1_555
H49 C65 1_555 1_555
H50 C65 1_555 1_555
H51 C65 1_555 1_555
C66 C54 1_555 1_555
H52 C66 1_555 1_555
H53 C66 1_555 1_555
H54 C66 1_555 1_555
C67 C55 1_555 1_555
H55 C67 1_555 1_555
H56 C67 1_555 1_555
H57 C67 1_555 1_555
C68 C56 1_555 1_555
H58 C68 1_555 1_555
H59 C68 1_555 1_555
H60 C68 1_555 1_555
C69 C61 1_555 1_555
H61 C69 1_555 1_555
H62 C69 1_555 1_555
H63 C69 1_555 1_555
C70 C62 1_555 1_555
H64 C70 1_555 1_555
H65 C70 1_555 1_555
H66 C70 1_555 1_555
C71 C63 1_555 1_555
H67 C71 1_555 1_555
H68 C71 1_555 1_555
H69 C71 1_555 1_555
C72 C64 1_555 1_555
H70 C72 1_555 1_555
H71 C72 1_555 1_555
H72 C72 1_555 1_555
C73 C57 1_555 1_555
C74 C58 1_555 1_555
C75 C59 1_555 1_555
C76 C60 1_555 1_555
C77 C73 1_555 1_555
H73 C77 1_555 1_555
C78 C74 1_555 1_555
H74 C78 1_555 1_555
C79 C75 1_555 1_555
H75 C79 1_555 1_555
C80 C76 1_555 1_555
H76 C80 1_555 1_555
C81 C77 1_555 1_555
H77 C81 1_555 1_555
C82 C78 1_555 1_555
H78 C82 1_555 1_555
C83 C79 1_555 1_555
H79 C83 1_555 1_555
C84 C80 1_555 1_555
H80 C84 1_555 1_555
C85 C81 1_555 1_555
C86 C82 1_555 1_555
C87 C83 1_555 1_555
C88 C84 1_555 1_555
C89 C85 1_555 1_555
H81 C89 1_555 1_555
C90 C86 1_555 1_555
H82 C90 1_555 1_555
C91 C87 1_555 1_555
H83 C91 1_555 1_555
C92 C88 1_555 1_555
H84 C92 1_555 1_555
C93 C73 1_555 1_555
H85 C93 1_555 1_555
C94 C74 1_555 1_555
H86 C94 1_555 1_555
C95 C75 1_555 1_555
H87 C95 1_555 1_555
C96 C76 1_555 1_555
H88 C96 1_555 1_555
C97 C85 1_555 1_555
C98 C86 1_555 1_555
C99 C87 1_555 1_555
C100 C88 1_555 1_555
O9 Cu2 1_555 1_555
O10 C98 1_555 1_555
O11 C99 1_555 1_555
O12 Cu3 1_555 1_555
O13 Cu1 1_555 1_555
O14 C98 1_555 1_555
O15 Cu3 1_555 1_555
O16 Cu4 1_555 1_555
O17 Cu3 1_555 1_555
H89 O17 1_555 1_555
C101 O17 1_555 1_555
H90 C101 1_555 1_555
H91 C101 1_555 1_555
C102 C101 1_555 1_555
H92 C102 1_555 1_555
H93 C102 1_555 1_555
H94 C102 1_555 1_555
O18 Cu4 1_555 1_555
H95 O18 1_555 1_555
C103 O18 1_555 1_555
H96 C103 1_555 1_555
H97 C103 1_555 1_555
C104 C103 1_555 1_555
H98 C104 1_555 1_555
H99 C104 1_555 1_555
H100 C104 1_555 1_555
O19 Cu1 1_555 1_555
O20 Cu2 1_555 1_555
Cu1_2 O14 1_555 1_555
Cu1A O3 1_555 1_555
Cu2_2 O10 1_555 1_555
Cu2A O7 1_555 1_555
Cu3B O1 1_555 1_555
Cu3C O4 1_555 1_555
Cu4B O5 1_555 1_555
Cu4C O8 1_555 1_555
Cu5C N5 1_555 1_555
N5C Cu5 1_555 1_555
O1B Cu3 1_555 1_555
O3A Cu1 1_555 1_555
O4C Cu3 1_555 1_555
O5B Cu4 1_555 1_555
O7A Cu2 1_555 1_555
O8C Cu4 1_555 1_555
N13C Cu5 1_555 1_555
O10_2 Cu2 1_555 1_555
O14_2 Cu1 1_555 1_555
N3 N7 1_555 1_555
C9 C13 1_555 1_555
C10 C14 1_555 1_555
C11 C15 1_555 1_555
C12 C16 1_555 1_555
C41 C45 1_555 1_555
C42 C46 1_555 1_555
C43 C47 1_555 1_555
C44 C48 1_555 1_555
C50 O2 1_555 1_555
N10 N14 1_555 1_555
N11 N15 1_555 1_555
N12 N16 1_555 1_555
N13 Cu5C 1_555 1_555
C57 C61 1_555 1_555
C58 C62 1_555 1_555
C59 C63 1_555 1_555
C60 C64 1_555 1_555
C89 C93 1_555 1_555
C90 C94 1_555 1_555
C91 C95 1_555 1_555
C92 C96 1_555 1_555
C97 O9 1_555 1_555
C97 O13 1_555 1_555
C99 O15 1_555 1_555
C100 O12 1_555 1_555
C100 O16 1_555 1_555
Cu1_2 Cu2_2 1_555 1_555
Cu1A Cu2A 1_555 1_555
Cu3B Cu4B 1_555 1_555
Cu3C Cu4C 1_555 1_555

#END
