
#######################################################################
#
#                 Cambridge Crystallographic Data Centre
#                                CCDC 
#
#######################################################################
#
# If this CIF has been generated from an entry in the Cambridge 
# Structural Database, then it will include bibliographic, chemical, 
# crystal, experimental, refinement or atomic coordinate data resulting 
# from the CCDC's data processing and validation procedures.
#
#######################################################################

data_MUDTEL
_chemical_name_common            PMOF-2(Cu)
_chemical_formula_moiety         
'(C36 H18 Cu3 O15)n,9.25n(C3 H7 N1 O1),7n(H2 O1)'
_chemical_name_systematic        
'catena-((\m~12~-1,3,5-tris((3,5-Dicarboxylatophenyl)ethynyl)benzene)-triaqua-tri-copper(ii) N,N-dimethylformamide solvate heptahydrate)'
_symmetry_cell_setting           cubic
_symmetry_space_group_name_H-M   'F m -3 m'
_symmetry_Int_Tables_number      225
_space_group_name_Hall           '-F 4 2 3'
loop_
_symmetry_equiv_pos_site_id
_symmetry_equiv_pos_as_xyz
1 x,y,z
2 -x,-y,z
3 -x,y,-z
4 x,-y,-z
5 z,x,y
6 z,-x,-y
7 -z,-x,y
8 -z,x,-y
9 y,z,x
10 -y,z,-x
11 y,-z,-x
12 -y,-z,x
13 y,x,-z
14 -y,-x,-z
15 y,-x,z
16 -y,x,z
17 x,z,-y
18 -x,z,y
19 -x,-z,-y
20 x,-z,y
21 z,y,-x
22 z,-y,x
23 -z,y,x
24 -z,-y,-x
25 x,1/2+y,1/2+z
26 -x,1/2-y,1/2+z
27 -x,1/2+y,1/2-z
28 x,1/2-y,1/2-z
29 z,1/2+x,1/2+y
30 z,1/2-x,1/2-y
31 -z,1/2-x,1/2+y
32 -z,1/2+x,1/2-y
33 y,1/2+z,1/2+x
34 -y,1/2+z,1/2-x
35 y,1/2-z,1/2-x
36 -y,1/2-z,1/2+x
37 y,1/2+x,1/2-z
38 -y,1/2-x,1/2-z
39 y,1/2-x,1/2+z
40 -y,1/2+x,1/2+z
41 x,1/2+z,1/2-y
42 -x,1/2+z,1/2+y
43 -x,1/2-z,1/2-y
44 x,1/2-z,1/2+y
45 z,1/2+y,1/2-x
46 z,1/2-y,1/2+x
47 -z,1/2+y,1/2+x
48 -z,1/2-y,1/2-x
49 1/2+x,y,1/2+z
50 1/2-x,-y,1/2+z
51 1/2-x,y,1/2-z
52 1/2+x,-y,1/2-z
53 1/2+z,x,1/2+y
54 1/2+z,-x,1/2-y
55 1/2-z,-x,1/2+y
56 1/2-z,x,1/2-y
57 1/2+y,z,1/2+x
58 1/2-y,z,1/2-x
59 1/2+y,-z,1/2-x
60 1/2-y,-z,1/2+x
61 1/2+y,x,1/2-z
62 1/2-y,-x,1/2-z
63 1/2+y,-x,1/2+z
64 1/2-y,x,1/2+z
65 1/2+x,z,1/2-y
66 1/2-x,z,1/2+y
67 1/2-x,-z,1/2-y
68 1/2+x,-z,1/2+y
69 1/2+z,y,1/2-x
70 1/2+z,-y,1/2+x
71 1/2-z,y,1/2+x
72 1/2-z,-y,1/2-x
73 1/2+x,1/2+y,z
74 1/2-x,1/2-y,z
75 1/2-x,1/2+y,-z
76 1/2+x,1/2-y,-z
77 1/2+z,1/2+x,y
78 1/2+z,1/2-x,-y
79 1/2-z,1/2-x,y
80 1/2-z,1/2+x,-y
81 1/2+y,1/2+z,x
82 1/2-y,1/2+z,-x
83 1/2+y,1/2-z,-x
84 1/2-y,1/2-z,x
85 1/2+y,1/2+x,-z
86 1/2-y,1/2-x,-z
87 1/2+y,1/2-x,z
88 1/2-y,1/2+x,z
89 1/2+x,1/2+z,-y
90 1/2-x,1/2+z,y
91 1/2-x,1/2-z,-y
92 1/2+x,1/2-z,y
93 1/2+z,1/2+y,-x
94 1/2+z,1/2-y,x
95 1/2-z,1/2+y,x
96 1/2-z,1/2-y,-x
97 -x,-y,-z
98 x,y,-z
99 x,-y,z
100 -x,y,z
101 -z,-x,-y
102 -z,x,y
103 z,x,-y
104 z,-x,y
105 -y,-z,-x
106 y,-z,x
107 -y,z,x
108 y,z,-x
109 -y,-x,z
110 y,x,z
111 -y,x,-z
112 y,-x,-z
113 -x,-z,y
114 x,-z,-y
115 x,z,y
116 -x,z,-y
117 -z,-y,x
118 -z,y,-x
119 z,-y,-x
120 z,y,x
121 -x,1/2-y,1/2-z
122 x,1/2+y,1/2-z
123 x,1/2-y,1/2+z
124 -x,1/2+y,1/2+z
125 -z,1/2-x,1/2-y
126 -z,1/2+x,1/2+y
127 z,1/2+x,1/2-y
128 z,1/2-x,1/2+y
129 -y,1/2-z,1/2-x
130 y,1/2-z,1/2+x
131 -y,1/2+z,1/2+x
132 y,1/2+z,1/2-x
133 -y,1/2-x,1/2+z
134 y,1/2+x,1/2+z
135 -y,1/2+x,1/2-z
136 y,1/2-x,1/2-z
137 -x,1/2-z,1/2+y
138 x,1/2-z,1/2-y
139 x,1/2+z,1/2+y
140 -x,1/2+z,1/2-y
141 -z,1/2-y,1/2+x
142 -z,1/2+y,1/2-x
143 z,1/2-y,1/2-x
144 z,1/2+y,1/2+x
145 1/2-x,-y,1/2-z
146 1/2+x,y,1/2-z
147 1/2+x,-y,1/2+z
148 1/2-x,y,1/2+z
149 1/2-z,-x,1/2-y
150 1/2-z,x,1/2+y
151 1/2+z,x,1/2-y
152 1/2+z,-x,1/2+y
153 1/2-y,-z,1/2-x
154 1/2+y,-z,1/2+x
155 1/2-y,z,1/2+x
156 1/2+y,z,1/2-x
157 1/2-y,-x,1/2+z
158 1/2+y,x,1/2+z
159 1/2-y,x,1/2-z
160 1/2+y,-x,1/2-z
161 1/2-x,-z,1/2+y
162 1/2+x,-z,1/2-y
163 1/2+x,z,1/2+y
164 1/2-x,z,1/2-y
165 1/2-z,-y,1/2+x
166 1/2-z,y,1/2-x
167 1/2+z,-y,1/2-x
168 1/2+z,y,1/2+x
169 1/2-x,1/2-y,-z
170 1/2+x,1/2+y,-z
171 1/2+x,1/2-y,z
172 1/2-x,1/2+y,z
173 1/2-z,1/2-x,-y
174 1/2-z,1/2+x,y
175 1/2+z,1/2+x,-y
176 1/2+z,1/2-x,y
177 1/2-y,1/2-z,-x
178 1/2+y,1/2-z,x
179 1/2-y,1/2+z,x
180 1/2+y,1/2+z,-x
181 1/2-y,1/2-x,z
182 1/2+y,1/2+x,z
183 1/2-y,1/2+x,-z
184 1/2+y,1/2-x,-z
185 1/2-x,1/2-z,y
186 1/2+x,1/2-z,-y
187 1/2+x,1/2+z,y
188 1/2-x,1/2+z,-y
189 1/2-z,1/2-y,x
190 1/2-z,1/2+y,-x
191 1/2+z,1/2-y,-x
192 1/2+z,1/2+y,x
_cell_length_a                   42.833(3)
_cell_length_b                   42.833(3)
_cell_length_c                   42.833(3)
_cell_angle_alpha                90
_cell_angle_beta                 90
_cell_angle_gamma                90
_cell_volume                     78584.2
_exptl_crystal_colour            'pale blue'
_exptl_crystal_description       hexagonal
_cell_formula_units_Z            32
loop_
_atom_site_label
_atom_site_type_symbol
_atom_site_fract_x
_atom_site_fract_y
_atom_site_fract_z
Cu1 Cu 0.324805(17) 0.3248 1.000000(17)
Cu2 Cu 0.368755(17) 0.3688 1.000000(17)
O1 O 0.30570(8) 0.35089(8) 1.03209(7)
O2 O 0.34314(8) 0.38800(8) 1.03200(8)
O3 O 0.2893 0.28930(14) 1.00000(14)
O4 O 0.4040 0.40402(14) 1.00000(14)
H2 H 0.4224 0.4010(6) 1.000(3)
C1 C 0.31787(12) 0.37592(10) 1.04219(11)
C2 C 0.30176(12) 0.39243(11) 1.06773(12)
C3 C 0.27330(13) 0.38174(13) 1.07883(13)
H3 H 0.2637 0.3642 1.0693
C4 C 0.25870(17) 0.3963(2) 1.10366(17)
C5 C 0.31561(11) 0.41789(17) 1.08211(11)
H4 H 0.3349 0.4256 1.0744
C6 C 0.2279(2) 0.3855(3) 1.1145(2)
C7 C 0.2054(2) 0.3751(3) 1.1249(2)
C8 C 0.1776(2) 0.3621(3) 1.1379(2)
C9 C 0.1637(3) 0.3757(2) 1.1637(2)
H5 H 0.1720 0.3946 1.1720
Cu1NA Cu 0.324805(17) 0.500000(17) 1.1752
Cu1EC Cu 0.1752 0.500000(17) 1.324805(17)
Cu1V Cu 0.000000(17) 0.3248 1.324805(17)
Cu1CA Cu 0.000000(17) 0.175195(17) 1.1752
Cu1GC Cu 0.1752 0.175195(17) 1.000000(17)
Cu2NA Cu 0.368755(17) 0.500000(17) 1.1312
Cu2EC Cu 0.1312 0.500000(17) 1.368755(17)
Cu2V Cu 0.000000(17) 0.3688 1.368755(17)
Cu2CA Cu 0.000000(17) 0.131245(17) 1.1312
Cu2GC Cu 0.1312 0.131245(17) 1.000000(17)
O1L O 0.35089(8) 0.30570(8) 0.96791(7)
O1SC O 0.30570(8) 0.35089(8) 0.96791(7)
O1ED O 0.35089(8) 0.30570(8) 1.03209(7)
O1GE O 0.30570(8) 0.46791(7) 1.14911(8)
O1EC O 0.14911(8) 0.46791(7) 1.30570(8)
O1OD O 0.03209(7) 0.35089(8) 1.30570(8)
O1CA O 0.03209(7) 0.19430(8) 1.14911(8)
O1XF O 0.14911(8) 0.19430(8) 1.03209(7)
O2L O 0.38800(8) 0.34314(8) 0.96800(8)
O2SC O 0.34314(8) 0.38800(8) 0.96800(8)
O2ED O 0.38800(8) 0.34314(8) 1.03200(8)
O2GE O 0.34314(8) 0.46800(8) 1.11200(8)
O2EC O 0.11200(8) 0.46800(8) 1.34314(8)
O2OD O 0.03200(8) 0.38800(8) 1.34314(8)
O2CA O 0.03200(8) 0.15686(8) 1.11200(8)
O2XF O 0.11200(8) 0.15686(8) 1.03200(8)
O2HA O 0.38800(8) 0.46800(8) 1.15686(8)
O2NA O 0.34314(8) 0.53200(8) 1.11200(8)
O2AE O 0.38800(8) 0.53200(8) 1.15686(8)
O4HA O 0.40402(14) 0.50000(14) 1.0960
H2L H 0.4010(6) 0.4224 1.000(3)
H2HA H 0.4010(6) 0.500(3) 1.0776
H2NA H 0.4224 0.500(3) 1.0990(6)
C1GE C 0.31787(12) 0.45781(11) 1.12408(10)
C1EC C 0.12408(10) 0.45781(11) 1.31787(12)
C1OD C 0.04219(11) 0.37592(10) 1.31787(12)
C1CA C 0.04219(11) 0.18213(12) 1.12408(10)
C1XF C 0.12408(10) 0.18213(12) 1.04219(11)
C2GE C 0.30176(12) 0.43227(12) 1.10757(11)
C2EC C 0.10757(11) 0.43227(12) 1.30176(12)
C2OD C 0.06773(12) 0.39243(11) 1.30176(12)
C2CA C 0.06773(12) 0.19824(12) 1.10757(11)
C2XF C 0.10757(11) 0.19824(12) 1.06773(12)
C3GE C 0.27330(13) 0.42117(13) 1.11826(13)
C3EC C 0.11826(13) 0.42117(13) 1.27330(13)
C3OD C 0.07883(13) 0.38174(13) 1.27330(13)
C3CA C 0.07883(13) 0.22670(13) 1.11826(13)
C3XF C 0.11826(13) 0.22670(13) 1.07883(13)
H3GE H 0.2637 0.4307 1.1358
H3EC H 0.1358 0.4307 1.2637
H3OD H 0.0693 0.3642 1.2637
H3CA H 0.0693 0.2363 1.1358
H3XF H 0.1358 0.2363 1.0693
C4EC C 0.1037(2) 0.39634(17) 1.25870(17)
C4CA C 0.10366(17) 0.24130(17) 1.1037(2)
C5EC C 0.08211(17) 0.41789(11) 1.31561(11)
C5CA C 0.08211(11) 0.18439(11) 1.08211(17)
H4EC H 0.0744 0.4256 1.3349
H4CA H 0.0744 0.1651 1.0744
C6EC C 0.1145(3) 0.3855(2) 1.2279(2)
C6CA C 0.1145(2) 0.2721(2) 1.1145(3)
C7EC C 0.1249(3) 0.3751(2) 1.2054(2)
C7CA C 0.1249(2) 0.2946(2) 1.1249(3)
C8EC C 0.1379(3) 0.3621(2) 1.1776(2)
C8CA C 0.1379(2) 0.3224(2) 1.1379(3)
C9CA C 0.1637(2) 0.3363(3) 1.1243(2)
C9EC C 0.1243(2) 0.3363(2) 1.1637(3)
H5CA H 0.1720 0.3280 1.1054
H5EC H 0.1054 0.3280 1.1720
H1? H 0.276(2) 0.296(3) 0.989(3)
loop_
_geom_bond_atom_site_label_1
_geom_bond_atom_site_label_2
_geom_bond_site_symmetry_1
_geom_bond_site_symmetry_2
Cu1 O1 1_555 1_555
Cu2 O2 1_555 1_555
O1 C1 1_555 1_555
O2 C1 1_555 1_555
O3 Cu1 1_555 1_555
O4 Cu2 1_555 1_555
H2 O4 1_555 1_555
C1 C2 1_555 1_555
C2 C3 1_555 1_555
C3 H3 1_555 1_555
C4 C3 1_555 1_555
C5 C2 1_555 1_555
H4 C5 1_555 1_555
C6 C4 1_555 1_555
C7 C6 1_555 1_555
C8 C7 1_555 1_555
C9 C8 1_555 1_555
H5 C9 1_555 1_555
Cu1NA O1GE 1_555 1_555
Cu1EC O1EC 1_555 1_555
Cu1V O1OD 1_555 1_555
Cu1CA O1CA 1_555 1_555
Cu1GC O1XF 1_555 1_555
Cu2NA O2GE 1_555 1_555
Cu2EC O2EC 1_555 1_555
Cu2V O2OD 1_555 1_555
Cu2CA O2CA 1_555 1_555
Cu2GC O2XF 1_555 1_555
O1L Cu1 1_555 1_555
O1SC Cu1 1_555 1_555
O1ED Cu1 1_555 1_555
O1GE C1GE 1_555 1_555
O1EC C1EC 1_555 1_555
O1OD C1OD 1_555 1_555
O1CA C1CA 1_555 1_555
O1XF C1XF 1_555 1_555
O2L Cu2 1_555 1_555
O2SC Cu2 1_555 1_555
O2ED Cu2 1_555 1_555
O2GE C1GE 1_555 1_555
O2EC C1EC 1_555 1_555
O2OD C1OD 1_555 1_555
O2CA C1CA 1_555 1_555
O2XF C1XF 1_555 1_555
O2HA Cu2NA 1_555 1_555
O2NA Cu2NA 1_555 1_555
O2AE Cu2NA 1_555 1_555
O4HA Cu2NA 1_555 1_555
H2L O4 1_555 1_555
H2HA O4HA 1_555 1_555
H2NA O4HA 1_555 1_555
C1GE C2GE 1_555 1_555
C1EC C2EC 1_555 1_555
C1OD C2OD 1_555 1_555
C1CA C2CA 1_555 1_555
C1XF C2XF 1_555 1_555
C2GE C5 1_555 1_555
C2EC C3EC 1_555 1_555
C2OD C3OD 1_555 1_555
C2CA C3CA 1_555 1_555
C2XF C3XF 1_555 1_555
C3GE C4 1_555 1_555
C3EC H3EC 1_555 1_555
C3OD H3OD 1_555 1_555
C3CA H3CA 1_555 1_555
C3XF H3XF 1_555 1_555
H3GE C3GE 1_555 1_555
C4EC C3EC 1_555 1_555
C4CA C3CA 1_555 1_555
C5EC C2EC 1_555 1_555
C5CA C2CA 1_555 1_555
H4EC C5EC 1_555 1_555
H4CA C5CA 1_555 1_555
C6EC C4EC 1_555 1_555
C6CA C4CA 1_555 1_555
C7EC C6EC 1_555 1_555
C7CA C6CA 1_555 1_555
C8EC C9 1_555 1_555
C8CA C7CA 1_555 1_555
C9CA C8 1_555 1_555
C9EC C8EC 1_555 1_555
H5CA C9CA 1_555 1_555
H5EC C9EC 1_555 1_555
C2GE C3GE 1_555 1_555
C2OD C5EC 1_555 1_555
C2XF C5CA 1_555 1_555
C3OD C4EC 1_555 1_555
C3XF C4CA 1_555 1_555
C7EC C8EC 1_555 1_555
C8CA C9CA 1_555 1_555
C8CA C9EC 1_555 1_555

#END
