
#######################################################################
#
#                 Cambridge Crystallographic Data Centre
#                                CCDC 
#
#######################################################################
#
# If this CIF has been generated from an entry in the Cambridge 
# Structural Database, then it will include bibliographic, chemical, 
# crystal, experimental, refinement or atomic coordinate data resulting 
# from the CCDC's data processing and validation procedures.
#
#######################################################################

data_OFERUN03
_chemical_name_common            ZIF-8
_chemical_formula_moiety         '(C16 H20 N8 Zn2)n'
_chemical_name_systematic        
catena-(tetrakis(\m~2~-2-Methylimidazolato)-di-zinc)
_symmetry_cell_setting           cubic
_symmetry_space_group_name_H-M   'I -4 3 m'
_symmetry_Int_Tables_number      217
_space_group_name_Hall           'I -4 2 3'
loop_
_symmetry_equiv_pos_site_id
_symmetry_equiv_pos_as_xyz
1 x,y,z
2 -x,-y,z
3 -x,-z,y
4 -x,z,-y
5 -x,y,-z
6 -y,-x,z
7 -y,-z,x
8 -y,z,-x
9 -y,x,-z
10 -z,-x,y
11 -z,-y,x
12 -z,y,-x
13 -z,x,-y
14 z,-x,-y
15 z,-y,-x
16 z,y,x
17 z,x,y
18 y,-x,-z
19 y,-z,-x
20 y,z,x
21 y,x,z
22 x,-y,-z
23 x,-z,-y
24 x,z,y
25 1/2-x,1/2-y,1/2+z
26 1/2-x,1/2-z,1/2+y
27 1/2-x,1/2+z,1/2-y
28 1/2-x,1/2+y,1/2-z
29 1/2-y,1/2-x,1/2+z
30 1/2-y,1/2-z,1/2+x
31 1/2-y,1/2+z,1/2-x
32 1/2-y,1/2+x,1/2-z
33 1/2-z,1/2-x,1/2+y
34 1/2-z,1/2-y,1/2+x
35 1/2-z,1/2+y,1/2-x
36 1/2-z,1/2+x,1/2-y
37 1/2+z,1/2-x,1/2-y
38 1/2+z,1/2-y,1/2-x
39 1/2+z,1/2+y,1/2+x
40 1/2+z,1/2+x,1/2+y
41 1/2+y,1/2-x,1/2-z
42 1/2+y,1/2-z,1/2-x
43 1/2+y,1/2+z,1/2+x
44 1/2+y,1/2+x,1/2+z
45 1/2+x,1/2-y,1/2-z
46 1/2+x,1/2-z,1/2-y
47 1/2+x,1/2+z,1/2+y
48 1/2+x,1/2+y,1/2+z
_cell_length_a                   16.993220(18)
_cell_length_b                   16.993220(18)
_cell_length_c                   16.993220(18)
_cell_angle_alpha                90
_cell_angle_beta                 90
_cell_angle_gamma                90
_cell_volume                     4907.12
_cell_formula_units_Z            8
loop_
_atom_site_label
_atom_site_type_symbol
_atom_site_fract_x
_atom_site_fract_y
_atom_site_fract_z
_atom_site_U_iso_or_equiv
_atom_site_thermal_displace_type
Zn1 Zn 0.50000 0.00000 0.75000 0.0219 Uiso
C1 C 0.62289(15) -0.00113(46) 0.62289(15) 0.0239 Uiso
C2 C 0.62990(16) 0.10304(15) 0.68675(14) 0.0260 Uiso
C3 C 0.59583(14) -0.08456(27) 0.59583(14) 0.0270 Uiso
N1 N 0.58999(13) 0.03262(12) 0.68309(13) 0.0198 Uiso
H1 H 0.62259(83) 0.14346(56) 0.72281(54) 0.0363 Uiso
H2 H 0.57470(50) -0.11939(56) 0.63824(53) 0.0363 Uiso
H3 H 0.55846(62) -0.08251(82) 0.55846(62) 0.0363 Uiso
Zn1N Zn 0.75000 0.00000 0.50000 0.0219 Uiso
Zn1J Zn 0.25000 0.00000 0.50000 0.0219 Uiso
Zn1C Zn 0.50000 -0.25000 1.00000 0.0219 Uiso
Zn1B Zn 0.50000 0.25000 1.00000 0.0219 Uiso
C1A C 0.37711(15) 0.00113(46) 0.62289(15) 0.0239 Uiso
C1NA C 0.49887(46) -0.12289(15) 0.87711(15) 0.0239 Uiso
C1DA C 0.50113(46) 0.12289(15) 0.87711(15) 0.0239 Uiso
C2O C 0.68675(14) 0.10304(15) 0.62990(16) 0.0260 Uiso
C2A C 0.37010(16) -0.10304(15) 0.68675(14) 0.0260 Uiso
C2J C 0.31325(14) -0.10304(15) 0.62990(16) 0.0260 Uiso
C2NA C 0.60304(15) -0.12990(16) 0.81325(14) 0.0260 Uiso
C2OA C 0.60304(15) -0.18675(14) 0.87010(16) 0.0260 Uiso
C2EA C 0.39696(15) 0.12990(16) 0.81325(14) 0.0260 Uiso
C2DA C 0.39696(15) 0.18675(14) 0.87010(16) 0.0260 Uiso
C3A C 0.40417(14) 0.08456(27) 0.59583(14) 0.0270 Uiso
C3NA C 0.41544(27) -0.09583(14) 0.90417(14) 0.0270 Uiso
C3DA C 0.58456(27) 0.09583(14) 0.90417(14) 0.0270 Uiso
N1O N 0.68309(13) 0.03262(12) 0.58999(13) 0.0198 Uiso
N1A N 0.41001(13) -0.03262(12) 0.68309(13) 0.0198 Uiso
N1J N 0.31691(13) -0.03262(12) 0.58999(13) 0.0198 Uiso
N1NA N 0.53262(12) -0.08999(13) 0.81691(13) 0.0198 Uiso
N1OA N 0.53262(12) -0.18309(13) 0.91001(13) 0.0198 Uiso
N1EA N 0.46738(12) 0.08999(13) 0.81691(13) 0.0198 Uiso
N1DA N 0.46738(12) 0.18309(13) 0.91001(13) 0.0198 Uiso
N1K N 0.31691(13) 0.03262(12) 0.41001(13) 0.0198 Uiso
N1MA N 0.18309(13) 0.08999(13) 0.53262(12) 0.0198 Uiso
N1JA N 0.18309(13) -0.08999(13) 0.46738(12) 0.0198 Uiso
H1O H 0.72281(54) 0.14346(56) 0.62259(83) 0.0363 Uiso
H1A H 0.37741(83) -0.14346(56) 0.72281(54) 0.0363 Uiso
H1J H 0.27719(54) -0.14346(56) 0.62259(83) 0.0363 Uiso
H1NA H 0.64346(56) -0.12259(83) 0.77719(54) 0.0363 Uiso
H1OA H 0.64346(56) -0.22281(54) 0.87741(83) 0.0363 Uiso
H1EA H 0.35654(56) 0.12259(83) 0.77719(54) 0.0363 Uiso
H1DA H 0.35654(56) 0.22281(54) 0.87741(83) 0.0363 Uiso
H2O H 0.63824(53) -0.11939(56) 0.57470(50) 0.0363 Uiso
H2A H 0.42530(50) 0.11939(56) 0.63824(53) 0.0363 Uiso
H2J H 0.36176(53) 0.11939(56) 0.57470(50) 0.0363 Uiso
H2NA H 0.38061(56) -0.07470(50) 0.86176(53) 0.0363 Uiso
H2OA H 0.38061(56) -0.13824(53) 0.92530(50) 0.0363 Uiso
H2EA H 0.61939(56) 0.07470(50) 0.86176(53) 0.0363 Uiso
H2DA H 0.61939(56) 0.13824(53) 0.92530(50) 0.0363 Uiso
H3A H 0.44154(62) 0.08251(82) 0.55846(62) 0.0363 Uiso
H3NA H 0.41749(82) -0.05846(62) 0.94154(62) 0.0363 Uiso
H3DA H 0.58251(82) 0.05846(62) 0.94154(62) 0.0363 Uiso
loop_
_geom_bond_atom_site_label_1
_geom_bond_atom_site_label_2
_geom_bond_site_symmetry_1
_geom_bond_site_symmetry_2
Zn1 N1 1_555 1_555
C1 C3 1_555 1_555
C2 N1 1_555 1_555
C3 H2 1_555 1_555
N1 C1 1_555 1_555
H1 C2 1_555 1_555
H3 C3 1_555 1_555
Zn1N N1O 1_555 1_555
Zn1J N1J 1_555 1_555
Zn1C N1OA 1_555 1_555
Zn1B N1DA 1_555 1_555
C1A C3A 1_555 1_555
C1NA C3NA 1_555 1_555
C1DA C3DA 1_555 1_555
C2O C2 1_555 1_555
C2A C2J 1_555 1_555
C2J N1J 1_555 1_555
C2NA C2OA 1_555 1_555
C2OA N1OA 1_555 1_555
C2EA C2DA 1_555 1_555
C2DA N1DA 1_555 1_555
C3A H2A 1_555 1_555
C3NA H2NA 1_555 1_555
C3DA H2EA 1_555 1_555
N1O C1 1_555 1_555
N1A Zn1 1_555 1_555
N1J C1A 1_555 1_555
N1NA Zn1 1_555 1_555
N1OA C1NA 1_555 1_555
N1EA Zn1 1_555 1_555
N1DA C1DA 1_555 1_555
N1K Zn1J 1_555 1_555
N1MA Zn1J 1_555 1_555
N1JA Zn1J 1_555 1_555
H1O C2O 1_555 1_555
H1A C2A 1_555 1_555
H1J C2J 1_555 1_555
H1NA C2NA 1_555 1_555
H1OA C2OA 1_555 1_555
H1EA C2EA 1_555 1_555
H1DA C2DA 1_555 1_555
H2O C3 1_555 1_555
H2J C3A 1_555 1_555
H2OA C3NA 1_555 1_555
H2DA C3DA 1_555 1_555
H3A C3A 1_555 1_555
H3NA C3NA 1_555 1_555
H3DA C3DA 1_555 1_555
C1A N1A 1_555 1_555
C1NA N1NA 1_555 1_555
C1DA N1EA 1_555 1_555
C2O N1O 1_555 1_555
C2A N1A 1_555 1_555
C2NA N1NA 1_555 1_555
C2EA N1EA 1_555 1_555

#END
