
#######################################################################
#
#                 Cambridge Crystallographic Data Centre
#                                CCDC 
#
#######################################################################
#
# If this CIF has been generated from an entry in the Cambridge 
# Structural Database, then it will include bibliographic, chemical, 
# crystal, experimental, refinement or atomic coordinate data resulting 
# from the CCDC's data processing and validation procedures.
#
#######################################################################

data_UNACES01
_chemical_name_common            eea-MOF-4
_chemical_formula_moiety         '(C14 H8 Cu1 N2 O5)n'
_chemical_name_systematic        
'catena-[(\m-5-[(pyridin-4-ylcarbonyl)amino]benzene-1,3-dicarboxylato)-copper unknown solvate]'
_symmetry_cell_setting           rhombohedral
_symmetry_space_group_name_H-M   'R -3 m'
_symmetry_Int_Tables_number      166
_space_group_name_Hall           '-R 3 2"'
loop_
_symmetry_equiv_pos_site_id
_symmetry_equiv_pos_as_xyz
1 x,y,z
2 -y,x-y,z
3 -x+y,-x,z
4 x-y,-y,-z
5 -x,-x+y,-z
6 y,x,-z
7 2/3+x,1/3+y,1/3+z
8 2/3-y,1/3+x-y,1/3+z
9 2/3-x+y,1/3-x,1/3+z
10 2/3+x-y,1/3-y,1/3-z
11 2/3-x,1/3-x+y,1/3-z
12 2/3+y,1/3+x,1/3-z
13 1/3+x,2/3+y,2/3+z
14 1/3-y,2/3+x-y,2/3+z
15 1/3-x+y,2/3-x,2/3+z
16 1/3+x-y,2/3-y,2/3-z
17 1/3-x,2/3-x+y,2/3-z
18 1/3+y,2/3+x,2/3-z
19 -x,-y,-z
20 y,-x+y,-z
21 x-y,x,-z
22 -x+y,y,z
23 x,x-y,z
24 -y,-x,z
25 1/3-x,2/3-y,2/3-z
26 1/3+y,2/3-x+y,2/3-z
27 1/3+x-y,2/3+x,2/3-z
28 1/3-x+y,2/3+y,2/3+z
29 1/3+x,2/3+x-y,2/3+z
30 1/3-y,2/3-x,2/3+z
31 2/3-x,1/3-y,1/3-z
32 2/3+y,1/3-x+y,1/3-z
33 2/3+x-y,1/3+x,1/3-z
34 2/3-x+y,1/3+y,1/3+z
35 2/3+x,1/3+x-y,1/3+z
36 2/3-y,1/3-x,1/3+z
_cell_length_a                   18.7846(11)
_cell_length_b                   18.7846(11)
_cell_length_c                   37.823(2)
_cell_angle_alpha                90
_cell_angle_beta                 90
_cell_angle_gamma                120
_cell_volume                     11558.2
_exptl_crystal_colour            blue
_cell_formula_units_Z            18
loop_
_atom_site_label
_atom_site_type_symbol
_atom_site_fract_x
_atom_site_fract_y
_atom_site_fract_z
Cu1 Cu 1.14379(2) 0.28758(4) 0.804068(17)
C1 C 1.1206(3) 0.4277(2) 0.80968(10)
N1 N 0.9096(3) 0.45479(15) 0.58358(11)
O1 O 1.1506(2) 0.44535(17) 0.84004(7)
O2 O 1.1107(3) 0.3677(2) 0.79143(7)
C2 C 1.0939(3) 0.4832(3) 0.79334(11)
C3 C 1.1123(4) 0.5561(2) 0.80986(15)
H1 H 1.1369 0.5685 0.8320
C4 C 1.0355(6) 0.5177(3) 0.7442(2)
C5 C 1.0549(4) 0.4637(3) 0.76076(12)
H2 H 1.0418 0.4142 0.7499
C6 C 0.9678(11) 0.5303(9) 0.6919(3)
C7 C 0.9152(4) 0.5181(4) 0.60093(16)
H3 H 0.9147 0.5547 0.5845
C8 C 0.9413(9) 0.4996(7) 0.6546(3)
C9 C 0.9212(8) 0.5485(9) 0.6320(3)
H4 H 0.9141 0.5923 0.6384
C10 C 0.9397(10) 0.5145(10) 0.6411(3)
H5 H 0.9508 0.5517 0.6594
N2 N 0.9990(7) 0.4995(3) 0.71059(18)
O3 O 0.9361(9) 0.5838(8) 0.7066(3)
C1V C 1.1206(3) 0.6929(4) 0.80968(10)
O1V O 1.1506(2) 0.70525(26) 0.84004(7)
O2V O 1.1107(3) 0.7430(4) 0.79143(7)
C2V C 1.0939(3) 0.6107(4) 0.79334(11)
C5V C 1.0549(4) 0.5912(5) 0.76076(12)
H2V H 1.0418 0.6276 0.7499
C6V C 0.9678(11) 0.4375(14) 0.6919(3)
C7V C 0.9152(4) 0.3971(6) 0.60093(16)
H3V H 0.9147 0.3600 0.5845
C8V C 0.9413(9) 0.4417(11) 0.6546(3)
C9V C 0.9212(8) 0.3727(12) 0.6320(3)
H4V H 0.9141 0.3218 0.6384
C10V C 0.9397(10) 0.4252(14) 0.6411(3)
H5V H 0.9508 0.3991 0.6594
O3V O 0.9361(9) 0.3523(12) 0.7066(3)
Cu1B Cu 1.14379(4) 0.85621(2) 0.804068(17)
Cu1K Cu 0.95425(4) 0.47712(2) 0.529265(17)
Cu1O Cu 1.18954(4) 0.37909(4) 0.862599(17)
Cu1P Cu 1.18954(2) 0.81046(4) 0.862599(17)
N1K N 1.12146(15) 0.2429(3) 0.74975(11)
O1O O 1.03858(26) 0.22132(17) 0.82663(7)
O1X O 1.1827(2) 0.22132(17) 0.82663(7)
O2U O 1.2570(4) 0.3677(2) 0.79143(7)
loop_
_geom_bond_atom_site_label_1
_geom_bond_atom_site_label_2
_geom_bond_site_symmetry_1
_geom_bond_site_symmetry_2
Cu1 O2 1_555 1_555
C1 O1 1_555 1_555
N1 C7 1_555 1_555
O1 Cu1O 1_555 1_555
O2 C1 1_555 1_555
C2 C1 1_555 1_555
C3 C2 1_555 1_555
H1 C3 1_555 1_555
C4 C5 1_555 1_555
C5 C2 1_555 1_555
H2 C5 1_555 1_555
C6 C8 1_555 1_555
C7 H3 1_555 1_555
C8 C9 1_555 1_555
C9 C7 1_555 1_555
H4 C9 1_555 1_555
C10 C7 1_555 1_555
H5 C8 1_555 1_555
N2 C4 1_555 1_555
O3 C6 1_555 1_555
C1V O1V 1_555 1_555
O1V Cu1P 1_555 1_555
O2V C1V 1_555 1_555
C2V C3 1_555 1_555
C5V C4 1_555 1_555
H2V C5V 1_555 1_555
C6V C6 1_555 1_555
C7V N1 1_555 1_555
H3V C7V 1_555 1_555
C8V C8 1_555 1_555
C9V C7V 1_555 1_555
H4V C9V 1_555 1_555
C10V C10 1_555 1_555
H5V C8V 1_555 1_555
O3V C6V 1_555 1_555
Cu1B O2V 1_555 1_555
Cu1K N1 1_555 1_555
Cu1O Cu1 1_555 1_555
Cu1P Cu1B 1_555 1_555
N1K Cu1 1_555 1_555
O1O Cu1 1_555 1_555
O1X Cu1 1_555 1_555
O2U Cu1 1_555 1_555
C6 N2 1_555 1_555
C9 C10 1_555 1_555
C9 H5 1_555 1_555
C10 H5 1_555 1_555
N2 C6V 1_555 1_555
C1V C2V 1_555 1_555
C2V C5V 1_555 1_555
C6V C8V 1_555 1_555
C7V C10V 1_555 1_555
C8V C9V 1_555 1_555
C9V C10V 1_555 1_555
C9V H5V 1_555 1_555
C10V H5V 1_555 1_555

#END
