
#######################################################################
#
#                 Cambridge Crystallographic Data Centre
#                                CCDC 
#
#######################################################################
#
# If this CIF has been generated from an entry in the Cambridge 
# Structural Database, then it will include bibliographic, chemical, 
# crystal, experimental, refinement or atomic coordinate data resulting 
# from the CCDC's data processing and validation procedures.
#
#######################################################################

data_HIHGUC
_chemical_formula_moiety         '(C33 H26 Cd1 O12)n,0.25n(H2 O1)'
_chemical_name_systematic        
'catena-[\m~4~- 4-(3-(4-Carboxylatophenoxy)-2,2-bis((4-carboxyphenoxy)methyl)propoxy)benzoato)-cadmium hydrate]'
_symmetry_cell_setting           monoclinic
_symmetry_space_group_name_H-M   'C 2/c'
_symmetry_Int_Tables_number      15
_space_group_name_Hall           '-C 2yc'
loop_
_symmetry_equiv_pos_site_id
_symmetry_equiv_pos_as_xyz
1 x,y,z
2 -x,y,1/2-z
3 1/2+x,1/2+y,z
4 1/2-x,1/2+y,1/2-z
5 -x,-y,-z
6 x,-y,1/2+z
7 1/2-x,1/2-y,-z
8 1/2+x,1/2-y,1/2+z
_cell_length_a                   26.390(2)
_cell_length_b                   19.0868(16)
_cell_length_c                   27.639(2)
_cell_angle_alpha                90
_cell_angle_beta                 95.4780(10)
_cell_angle_gamma                90
_cell_volume                     13858.2
_exptl_crystal_colour            colorless
_exptl_crystal_description       rod
_cell_formula_units_Z            8
loop_
_atom_site_label
_atom_site_type_symbol
_atom_site_fract_x
_atom_site_fract_y
_atom_site_fract_z
_atom_site_U_iso_or_equiv
_atom_site_thermal_displace_type
C1 C 0.4153(3) 0.7578(3) 1.1038(2) 0.1102 Uani
C2 C 0.4327(2) 0.7766(3) 1.0565(2) 0.1047 Uani
C3 C 0.4817(2) 0.7924(3) 1.0512(2) 0.1079 Uani
H1 H 0.5047 0.7926 1.0789 0.1300 Uiso
C4 C 0.4999(2) 0.8085(3) 1.0071(2) 0.1132 Uani
H2 H 0.5340 0.8190 1.0052 0.1360 Uiso
C5 C 0.4653(3) 0.8084(3) 0.9660(2) 0.1147 Uani
C6 C 0.4136(2) 0.7952(4) 0.9700(2) 0.1364 Uani
H3 H 0.3900 0.7974 0.9427 0.1630 Uiso
C7 C 0.3982(3) 0.7787(3) 1.0152(3) 0.1241 Uani
H4 H 0.3640 0.7689 1.0180 0.1490 Uiso
C8 C 0.52844(19) 0.8332(3) 0.91095(18) 0.1009 Uani
H5 H 0.5506 0.7994 0.9286 0.1210 Uiso
H6 H 0.5385 0.8798 0.9219 0.1210 Uiso
C9 C 0.5318(2) 0.8262(3) 0.85703(18) 0.0945 Uani
C10 C 0.4937(2) 0.8733(3) 0.82889(18) 0.1016 Uani
H7 H 0.4967 0.8690 0.7943 0.1220 Uiso
H8 H 0.4594 0.8603 0.8351 0.1220 Uiso
C11 C 0.4783(2) 0.9974(3) 0.8200(2) 0.0998 Uani
C12 C 0.4379(2) 0.9878(3) 0.7836(2) 0.1054 Uani
H9 H 0.4258 0.9430 0.7759 0.1260 Uiso
C13 C 0.4170(2) 1.0440(3) 0.7601(2) 0.1099 Uani
H10 H 0.3917 1.0375 0.7348 0.1320 Uiso
C14 C 0.4327(2) 1.1123(3) 0.7731(2) 0.0979 Uani
C15 C 0.4717(2) 1.1209(3) 0.8094(2) 0.1056 Uani
H11 H 0.4831 1.1657 0.8181 0.1270 Uiso
C16 C 0.4939(2) 1.0636(3) 0.8326(2) 0.1072 Uani
H12 H 0.5199 1.0699 0.8574 0.1290 Uiso
C17 C 0.4104(3) 1.1744(4) 0.7442(2) 0.1058 Uani
C18 C 0.5192(2) 0.7511(3) 0.8408(2) 0.1130 Uani
H13 H 0.4851 0.7388 0.8482 0.1360 Uiso
H14 H 0.5209 0.7464 0.8061 0.1360 Uiso
C19 C 0.5598(3) 0.6387(4) 0.8530(3) 0.1329 Uani
C20 C 0.5293(3) 0.6042(4) 0.8199(3) 0.1525 Uani
H15 H 0.5012 0.6258 0.8034 0.1830 Uiso
C21 C 0.5414(4) 0.5336(4) 0.8108(3) 0.1543 Uani
H16 H 0.5202 0.5087 0.7881 0.1850 Uiso
C22 C 0.5822(3) 0.5005(4) 0.8334(3) 0.1319 Uani
C23 C 0.6129(3) 0.5343(4) 0.8665(3) 0.1330 Uani
H17 H 0.6411 0.5121 0.8826 0.1590 Uiso
C24 C 0.6014(3) 0.6060(4) 0.8770(3) 0.1582 Uani
H18 H 0.6223 0.6305 0.9001 0.1900 Uiso
C25 C 0.5910(4) 0.4269(5) 0.8195(3) 0.1425 Uani
C26 C 0.5859(2) 0.8455(3) 0.84735(18) 0.1113 Uani
H19 H 0.5925 0.8946 0.8543 0.1330 Uiso
H20 H 0.6104 0.8175 0.8674 0.1330 Uiso
C27 C 0.6383(3) 0.8276(4) 0.7812(3) 0.1267 Uani
C28 C 0.6389(3) 0.7969(4) 0.7345(2) 0.1492 Uani
H21 H 0.6089 0.7809 0.7177 0.1790 Uiso
C29 C 0.6846(3) 0.7914(4) 0.7146(3) 0.1554 Uani
H22 H 0.6861 0.7720 0.6839 0.1860 Uiso
C30 C 0.7284(3) 0.8150(4) 0.7412(3) 0.1422 Uani
C31 C 0.7284(3) 0.8441(4) 0.7887(3) 0.1501 Uani
H23 H 0.7582 0.8583 0.8067 0.1800 Uiso
C32 C 0.6795(3) 0.8500(4) 0.8072(3) 0.1422 Uani
H24 H 0.6770 0.8697 0.8376 0.1700 Uiso
C33 C 0.7818(3) 0.8057(4) 0.7221(3) 0.1325 Uani
Cd1 Cd 0.375437(15) 0.71329(2) 1.189039(14) 0.0982 Uani
O1 O 0.36804(18) 0.7534(3) 1.10781(14) 0.1284 Uani
O2 O 0.44806(19) 0.7442(2) 1.13869(16) 0.1241 Uani
O3 O 0.47653(14) 0.8202(2) 0.91899(13) 0.1283 Uani
O4 O 0.50419(14) 0.9432(2) 0.84434(13) 0.1135 Uani
O5 O 0.42848(16) 1.2336(2) 0.75357(14) 0.1122 Uani
O6 O 0.37512(15) 1.16376(17) 0.71038(15) 0.0982 Uani
H25 H 0.3463 1.1548 0.7242 0.1480 Uiso
O7 O 0.5553(2) 0.7073(2) 0.86633(17) 0.1476 Uani
O8 O 0.62939(16) 0.3984(2) 0.84610(14) 0.1107 Uani
H26 H 0.6590 0.4073 0.8356 0.1660 Uiso
O9 O 0.56752(16) 0.3942(2) 0.78954(15) 0.1107 Uani
O10 O 0.58920(15) 0.8307(3) 0.79566(13) 0.1367 Uani
O11 O 0.8197(2) 0.8217(3) 0.7490(2) 0.1488 Uani
O12 O 0.78259(18) 0.7815(3) 0.6804(2) 0.1488 Uani
Cd1D Cd 0.624563(15) 0.28671(2) 0.810961(14) 0.0982 Uani
Cd1E Cd 0.375437(15) 1.28671(2) 0.689039(14) 0.0982 Uani
Cd1G Cd 0.875437(15) 0.78671(2) 0.689039(14) 0.0982 Uani
O5E O 0.42848(16) 0.7664(2) 1.25357(14) 0.1122 Uani
O6E O 0.37512(15) 0.83624(17) 1.21038(15) 0.0982 Uani
O8D O 0.37061(16) 0.6016(2) 1.15390(14) 0.1107 Uani
O9D O 0.43248(16) 0.6058(2) 1.21046(15) 0.1107 Uani
O11G O 0.3197(2) 0.6783(3) 1.2490(2) 0.1488 Uani
O12G O 0.28259(18) 0.7185(3) 1.1804(2) 0.1488 Uani
H27? H 0.4762 0.2765 0.7685 0.2040 Uiso
H28? H 0.4943 0.3367 0.7478 0.2040 Uiso
O13? O 0.4968(6) 0.3106(9) 0.7729(5) 0.1360 Uani
loop_
_atom_site_aniso_label
_atom_site_aniso_U_11
_atom_site_aniso_U_22
_atom_site_aniso_U_33
_atom_site_aniso_U_23
_atom_site_aniso_U_13
_atom_site_aniso_U_12
C1 0.149(6) 0.092(4) 0.098(4) -0.007(3) 0.056(4) -0.013(4)
C2 0.105(4) 0.117(5) 0.098(4) 0.000(3) 0.041(4) -0.006(3)
C3 0.123(5) 0.122(5) 0.082(3) 0.006(3) 0.027(3) 0.008(3)
C4 0.114(4) 0.126(5) 0.104(4) -0.001(3) 0.034(4) -0.010(3)
C5 0.120(5) 0.122(5) 0.108(5) 0.010(3) 0.042(4) 0.004(3)
C6 0.104(4) 0.217(8) 0.090(4) 0.005(4) 0.019(3) -0.008(4)
C7 0.109(4) 0.150(6) 0.120(5) 0.010(4) 0.045(4) -0.001(4)
C8 0.113(4) 0.102(4) 0.094(4) 0.005(3) 0.042(3) 0.009(3)
C9 0.123(4) 0.080(3) 0.086(3) 0.005(3) 0.039(3) 0.022(3)
C10 0.135(4) 0.088(4) 0.087(3) 0.000(3) 0.037(3) 0.018(3)
C11 0.114(4) 0.096(5) 0.093(4) 0.005(3) 0.028(3) 0.025(3)
C12 0.126(5) 0.088(4) 0.106(4) 0.008(3) 0.031(4) 0.014(3)
C13 0.125(4) 0.106(5) 0.101(4) -0.001(4) 0.022(3) 0.009(4)
C14 0.105(4) 0.098(4) 0.095(4) 0.012(3) 0.032(3) 0.017(3)
C15 0.118(4) 0.101(4) 0.100(4) -0.004(3) 0.022(4) 0.012(3)
C16 0.124(4) 0.102(5) 0.096(4) 0.000(3) 0.013(3) 0.021(4)
C17 0.115(5) 0.108(5) 0.101(4) 0.009(4) 0.045(4) 0.014(4)
C18 0.137(5) 0.095(4) 0.107(4) 0.004(4) 0.011(4) 0.028(4)
C19 0.164(6) 0.107(5) 0.124(5) -0.013(4) -0.006(5) 0.020(5)
C20 0.189(7) 0.095(5) 0.164(7) -0.011(5) -0.032(6) 0.016(5)
C21 0.199(8) 0.119(6) 0.140(6) -0.028(5) -0.010(6) 0.004(6)
C22 0.163(7) 0.110(6) 0.127(6) -0.017(5) 0.036(5) -0.005(5)
C23 0.164(6) 0.111(5) 0.128(5) -0.016(4) 0.035(5) -0.004(5)
C24 0.184(7) 0.129(6) 0.155(6) -0.021(5) -0.018(6) 0.017(5)
C25 0.167(8) 0.119(7) 0.148(7) -0.007(5) 0.049(6) 0.000(6)
C26 0.134(4) 0.116(4) 0.092(4) 0.005(3) 0.053(3) 0.032(3)
C27 0.129(5) 0.147(6) 0.112(5) 0.022(4) 0.053(4) 0.054(5)
C28 0.123(5) 0.226(8) 0.105(5) -0.014(5) 0.044(4) 0.044(5)
C29 0.143(6) 0.218(9) 0.114(5) 0.018(5) 0.058(5) 0.057(6)
C30 0.155(6) 0.154(6) 0.132(6) 0.023(5) 0.089(5) 0.042(5)
C31 0.141(5) 0.172(7) 0.148(6) -0.023(5) 0.070(5) 0.001(5)
C32 0.136(6) 0.167(7) 0.131(6) -0.011(5) 0.051(5) 0.026(5)
C33 0.128(6) 0.139(6) 0.137(7) 0.022(5) 0.046(5) 0.017(5)
Cd1 0.1136(3) 0.0880(3) 0.0992(3) -0.0077(2) 0.0431(2) -0.0057(2)
O1 0.136(3) 0.145(3) 0.113(3) -0.004(3) 0.058(3) -0.017(3)
O2 0.163(4) 0.122(3) 0.095(3) -0.001(2) 0.053(3) -0.016(3)
O3 0.118(3) 0.187(4) 0.086(2) 0.016(2) 0.042(2) -0.001(3)
O4 0.137(3) 0.096(3) 0.108(3) -0.002(2) 0.015(2) 0.020(2)
O5 0.136(3) 0.094(3) 0.109(3) 0.007(2) 0.024(2) 0.014(2)
O6 0.114(3) 0.088(2) 0.099(2) -0.008(2) 0.043(2) -0.006(2)
O7 0.212(5) 0.090(3) 0.135(3) -0.012(2) -0.014(3) 0.039(3)
O8 0.124(3) 0.108(3) 0.110(3) -0.010(2) 0.063(2) -0.010(2)
O9 0.124(3) 0.108(3) 0.110(3) -0.010(2) 0.063(2) -0.010(2)
O10 0.132(3) 0.187(4) 0.099(3) 0.019(3) 0.052(2) 0.057(3)
O11 0.137(4) 0.164(4) 0.157(4) 0.009(3) 0.074(3) 0.012(3)
O12 0.137(4) 0.164(5) 0.157(4) 0.009(3) 0.074(3) 0.013(3)
Cd1D 0.1136 0.088 0.0992 -0.0077 0.0431 -0.0057
Cd1E 0.1136 0.088 0.0992 0.0077 0.0431 0.0057
Cd1G 0.1136 0.088 0.0992 0.0077 0.0431 0.0057
O5E 0.136 0.094 0.109 -0.007 0.024 -0.014
O6E 0.114 0.088 0.099 0.008 0.043 0.006
O8D 0.124 0.108 0.11 -0.01 0.063 -0.01
O9D 0.124 0.108 0.11 -0.01 0.063 -0.01
O11G 0.137 0.164 0.157 -0.009 0.074 -0.012
O12G 0.137 0.164 0.157 -0.009 0.074 -0.013
O13? 0.132(11) 0.186(16) 0.098(10) 0.018(9) 0.052(10) 0.056(11)
loop_
_geom_bond_atom_site_label_1
_geom_bond_atom_site_label_2
_geom_bond_site_symmetry_1
_geom_bond_site_symmetry_2
C1 C2 1_555 1_555
C2 C3 1_555 1_555
C3 H1 1_555 1_555
C4 C3 1_555 1_555
H2 C4 1_555 1_555
C5 C4 1_555 1_555
C6 C5 1_555 1_555
H3 C6 1_555 1_555
C7 C2 1_555 1_555
H4 C7 1_555 1_555
C8 H5 1_555 1_555
H6 C8 1_555 1_555
C9 C8 1_555 1_555
C10 C9 1_555 1_555
H7 C10 1_555 1_555
H8 C10 1_555 1_555
C11 C12 1_555 1_555
C12 H9 1_555 1_555
C13 C12 1_555 1_555
H10 C13 1_555 1_555
C14 C13 1_555 1_555
C15 C14 1_555 1_555
H11 C15 1_555 1_555
C16 C11 1_555 1_555
H12 C16 1_555 1_555
C17 C14 1_555 1_555
C18 C9 1_555 1_555
H13 C18 1_555 1_555
H14 C18 1_555 1_555
C19 C20 1_555 1_555
C20 H15 1_555 1_555
C21 C20 1_555 1_555
H16 C21 1_555 1_555
C22 C21 1_555 1_555
C23 C22 1_555 1_555
H17 C23 1_555 1_555
C24 C19 1_555 1_555
H18 C24 1_555 1_555
C25 C22 1_555 1_555
C26 C9 1_555 1_555
H19 C26 1_555 1_555
H20 C26 1_555 1_555
C27 C28 1_555 1_555
C28 H21 1_555 1_555
C29 C28 1_555 1_555
H22 C29 1_555 1_555
C30 C29 1_555 1_555
C31 C30 1_555 1_555
H23 C31 1_555 1_555
C32 C27 1_555 1_555
H24 C32 1_555 1_555
C33 C30 1_555 1_555
Cd1 O1 1_555 1_555
O1 C1 1_555 1_555
O2 C1 1_555 1_555
O3 C5 1_555 1_555
O4 C10 1_555 1_555
O5 C17 1_555 1_555
O6 C17 1_555 1_555
H25 O6 1_555 1_555
O7 C18 1_555 1_555
O8 C25 1_555 1_555
H26 O8 1_555 1_555
O9 C25 1_555 1_555
O10 C26 1_555 1_555
O11 C33 1_555 1_555
O12 C33 1_555 1_555
Cd1D O8 1_555 1_555
Cd1E O5 1_555 1_555
Cd1G O11 1_555 1_555
O5E Cd1 1_555 1_555
O6E Cd1 1_555 1_555
O8D Cd1 1_555 1_555
O9D Cd1 1_555 1_555
O11G Cd1 1_555 1_555
O12G Cd1 1_555 1_555
C6 C7 1_555 1_555
C8 O3 1_555 1_555
C11 O4 1_555 1_555
C15 C16 1_555 1_555
C19 O7 1_555 1_555
C23 C24 1_555 1_555
C27 O10 1_555 1_555
C31 C32 1_555 1_555
Cd1 O2 1_555 1_555
O6 Cd1E 1_555 1_555
O9 Cd1D 1_555 1_555
O12 Cd1G 1_555 1_555

#END
