
#######################################################################
#
#                 Cambridge Crystallographic Data Centre
#                                CCDC 
#
#######################################################################
#
# If this CIF has been generated from an entry in the Cambridge 
# Structural Database, then it will include bibliographic, chemical, 
# crystal, experimental, refinement or atomic coordinate data resulting 
# from the CCDC's data processing and validation procedures.
#
#######################################################################

data_FUSTUK
_chemical_formula_moiety         
'(C48 H30 N18 O9 S2 Zn5)n,15n(C3 H7 N1 O1),8n(H2 O1)'
_chemical_name_systematic        
'catena-[hexakis(\m~3~-1,2,3-benzenetriazolyl)-bis(\m~2~-thiophene-2,5-dicarboxylato)-aqua-penta-zinc N,N-dimethylformamide solvate octahydrate]'
_symmetry_cell_setting           tetragonal
_symmetry_space_group_name_H-M   'I 41/a'
_symmetry_Int_Tables_number      88
_space_group_name_Hall           '-I 4ad'
loop_
_symmetry_equiv_pos_site_id
_symmetry_equiv_pos_as_xyz
1 x,y,z
2 1/2-x,-y,1/2+z
3 3/4-y,1/4+x,1/4+z
4 3/4+y,3/4-x,3/4+z
5 1/2+x,1/2+y,1/2+z
6 -x,1/2-y,z
7 1/4-y,3/4+x,3/4+z
8 1/4+y,1/4-x,1/4+z
9 -x,-y,-z
10 1/2+x,y,1/2-z
11 1/4+y,3/4-x,3/4-z
12 1/4-y,1/4+x,1/4-z
13 1/2-x,1/2-y,1/2-z
14 x,1/2+y,-z
15 3/4+y,1/4-x,1/4-z
16 3/4-y,3/4+x,3/4-z
_cell_length_a                   28.462(3)
_cell_length_b                   28.462(3)
_cell_length_c                   36.084(8)
_cell_angle_alpha                90
_cell_angle_beta                 90
_cell_angle_gamma                90
_cell_volume                     29231.1
_exptl_crystal_colour            colorless
_exptl_crystal_description       octahedron
_cell_formula_units_Z            16
loop_
_atom_site_label
_atom_site_type_symbol
_atom_site_fract_x
_atom_site_fract_y
_atom_site_fract_z
_atom_site_U_iso_or_equiv
_atom_site_thermal_displace_type
Zn1 Zn -0.122777(18) -0.151616(16) 0.093389(14) 0.0290 Uani
Zn2 Zn -0.048260(17) -0.018737(17) 0.199436(15) 0.0310 Uani
Zn3 Zn -0.134040(16) -0.035281(15) 0.129007(13) 0.0242 Uani
Zn4 Zn -0.11711(2) 0.048947(17) 0.055118(14) 0.0348 Uani
Zn5 Zn -0.247418(17) -0.024220(18) 0.168276(14) 0.0315 Uani
S1 S -0.11864(4) 0.20667(4) -0.01574(3) 0.0369 Uani
N1 N -0.13072(11) -0.09663(11) 0.05806(9) 0.0223 Uani
N2 N -0.17954(13) -0.13779(12) 0.12566(10) 0.0314 Uani
N3 N -0.06987(13) -0.12499(11) 0.12447(10) 0.0286 Uani
N4 N -0.05058(11) 0.02736(11) 0.15581(9) 0.0267 Uani
N5 N -0.11551(12) -0.01773(11) 0.21411(10) 0.0294 Uani
N6 N -0.04448(12) -0.07746(12) 0.16740(10) 0.0320 Uani
N7 N -0.08084(13) 0.01922(12) 0.12804(9) 0.0299 Uani
N8 N -0.14845(11) -0.01838(11) 0.18751(9) 0.0258 Uani
N9 N -0.18686(12) -0.09279(12) 0.13383(10) 0.0290 Uani
N10 N -0.18516(12) 0.01739(12) 0.11272(9) 0.0294 Uani
N11 N -0.07794(12) -0.08649(10) 0.14279(9) 0.0248 Uani
N12 N -0.12636(11) -0.05374(11) 0.07100(9) 0.0236 Uani
N13 N -0.19156(13) -0.01594(12) 0.20206(10) 0.0321 Uani
N14 N -0.22719(13) 0.02093(13) 0.12901(10) 0.0332 Uani
N15 N -0.22737(12) -0.08757(12) 0.15181(10) 0.0310 Uani
N16 N -0.07401(12) 0.05043(11) 0.10080(10) 0.0279 Uani
N17 N -0.17820(12) 0.05226(11) 0.08917(9) 0.0276 Uani
N18 N -0.12707(11) -0.02093(11) 0.04402(9) 0.0248 Uani
C1 C -0.11827(15) 0.26340(14) -0.07876(13) 0.0348 Uani
C2 C -0.14047(15) -0.12820(15) -0.00660(12) 0.0323 Uani
H1 H -0.1421 -0.1599 -0.0005 0.0390 Uiso
C3 C -0.13795(15) -0.03063(15) -0.02539(12) 0.0310 Uani
H2 H -0.1384 0.0012 -0.0314 0.0370 Uiso
C4 C -0.03880(15) 0.07918(14) 0.11073(12) 0.0303 Uani
C5 C -0.14373(14) -0.11266(14) -0.04283(12) 0.0272 Uani
H3 H -0.1471 -0.1348 -0.0616 0.0320 Uiso
C6 C -0.18627(17) -0.01239(15) 0.23884(12) 0.0357 Uani
C7 C -0.12535(14) 0.11579(15) 0.01085(14) 0.0367 Uani
C8 C -0.12662(14) 0.14780(16) -0.02113(12) 0.0330 Uani
C9 C -0.13446(14) -0.09308(14) 0.02063(11) 0.0263 Uani
C10 C -0.14211(15) -0.06471(16) -0.05239(12) 0.0337 Uani
H4 H -0.1439 -0.0559 -0.0772 0.0410 Uiso
C11 C -0.24716(15) 0.06170(14) 0.11617(12) 0.0307 Uani
C12 C -0.12853(18) 0.17461(16) -0.08136(14) 0.0447 Uani
H5 H -0.1305 0.1725 -0.1070 0.0530 Uiso
C13 C -0.13314(13) -0.04557(14) 0.01090(11) 0.0258 Uani
C14 C -0.01358(15) -0.11245(14) 0.16533(13) 0.0337 Uani
C15 C 0.02905(14) -0.12176(16) 0.18365(14) 0.0368 Uani
H6 H 0.0406 -0.1015 0.2017 0.0440 Uiso
C16 C -0.13999(14) -0.01540(15) 0.24764(12) 0.0293 Uani
C17 C 0.01803(18) 0.14033(17) 0.11111(15) 0.0507 Uani
H7 H 0.0324 0.1662 0.1002 0.0610 Uiso
C18 C -0.22203(16) -0.01146(18) 0.26704(14) 0.0453 Uani
H8 H -0.2539 -0.0108 0.2615 0.0550 Uiso
C19 C -0.21568(15) 0.08210(14) 0.09070(12) 0.0320 Uani
C20 C -0.02963(14) -0.14475(14) 0.13718(12) 0.0297 Uani
C21 C -0.02425(14) 0.06569(15) 0.14609(12) 0.0317 Uani
C22 C -0.29008(18) 0.08340(18) 0.12537(14) 0.0443 Uani
H9 H -0.3109 0.0698 0.1420 0.0530 Uiso
C23 C -0.29944(19) 0.1243(2) 0.10911(17) 0.0580 Uani
H10 H -0.3270 0.1401 0.1150 0.0690 Uiso
C24 C -0.13182(18) 0.13592(15) -0.05770(13) 0.0413 Uani
H11 H -0.1370 0.1054 -0.0659 0.0500 Uiso
C25 C -0.24708(15) -0.13205(14) 0.15560(13) 0.0343 Uani
C26 C -0.12228(18) -0.01488(17) 0.28437(12) 0.0393 Uani
H12 H -0.0904 -0.0141 0.2900 0.0470 Uiso
C27 C 0.03686(18) -0.19173(19) 0.14687(17) 0.0600 Uani
H13 H 0.0548 -0.2181 0.1412 0.0720 Uiso
C28 C 0.05294(16) -0.16156(17) 0.17408(16) 0.0473 Uani
H14 H 0.0809 -0.1686 0.1862 0.0570 Uiso
C29 C -0.12216(17) 0.21506(15) -0.06301(13) 0.0353 Uani
C30 C 0.03251(18) 0.12579(16) 0.14623(16) 0.0483 Uani
H15 H 0.0566 0.1422 0.1578 0.0580 Uiso
C31 C -0.01759(18) 0.11672(16) 0.09211(15) 0.0437 Uani
H16 H -0.0267 0.1255 0.0684 0.0520 Uiso
C32 C -0.00467(17) -0.18451(15) 0.12765(14) 0.0417 Uani
H17 H -0.0151 -0.2052 0.1095 0.0500 Uiso
C33 C -0.21526(17) -0.16303(14) 0.13941(14) 0.0408 Uani
C34 C -0.22674(16) 0.12426(17) 0.07447(15) 0.0430 Uani
H18 H -0.2059 0.1384 0.0581 0.0520 Uiso
C35 C 0.01230(16) 0.08752(16) 0.16488(14) 0.0373 Uani
H19 H 0.0226 0.0776 0.1880 0.0450 Uiso
C36 C -0.2250(2) -0.21256(19) 0.13880(18) 0.0667 Uani
H20 H -0.2056 -0.2341 0.1270 0.0800 Uiso
C37 C -0.2672(2) 0.14451(17) 0.08232(17) 0.0570 Uani
H21 H -0.2753 0.1724 0.0704 0.0680 Uiso
C38 C -0.2984(2) -0.1913(2) 0.1706(2) 0.0887 Uani
H22 H -0.3275 -0.2017 0.1791 0.1060 Uiso
C39 C -0.1570(2) -0.0157(2) 0.31086(14) 0.0557 Uani
H23 H -0.1482 -0.0191 0.3355 0.0670 Uiso
C40 C -0.2057(2) -0.0116(2) 0.30238(14) 0.0583 Uani
H24 H -0.2271 -0.0090 0.3218 0.0700 Uiso
C41 C -0.28942(18) -0.14555(18) 0.17148(17) 0.0543 Uani
H25 H -0.3100 -0.1240 0.1820 0.0650 Uiso
C42 C -0.2654(3) -0.2255(2) 0.1572(2) 0.1067 Uani
H26 H -0.2715 -0.2573 0.1609 0.1280 Uiso
S2 S -0.39991(4) -0.01185(4) 0.22932(4) 0.0424 Uani
C43 C -0.33613(16) -0.02165(16) 0.17263(14) 0.0400 Uani
C44 C -0.38399(18) -0.0189(2) 0.18352(15) 0.0591 Uani
C45 C -0.4931(2) -0.0079(3) 0.2498(2) 0.0880 Uani
C46 C -0.4225(3) -0.0022(3) 0.1636(3) 0.0777 Uani
H27 H -0.4215 0.0006 0.1379 0.0930 Uiso
C47 C -0.4621(3) 0.0101(3) 0.1832(3) 0.0643 Uani
H28 H -0.4888 0.0235 0.1726 0.0780 Uiso
C48 C -0.4571(2) -0.0008(3) 0.2228(3) 0.0563 Uani
O1 O -0.52979(19) 0.0196(3) 0.24632(19) 0.0880 Uani
O2 O -0.11962(12) 0.26896(10) -0.11202(9) 0.0413 Uani
O3 O -0.11790(14) 0.29831(12) -0.05599(10) 0.0543 Uani
O4 O -0.11292(12) 0.12959(11) 0.04177(9) 0.0426 Uani
O5 O -0.13675(11) 0.07303(10) 0.00472(9) 0.0366 Uani
O6 O -0.30367(10) -0.01838(12) 0.19762(9) 0.0435 Uani
O7 O -0.32478(13) -0.02879(14) 0.13888(10) 0.0564 Uani
O8 O -0.48591(12) -0.00890(15) 0.27785(11) 0.0655 Uani
O9 O -0.04438(10) 0.04782(10) 0.02280(8) 0.0052 Uiso
Zn1M Zn -0.122777(18) 0.348384(16) -0.093389(14) 0.0290 Uani
Zn2I Zn -0.548260(17) -0.018737(17) 0.300564(15) 0.0310 Uani
O1I O -0.02979(19) 0.0196(3) 0.25368(19) 0.0880 Uani
O2M O -0.11962(12) -0.23104(10) 0.11202(9) 0.0413 Uani
O3M O -0.11790(14) -0.20169(12) 0.05599(10) 0.0543 Uani
O8I O 0.01409(12) -0.00890(15) 0.22215(11) 0.0655 Uani
C49? C -0.4215(5) -0.0434(4) 0.1640(5) 0.0570 Uani
H29? H -0.4199 -0.0544 0.1397 0.0680 Uiso
C50? C -0.4587(6) -0.0477(5) 0.1866(5) 0.0647 Uani
H30? H -0.4850 -0.0637 0.1779 0.0780 Uiso
C51? C -0.4596(5) -0.0313(5) 0.2184(4) 0.0437 Uani
O10? O -0.5260(4) -0.0429(4) 0.2438(3) 0.0993 Uani
O11? O -0.0406(2) 0.0371(2) -0.00847(18) 0.0074 Uiso
loop_
_atom_site_aniso_label
_atom_site_aniso_U_11
_atom_site_aniso_U_22
_atom_site_aniso_U_33
_atom_site_aniso_U_23
_atom_site_aniso_U_13
_atom_site_aniso_U_12
Zn1 0.0351(3) 0.0159(2) 0.0360(3) -0.0020(2) 0.0042(2) -0.0007(2)
Zn2 0.0235(2) 0.0268(2) 0.0426(3) -0.0049(2) -0.0007(2) -0.0026(2)
Zn3 0.0264(2) 0.0165(2) 0.0297(2) -0.00168(19) 0.0006(2) 0.00148(19)
Zn4 0.0518(3) 0.0168(2) 0.0359(3) 0.0016(2) -0.0097(2) -0.0051(2)
Zn5 0.0260(2) 0.0339(3) 0.0346(3) -0.0027(2) 0.0035(2) 0.0066(2)
S1 0.0505(7) 0.0193(5) 0.0410(6) 0.0035(5) 0.0042(6) -0.0029(5)
N1 0.0206(16) 0.0142(15) 0.0321(18) -0.0013(14) -0.0020(14) 0.0005(13)
N2 0.0369(19) 0.0174(16) 0.040(2) 0.0012(15) 0.0110(17) -0.0068(15)
N3 0.041(2) 0.0110(15) 0.0337(19) -0.0006(14) 0.0000(16) 0.0035(15)
N4 0.0223(16) 0.0234(17) 0.0343(19) -0.0074(15) -0.0010(15) 0.0069(14)
N5 0.0353(19) 0.0182(16) 0.0346(19) 0.0032(15) 0.0001(16) -0.0019(15)
N6 0.0200(16) 0.0330(19) 0.043(2) 0.0009(17) -0.0078(16) -0.0089(15)
N7 0.0348(19) 0.0247(17) 0.0301(19) -0.0059(15) 0.0001(16) 0.0012(16)
N8 0.0231(17) 0.0231(17) 0.0312(18) 0.0024(15) 0.0071(15) 0.0012(14)
N9 0.0312(18) 0.0235(17) 0.0324(19) 0.0061(15) 0.0059(16) -0.0038(15)
N10 0.0290(18) 0.0282(18) 0.0311(19) -0.0013(15) 0.0007(15) 0.0100(15)
N11 0.0276(17) 0.0102(15) 0.0367(19) 0.0042(14) 0.0020(15) 0.0007(14)
N12 0.0187(16) 0.0167(16) 0.0353(18) -0.0015(14) 0.0067(14) 0.0036(13)
N13 0.0361(19) 0.0306(18) 0.0295(19) -0.0064(15) -0.0012(16) 0.0151(16)
N14 0.038(2) 0.0305(19) 0.0311(19) -0.0116(16) -0.0037(16) 0.0020(16)
N15 0.0301(18) 0.0240(17) 0.039(2) 0.0053(16) 0.0063(16) 0.0018(15)
N16 0.0329(18) 0.0089(15) 0.042(2) -0.0006(14) 0.0033(16) 0.0020(14)
N17 0.0355(19) 0.0163(16) 0.0311(19) 0.0006(14) -0.0095(16) 0.0003(15)
N18 0.0237(16) 0.0167(16) 0.0340(19) 0.0008(14) -0.0023(15) -0.0047(14)
C1 0.034(2) 0.0154(19) 0.055(3) 0.0132(19) 0.000(2) -0.0054(18)
C2 0.029(2) 0.021(2) 0.047(3) -0.0075(19) -0.007(2) 0.0031(18)
C3 0.033(2) 0.022(2) 0.038(2) 0.0005(18) 0.005(2) 0.0035(18)
C4 0.031(2) 0.020(2) 0.040(2) -0.0088(18) 0.0093(19) -0.0068(18)
C5 0.026(2) 0.0215(19) 0.034(2) -0.0040(17) -0.0019(18) 0.0084(17)
C6 0.057(3) 0.026(2) 0.024(2) 0.0001(18) -0.001(2) 0.008(2)
C7 0.018(2) 0.031(2) 0.061(3) 0.016(2) -0.006(2) 0.0025(18)
C8 0.021(2) 0.037(2) 0.041(3) 0.010(2) 0.0071(19) 0.0009(19)
C9 0.024(2) 0.027(2) 0.028(2) -0.0033(18) -0.0053(17) -0.0002(17)
C10 0.028(2) 0.041(2) 0.032(2) -0.006(2) -0.0071(19) 0.002(2)
C11 0.026(2) 0.023(2) 0.043(2) -0.0114(19) -0.0039(19) 0.0070(17)
C12 0.063(3) 0.027(2) 0.044(3) 0.010(2) 0.006(2) -0.002(2)
C13 0.0174(18) 0.030(2) 0.030(2) -0.0091(18) -0.0013(17) -0.0105(17)
C14 0.028(2) 0.0152(19) 0.058(3) -0.0016(19) 0.006(2) 0.0112(17)
C15 0.0115(18) 0.036(2) 0.063(3) 0.010(2) -0.013(2) -0.0009(18)
C16 0.024(2) 0.026(2) 0.038(2) -0.0067(19) 0.0026(19) 0.0075(18)
C17 0.053(3) 0.037(3) 0.062(3) 0.006(2) 0.005(3) -0.030(2)
C18 0.030(2) 0.058(3) 0.048(3) -0.014(2) 0.014(2) 0.019(2)
C19 0.036(2) 0.019(2) 0.041(2) -0.0110(18) -0.014(2) -0.0023(18)
C20 0.022(2) 0.022(2) 0.045(3) 0.0060(19) 0.0097(19) 0.0095(17)
C21 0.023(2) 0.028(2) 0.044(3) -0.004(2) 0.0025(19) 0.0055(18)
C22 0.045(3) 0.043(3) 0.045(3) 0.002(2) -0.006(2) -0.004(2)
C23 0.041(3) 0.052(3) 0.081(4) -0.001(3) -0.005(3) 0.024(2)
C24 0.059(3) 0.018(2) 0.047(3) -0.002(2) -0.003(2) -0.008(2)
C25 0.029(2) 0.020(2) 0.054(3) -0.002(2) 0.010(2) -0.0007(18)
C26 0.044(3) 0.048(3) 0.026(2) -0.008(2) 0.003(2) 0.006(2)
C27 0.035(3) 0.045(3) 0.100(4) 0.010(3) 0.023(3) 0.023(2)
C28 0.022(2) 0.032(2) 0.088(4) -0.010(3) -0.002(2) 0.002(2)
C29 0.045(3) 0.020(2) 0.041(3) 0.0107(19) 0.006(2) 0.000(2)
C30 0.040(3) 0.026(2) 0.079(4) -0.009(2) -0.008(3) -0.009(2)
C31 0.050(3) 0.025(2) 0.056(3) 0.003(2) -0.001(2) 0.000(2)
C32 0.044(3) 0.020(2) 0.061(3) -0.002(2) 0.007(2) 0.015(2)
C33 0.050(3) 0.0124(19) 0.060(3) 0.005(2) -0.001(2) -0.0164(19)
C34 0.027(2) 0.041(3) 0.061(3) 0.007(2) -0.010(2) -0.011(2)
C35 0.031(2) 0.036(2) 0.045(3) -0.006(2) -0.001(2) -0.009(2)
C36 0.066(3) 0.032(3) 0.102(4) 0.006(3) 0.049(3) -0.003(3)
C37 0.064(3) 0.026(2) 0.081(4) 0.013(3) -0.002(3) 0.017(2)
C38 0.081(4) 0.059(4) 0.126(5) -0.012(4) 0.065(4) -0.034(3)
C39 0.068(4) 0.063(4) 0.036(3) -0.003(3) -0.006(3) -0.011(3)
C40 0.073(4) 0.072(4) 0.030(3) -0.009(3) 0.011(3) 0.022(3)
C41 0.034(3) 0.040(3) 0.089(4) 0.015(3) 0.016(3) 0.001(2)
C42 0.107(5) 0.050(3) 0.163(7) 0.004(4) 0.063(5) -0.045(3)
S2 0.0253(5) 0.0403(6) 0.0617(8) -0.0064(6) 0.0111(5) 0.0020(5)
C43 0.034(2) 0.028(2) 0.058(3) 0.006(2) 0.0165(19) 0.0006(19)
C44 0.0313(19) 0.104(4) 0.042(3) 0.019(3) 0.0006(18) -0.004(2)
C45 0.043(2) 0.146(5) 0.075(3) 0.007(3) -0.002(2) 0.008(3)
C46 0.027(3) 0.140(9) 0.066(4) 0.004(6) -0.002(3) -0.006(4)
C47 0.033(3) 0.093(7) 0.067(4) -0.013(5) -0.010(3) 0.005(4)
C48 0.015(3) 0.082(6) 0.072(4) 0.003(5) -0.007(3) 0.001(4)
O1 0.034 0.119 0.111 -0.034 -0.005 0.012
O2 0.0511(19) 0.0168(14) 0.056(2) 0.0137(14) -0.0020(17) 0.0037(14)
O3 0.081(3) 0.0300(17) 0.052(2) 0.0042(16) 0.0040(19) 0.0131(18)
O4 0.059(2) 0.0305(16) 0.0384(18) 0.0004(14) -0.0121(16) -0.0185(15)
O5 0.0366(16) 0.0221(15) 0.0512(19) 0.0093(14) 0.0102(15) 0.0061(13)
O6 0.0226(14) 0.053(2) 0.0550(19) -0.0108(17) 0.0123(14) -0.0015(15)
O7 0.0413(19) 0.073(2) 0.055(2) 0.004(2) 0.0061(17) 0.0081(18)
O8 0.0304 0.092 0.074 -0.026 0.023 -0.0082
Zn1M 0.0351 0.0159 0.036 0.002 -0.0042 -0.0007
Zn2I 0.0235 0.0268 0.0426 0.0049 0.0007 -0.0026
O1I 0.034 0.119 0.111 0.034 0.005 0.012
O2M 0.0511 0.0168 0.056 -0.0137 0.002 0.0037
O3M 0.081 0.03 0.052 -0.0042 -0.004 0.0131
O8I 0.0304 0.092 0.074 0.026 -0.023 -0.0082
C49? 0.044(4) 0.070(6) 0.057(4) -0.002(4) -0.003(3) -0.001(4)
C50? 0.052(4) 0.073(6) 0.069(4) 0.005(4) -0.003(3) -0.015(4)
C51? 0.025(4) 0.049(8) 0.057(5) 0.019(5) -0.002(4) -0.015(5)
O10? 0.099 0.127 0.072 -0.003 -0.003 0.011
loop_
_geom_bond_atom_site_label_1
_geom_bond_atom_site_label_2
_geom_bond_site_symmetry_1
_geom_bond_site_symmetry_2
Zn1 N1 1_555 1_555
Zn2 N4 1_555 1_555
Zn3 N7 1_555 1_555
Zn4 N16 1_555 1_555
Zn5 N13 1_555 1_555
S1 C8 1_555 1_555
N1 N12 1_555 1_555
N2 Zn1 1_555 1_555
N3 Zn1 1_555 1_555
N4 N7 1_555 1_555
N5 Zn2 1_555 1_555
N6 Zn2 1_555 1_555
N7 N16 1_555 1_555
N8 Zn3 1_555 1_555
N9 Zn3 1_555 1_555
N10 Zn3 1_555 1_555
N11 Zn3 1_555 1_555
N12 Zn3 1_555 1_555
N13 N8 1_555 1_555
N14 Zn5 1_555 1_555
N15 Zn5 1_555 1_555
N16 C4 1_555 1_555
N17 Zn4 1_555 1_555
N18 Zn4 1_555 1_555
C1 C29 1_555 1_555
C2 H1 1_555 1_555
C3 H2 1_555 1_555
C4 C21 1_555 1_555
C5 C2 1_555 1_555
H3 C5 1_555 1_555
C6 N13 1_555 1_555
C7 C8 1_555 1_555
C8 C24 1_555 1_555
C9 N1 1_555 1_555
C10 C3 1_555 1_555
H4 C10 1_555 1_555
C11 N14 1_555 1_555
C12 H5 1_555 1_555
C13 N18 1_555 1_555
C14 N6 1_555 1_555
C15 C14 1_555 1_555
H6 C15 1_555 1_555
C16 N5 1_555 1_555
C17 H7 1_555 1_555
C18 C6 1_555 1_555
H8 C18 1_555 1_555
C19 N17 1_555 1_555
C20 N3 1_555 1_555
C21 N4 1_555 1_555
C22 C11 1_555 1_555
H9 C22 1_555 1_555
C23 C22 1_555 1_555
H10 C23 1_555 1_555
C24 C12 1_555 1_555
H11 C24 1_555 1_555
C25 N15 1_555 1_555
C26 C16 1_555 1_555
H12 C26 1_555 1_555
C27 H13 1_555 1_555
C28 C15 1_555 1_555
H14 C28 1_555 1_555
C29 S1 1_555 1_555
C30 C17 1_555 1_555
H15 C30 1_555 1_555
C31 C4 1_555 1_555
H16 C31 1_555 1_555
C32 C20 1_555 1_555
H17 C32 1_555 1_555
C33 N2 1_555 1_555
C34 C19 1_555 1_555
H18 C34 1_555 1_555
C35 C21 1_555 1_555
H19 C35 1_555 1_555
C36 C33 1_555 1_555
H20 C36 1_555 1_555
C37 C23 1_555 1_555
H21 C37 1_555 1_555
C38 H22 1_555 1_555
C39 C26 1_555 1_555
H23 C39 1_555 1_555
C40 C18 1_555 1_555
H24 C40 1_555 1_555
C41 C25 1_555 1_555
H25 C41 1_555 1_555
C42 C36 1_555 1_555
H26 C42 1_555 1_555
S2 C44 1_555 1_555
C43 C44 1_555 1_555
C44 C46 1_555 1_555
C45 C48 1_555 1_555
C46 H27 1_555 1_555
C47 C46 1_555 1_555
H28 C47 1_555 1_555
C48 S2 1_555 1_555
O1 C45 1_555 1_555
O2 C1 1_555 1_555
O3 C1 1_555 1_555
O4 Zn4 1_555 1_555
O5 Zn4 1_555 1_555
O6 Zn5 1_555 1_555
O7 Zn5 1_555 1_555
O8 C45 1_555 1_555
O9 Zn4 1_555 1_555
Zn1M O2 1_555 1_555
Zn2I O1 1_555 1_555
O1I Zn2 1_555 1_555
O2M Zn1 1_555 1_555
O3M Zn1 1_555 1_555
O8I Zn2 1_555 1_555
N2 N9 1_555 1_555
N3 N11 1_555 1_555
N5 N8 1_555 1_555
N6 N11 1_555 1_555
N9 N15 1_555 1_555
N10 N14 1_555 1_555
N10 N17 1_555 1_555
N12 N18 1_555 1_555
C2 C9 1_555 1_555
C3 C13 1_555 1_555
C5 C10 1_555 1_555
C6 C16 1_555 1_555
C7 O4 1_555 1_555
C7 O5 1_555 1_555
C9 C13 1_555 1_555
C11 C19 1_555 1_555
C12 C29 1_555 1_555
C14 C20 1_555 1_555
C17 C31 1_555 1_555
C25 C33 1_555 1_555
C27 C28 1_555 1_555
C27 C32 1_555 1_555
C30 C35 1_555 1_555
C34 C37 1_555 1_555
C38 C41 1_555 1_555
C38 C42 1_555 1_555
C39 C40 1_555 1_555
C43 O6 1_555 1_555
C43 O7 1_555 1_555
C47 C48 1_555 1_555
O3 Zn1M 1_555 1_555
O8 Zn2I 1_555 1_555

#END
