
#######################################################################
#
#                 Cambridge Crystallographic Data Centre
#                                CCDC 
#
#######################################################################
#
# If this CIF has been generated from an entry in the Cambridge 
# Structural Database, then it will include bibliographic, chemical, 
# crystal, experimental, refinement or atomic coordinate data resulting 
# from the CCDC's data processing and validation procedures.
#
#######################################################################

data_UVETUL
_chemical_formula_moiety         '(C26 H24 Mn2 N8 O10)n'
_chemical_name_systematic        
catena-((\m~4~-5-(4H-1,2,4-Triazol-4-yl)isophthalato-N,O,O',O'',O''')-(\m~4~-5-(4H-1,2,4-triazol-4-yl)isophthalato-O,O',O'',O''')-bis(dimethylformamide)-di-manganese(ii))
_symmetry_cell_setting           monoclinic
_symmetry_space_group_name_H-M   'P 21/c'
_symmetry_Int_Tables_number      14
_space_group_name_Hall           '-P 2ybc'
loop_
_symmetry_equiv_pos_site_id
_symmetry_equiv_pos_as_xyz
1 x,y,z
2 -x,1/2+y,1/2-z
3 -x,-y,-z
4 x,1/2-y,1/2+z
_cell_length_a                   10.7892(4)
_cell_length_b                   13.641(2)
_cell_length_c                   19.851(3)
_cell_angle_alpha                90
_cell_angle_beta                 95.049(2)
_cell_angle_gamma                90
_cell_volume                     2910.24
_exptl_crystal_colour            yellow
_exptl_crystal_description       plate
_cell_formula_units_Z            4
loop_
_atom_site_label
_atom_site_type_symbol
_atom_site_fract_x
_atom_site_fract_y
_atom_site_fract_z
C1 C 0.7783(2) 0.00715(17) 0.25256(11)
C2 C 0.7881(2) -0.06988(16) 0.19909(11)
C3 C 0.8873(2) -0.13546(17) 0.20119(11)
H1 H 0.9479 -0.1347 0.2375
C4 C 0.8953(2) -0.20250(16) 0.14840(12)
C5 C 0.8021(2) -0.20498(17) 0.09489(12)
H2 H 0.8052 -0.2510 0.0605
C6 C 0.7047(2) -0.13825(17) 0.09334(11)
C7 C 0.6977(2) -0.07043(16) 0.14464(11)
H3 H 0.6328 -0.0254 0.1427
C8 C 0.6273(3) -0.1407(2) -0.02936(13)
H4 H 0.7029 -0.1536 -0.0467
C9 C 0.4881(2) -0.11671(19) 0.03884(14)
H5 H 0.4484 -0.1092 0.0782
C10 C 1.0050(2) -0.27191(17) 0.14839(12)
C11 C 0.6011(2) 0.27553(17) 0.18809(11)
H6 H 0.6241 0.2217 0.1632
C12 C 0.5239(2) 0.41317(19) 0.21633(12)
H7 H 0.4830 0.4733 0.2140
C13 C 0.4898(2) 0.36974(16) 0.09309(11)
C14 C 0.5647(2) 0.34939(16) 0.04145(11)
H8 H 0.6445 0.3245 0.0511
C15 C 0.5179(2) 0.36705(16) -0.02495(11)
C16 C 0.3996(2) 0.40623(16) -0.03842(11)
H9 H 0.3698 0.4197 -0.0829
C17 C 0.3251(2) 0.42557(15) 0.01359(11)
C18 C 0.3700(2) 0.40590(16) 0.08000(11)
H10 H 0.3203 0.4169 0.1152
C19 C 0.1976(2) 0.47033(17) -0.00183(11)
C20 C 0.5958(2) 0.34887(16) -0.08315(11)
C21 C 1.0424(3) -0.2111(2) 0.43337(17)
H11 H 1.0307 -0.1803 0.4741
C22 C 1.1077(4) -0.3544(3) 0.49911(19)
H12 H 1.0968 -0.3109 0.5361
H13 H 1.1917 -0.3783 0.5027
H14 H 1.0513 -0.4086 0.5005
C23 C 1.1140(4) -0.3511(3) 0.3750(2)
H15 H 1.1006 -0.3081 0.3368
H16 H 1.0627 -0.4083 0.3677
H17 H 1.1999 -0.3703 0.3805
C24 C 1.1822(3) 0.0632(2) 0.28281(14)
H18 H 1.2131 0.0993 0.3203
C25 C 1.3315(4) 0.1499(3) 0.2213(2)
H19 H 1.3584 0.1730 0.2658
H20 H 1.2995 0.2038 0.1939
H21 H 1.4006 0.1210 0.2012
C26 C 1.1935(4) 0.0202(3) 0.16540(17)
H22 H 1.1514 0.0627 0.1323
H23 H 1.1379 -0.0307 0.1771
H24 H 1.2646 -0.0085 0.1471
Mn1 Mn 0.72991(3) 0.17935(2) 0.319447(15)
Mn2 Mn 0.99637(3) -0.00484(3) 0.382435(16)
N1 N 0.61098(18) -0.13602(14) 0.03740(10)
N2 N 0.4328(2) -0.10995(18) -0.02181(12)
N3 N 0.5229(2) -0.12460(18) -0.06639(12)
N4 N 0.62640(18) 0.28637(14) 0.25317(10)
N5 N 0.5762(2) 0.37484(16) 0.27157(10)
N6 N 0.53676(17) 0.35374(14) 0.16206(9)
N7 N 1.0824(2) -0.30133(18) 0.43477(13)
N8 N 1.2341(2) 0.0767(2) 0.22558(12)
O1 O 0.70954(17) 0.07940(13) 0.23695(9)
O2 O 0.83385(17) -0.00158(15) 0.30970(9)
O3 O 0.99403(18) -0.34378(13) 0.10906(9)
O4 O 1.09930(16) -0.25088(14) 0.18651(10)
O5 O 0.55489(16) 0.37686(14) -0.14093(8)
O6 O 0.69890(16) 0.30719(14) -0.07316(9)
O7 O 0.17191(16) 0.50002(14) -0.06120(9)
O8 O 0.12854(17) 0.47461(17) 0.04433(9)
O9 O 1.0190(2) -0.16400(16) 0.37967(11)
O10 O 1.09614(19) 0.00640(16) 0.28986(10)
Mn1A Mn 1.27009(3) -0.32065(2) 0.180553(15)
Mn1C Mn 0.72991(3) 0.32065(2) -0.180553(15)
Mn2A Mn 0.00363(3) 0.49516(3) 0.117565(16)
Mn2A_2 Mn 1.00363(3) -0.50484(3) 0.117565(16)
Mn2C Mn -0.00363(3) 0.50484(3) -0.117565(16)
O3A O 1.00597(18) 0.15622(13) 0.39094(9)
O4A O 0.90070(16) 0.24912(14) 0.31349(10)
O5C O 0.55489(16) 0.12314(14) 0.35907(8)
O6C O 0.69890(16) 0.19281(14) 0.42684(9)
O7C O 1.17191(16) -0.00002(14) 0.43880(9)
O8A O 0.87146(17) -0.02539(17) 0.45567(9)
loop_
_geom_bond_atom_site_label_1
_geom_bond_atom_site_label_2
_geom_bond_site_symmetry_1
_geom_bond_site_symmetry_2
C1 C2 1_555 1_555
C2 C3 1_555 1_555
C3 H1 1_555 1_555
C4 C3 1_555 1_555
C5 C4 1_555 1_555
H2 C5 1_555 1_555
C6 C5 1_555 1_555
C7 C2 1_555 1_555
H3 C7 1_555 1_555
C8 H4 1_555 1_555
C9 H5 1_555 1_555
C10 C4 1_555 1_555
C11 H6 1_555 1_555
C12 H7 1_555 1_555
C13 C14 1_555 1_555
C14 H8 1_555 1_555
C15 C14 1_555 1_555
C16 C15 1_555 1_555
H9 C16 1_555 1_555
C17 C16 1_555 1_555
C18 C13 1_555 1_555
H10 C18 1_555 1_555
C19 C17 1_555 1_555
C20 C15 1_555 1_555
C21 H11 1_555 1_555
C22 H12 1_555 1_555
H13 C22 1_555 1_555
H14 C22 1_555 1_555
C23 H15 1_555 1_555
H16 C23 1_555 1_555
H17 C23 1_555 1_555
C24 H18 1_555 1_555
C25 H19 1_555 1_555
H20 C25 1_555 1_555
H21 C25 1_555 1_555
C26 H22 1_555 1_555
H23 C26 1_555 1_555
H24 C26 1_555 1_555
Mn1 N4 1_555 1_555
Mn2 O2 1_555 1_555
N1 C6 1_555 1_555
N2 C9 1_555 1_555
N3 C8 1_555 1_555
N4 C11 1_555 1_555
N5 C12 1_555 1_555
N6 C11 1_555 1_555
N7 C21 1_555 1_555
N8 C24 1_555 1_555
O1 C1 1_555 1_555
O2 C1 1_555 1_555
O3 C10 1_555 1_555
O4 C10 1_555 1_555
O5 C20 1_555 1_555
O6 C20 1_555 1_555
O7 C19 1_555 1_555
O8 C19 1_555 1_555
O9 C21 1_555 1_555
O10 C24 1_555 1_555
Mn1A O4 1_555 1_555
Mn1C O5 1_555 1_555
Mn2A O8 1_555 1_555
Mn2A_2 O3 1_555 1_555
Mn2C O7 1_555 1_555
O3A Mn2 1_555 1_555
O4A Mn1 1_555 1_555
O5C Mn1 1_555 1_555
O6C Mn1 1_555 1_555
O7C Mn2 1_555 1_555
O8A Mn2 1_555 1_555
C6 C7 1_555 1_555
C8 N1 1_555 1_555
C9 N1 1_555 1_555
C12 N6 1_555 1_555
C13 N6 1_555 1_555
C17 C18 1_555 1_555
C22 N7 1_555 1_555
C23 N7 1_555 1_555
C25 N8 1_555 1_555
C26 N8 1_555 1_555
Mn1 O1 1_555 1_555
Mn2 O9 1_555 1_555
Mn2 O10 1_555 1_555
N2 N3 1_555 1_555
N4 N5 1_555 1_555
O6 Mn1C 1_555 1_555

#END
