
#######################################################################
#
#                 Cambridge Crystallographic Data Centre
#                                CCDC 
#
#######################################################################
#
# If this CIF has been generated from an entry in the Cambridge 
# Structural Database, then it will include bibliographic, chemical, 
# crystal, experimental, refinement or atomic coordinate data resulting 
# from the CCDC's data processing and validation procedures.
#
#######################################################################

data_UVEVAT
_chemical_formula_moiety         '(C10 H5 Mn1 N3 O4)n'
_chemical_name_systematic        
"catena-((\m~5~-5-(4H-1,2,4-Triazol-4-yl)isophthalato-N,O,O',O'',O''')-manganese(ii) unknown solvate)"
_symmetry_cell_setting           orthorhombic
_symmetry_space_group_name_H-M   'P b c n'
_symmetry_Int_Tables_number      60
_space_group_name_Hall           '-P 2n 2ab'
loop_
_symmetry_equiv_pos_site_id
_symmetry_equiv_pos_as_xyz
1 x,y,z
2 1/2-x,1/2-y,1/2+z
3 1/2+x,1/2-y,-z
4 -x,y,1/2-z
5 -x,-y,-z
6 1/2+x,1/2+y,1/2-z
7 1/2-x,1/2+y,z
8 x,-y,1/2+z
_cell_length_a                   12.2862(4)
_cell_length_b                   14.9471(4)
_cell_length_c                   20.8959(5)
_cell_angle_alpha                90
_cell_angle_beta                 90
_cell_angle_gamma                90
_cell_volume                     3837.39
_exptl_crystal_colour            yellow
_exptl_crystal_description       needle
_cell_formula_units_Z            8
loop_
_atom_site_label
_atom_site_type_symbol
_atom_site_fract_x
_atom_site_fract_y
_atom_site_fract_z
_atom_site_U_iso_or_equiv
_atom_site_thermal_displace_type
C1 C 0.3274(7) 0.3814(8) 0.5525(4) 0.0530 Uani
H1 H 0.4001 0.3805 0.5400 0.0640 Uiso
C2 C 0.1540(6) 0.3692(6) 0.5496(4) 0.0317 Uani
H2 H 0.0831 0.3600 0.5354 0.0380 Uiso
C3 C 0.2463(6) 0.3768(5) 0.4429(3) 0.0240 Uani
C4 C 0.1799(6) 0.4328(5) 0.4097(4) 0.0253 Uani
H3 H 0.1318 0.4703 0.4312 0.0310 Uiso
C5 C 0.1850(6) 0.4331(5) 0.3425(4) 0.0243 Uani
C6 C 0.2517(6) 0.3742(5) 0.3113(3) 0.0257 Uani
H4 H 0.2544 0.3744 0.2669 0.0310 Uiso
C7 C 0.3158(6) 0.3137(5) 0.3459(3) 0.0237 Uani
C8 C 0.3874(7) 0.2469(5) 0.3104(4) 0.0273 Uani
C9 C 0.3154(6) 0.3152(5) 0.4114(4) 0.0270 Uani
H5 H 0.3595 0.2765 0.4347 0.0320 Uiso
C10 C 0.1197(7) 0.5010(5) 0.3064(4) 0.0290 Uani
Mn1 Mn 0.08431(8) 0.37544(7) 0.69367(4) 0.0154 Uani
N1 N 0.2429(5) 0.3767(4) 0.5114(3) 0.0240 Uani
N2 N 0.1833(5) 0.3768(4) 0.6092(3) 0.0273 Uani
N3 N 0.2954(6) 0.3875(6) 0.6112(3) 0.0443 Uani
O1 O 0.3565(5) 0.2239(4) 0.2567(3) 0.0407 Uani
O2 O 0.4695(5) 0.2194(4) 0.3394(3) 0.0393 Uani
O3 O 0.1508(5) 0.5228(4) 0.2517(3) 0.0417 Uani
O4 O 0.0372(5) 0.5313(4) 0.3342(3) 0.0483 Uani
Mn1A Mn 0.41569(8) 0.12456(7) 0.19367(4) 0.0154 Uani
Mn1B Mn 0.58431(8) 0.12456(7) 0.30633(4) 0.0154 Uani
Mn1G Mn 0.08431(8) 0.62456(7) 0.19367(4) 0.0154 Uani
Mn1D Mn -0.08431(8) 0.62456(7) 0.30633(4) 0.0154 Uani
O1A O 0.1435(5) 0.2761(4) 0.7567(3) 0.0407 Uani
O2B O -0.0305(5) 0.2806(4) 0.6606(3) 0.0393 Uani
O3G O 0.1508(5) 0.4772(4) 0.7517(3) 0.0417 Uani
O4D O -0.0372(5) 0.4687(4) 0.6658(3) 0.0483 Uani
C11? C 0.5000 0.485(5) 0.2500 0.3400 Uiso
C12? C 0.5262(17) 0.5038(13) 0.5526(9) 0.1230 Uiso
C13? C 0.519(3) 0.5081(19) 0.6408(14) 0.1800 Uiso
C14? C 0.609(3) 0.417(3) 0.650(2) 0.2530 Uiso
C15? C 0.604(6) 0.381(4) 0.399(4) 0.2800 Uiso
C16? C 0.691(3) 0.365(2) 0.3735(17) 0.2020 Uiso
C17? C 0.7601(18) 0.3613(14) 0.4336(11) 0.0810 Uiso
C18? C 0.704(3) 0.3818(18) 0.4957(15) 0.1210 Uiso
C19? C 0.869(2) 0.3506(16) 0.4262(12) 0.0910 Uiso
C20? C 0.908(2) 0.334(2) 0.3666(14) 0.1630 Uiso
C21? C 0.961(3) 0.265(3) 0.398(2) 0.2380 Uiso
C22? C 0.994(2) 0.2563(16) 0.4671(13) 0.1000 Uiso
C23? C 0.9169(18) 0.3437(15) 0.4821(11) 0.1300 Uiso
C24? C 1.011(4) 0.207(4) 0.341(3) 0.3300 Uiso
loop_
_atom_site_aniso_label
_atom_site_aniso_U_11
_atom_site_aniso_U_22
_atom_site_aniso_U_33
_atom_site_aniso_U_23
_atom_site_aniso_U_13
_atom_site_aniso_U_12
C1 0.023(4) 0.111(9) 0.025(4) -0.005(5) 0.003(3) -0.024(5)
C2 0.023(4) 0.049(5) 0.023(4) -0.006(4) 0.005(3) 0.013(4)
C3 0.028(4) 0.027(4) 0.017(3) 0.011(4) 0.005(3) 0.008(3)
C4 0.028(4) 0.022(4) 0.026(4) -0.003(3) 0.005(3) 0.014(3)
C5 0.028(4) 0.022(4) 0.023(4) 0.003(3) -0.002(3) 0.008(3)
C6 0.035(4) 0.025(4) 0.017(3) -0.005(4) 0.000(3) 0.008(3)
C7 0.026(4) 0.022(4) 0.023(4) 0.003(3) 0.004(3) 0.010(3)
C8 0.034(4) 0.023(4) 0.025(4) 0.004(3) 0.013(4) 0.011(3)
C9 0.028(4) 0.029(4) 0.024(4) 0.004(3) 0.005(3) 0.012(3)
C10 0.034(4) 0.022(4) 0.031(4) 0.000(3) -0.011(4) 0.007(4)
Mn1 0.016 0.0166 0.0135 0.0002 0.001 0.0007
N1 0.026(3) 0.030(3) 0.016(3) 0.000(3) 0.005(2) 0.008(3)
N2 0.028(3) 0.035(3) 0.019(3) 0.003(3) 0.005(3) 0.020(3)
N3 0.024(3) 0.083(6) 0.026(4) 0.004(4) 0.002(3) -0.010(4)
O1 0.056(4) 0.038(3) 0.028(3) -0.011(3) 0.007(3) 0.016(3)
O2 0.036(3) 0.040(3) 0.042(3) -0.007(3) 0.008(3) 0.021(3)
O3 0.056(4) 0.038(3) 0.031(3) 0.013(3) -0.002(3) 0.016(3)
O4 0.038(4) 0.052(4) 0.055(4) 0.002(3) -0.002(3) 0.027(3)
Mn1A 0.0160(6) 0.0166(6) 0.0135(6) -0.0002(4) -0.0010(4) 0.0007(4)
Mn1B 0.016 0.0166 0.0135 0.0002 -0.001 -0.0007
Mn1G 0.016 0.0166 0.0135 -0.0002 0.001 -0.0007
Mn1D 0.016 0.0166 0.0135 0.0002 0.001 0.0007
O1A 0.056 0.038 0.028 0.011 -0.007 0.016
O2B 0.036 0.04 0.042 -0.007 -0.008 -0.021
O3G 0.056 0.038 0.031 -0.013 -0.002 -0.016
O4D 0.038 0.052 0.055 0.002 -0.002 0.027
loop_
_geom_bond_atom_site_label_1
_geom_bond_atom_site_label_2
_geom_bond_site_symmetry_1
_geom_bond_site_symmetry_2
C1 H1 1_555 1_555
C2 H2 1_555 1_555
C3 C4 1_555 1_555
C4 H3 1_555 1_555
C5 C4 1_555 1_555
C6 C5 1_555 1_555
H4 C6 1_555 1_555
C7 C6 1_555 1_555
C8 C7 1_555 1_555
C9 C3 1_555 1_555
H5 C9 1_555 1_555
C10 C5 1_555 1_555
Mn1 N2 1_555 1_555
N1 C1 1_555 1_555
N2 C2 1_555 1_555
N3 C1 1_555 1_555
O1 C8 1_555 1_555
O2 C8 1_555 1_555
O3 C10 1_555 1_555
O4 C10 1_555 1_555
Mn1A O1 1_555 1_555
Mn1B O2 1_555 1_555
Mn1G O3 1_555 1_555
Mn1D O4 1_555 1_555
O1A Mn1 1_555 1_555
O2B Mn1 1_555 1_555
O3G Mn1 1_555 1_555
O4D Mn1 1_555 1_555
C2 N1 1_555 1_555
C3 N1 1_555 1_555
C7 C9 1_555 1_555
N2 N3 1_555 1_555

#END
