
#######################################################################
#
#                 Cambridge Crystallographic Data Centre
#                                CCDC 
#
#######################################################################
#
# If this CIF has been generated from an entry in the Cambridge 
# Structural Database, then it will include bibliographic, chemical, 
# crystal, experimental, refinement or atomic coordinate data resulting 
# from the CCDC's data processing and validation procedures.
#
#######################################################################

data_WOBQEL
_chemical_formula_moiety         '(C44 H26 Mn2 O10)n,n(C3 H7 N1 O1),n(H2 O1)'
_chemical_name_systematic        
"catena-[(\m-4,4',4'',4'''-pyrene-1,3,6,8-tetrayltetrabenzoato)-diaqua-di-manganese N,N-dimethylformamide solvate monohydrate]"
_symmetry_cell_setting           monoclinic
_symmetry_space_group_name_H-M   'P 21/c'
_symmetry_Int_Tables_number      14
_space_group_name_Hall           '-P 2ybc'
loop_
_symmetry_equiv_pos_site_id
_symmetry_equiv_pos_as_xyz
1 x,y,z
2 -x,1/2+y,1/2-z
3 -x,-y,-z
4 x,1/2-y,1/2+z
_cell_length_a                   6.9970(2)
_cell_length_b                   25.4831(9)
_cell_length_c                   28.2642(8)
_cell_angle_alpha                90
_cell_angle_beta                 92.712(2)
_cell_angle_gamma                90
_cell_volume                     5034.01
_exptl_crystal_colour            orange
_exptl_crystal_description       block-like
_cell_formula_units_Z            4
loop_
_atom_site_label
_atom_site_type_symbol
_atom_site_fract_x
_atom_site_fract_y
_atom_site_fract_z
_atom_site_U_iso_or_equiv
_atom_site_thermal_displace_type
Mn1 Mn -0.79940(13) 0.93068(4) 1.24834(3) 0.0347 Uani
Mn2 Mn 0.65369(13) 0.53332(4) 0.73533(3) 0.0389 Uani
O1 O 0.8781(6) 0.58410(18) 0.76825(14) 0.0410 Uani
O2 O -0.5323(6) 0.89828(16) 1.22233(14) 0.0397 Uani
O3 O 0.5392(7) 0.47257(19) 1.20630(16) 0.0501 Uani
O4 O 1.1243(7) 0.6215(2) 0.80406(16) 0.0563 Uani
O5 O -0.7917(7) 0.8644(2) 1.18867(17) 0.0574 Uani
O6 O 0.7958(7) 0.5408(2) 0.66989(17) 0.0608 Uani
H1 H 0.7345 0.5236 0.6484 0.0920 Uiso
H2 H 0.7989 0.5730 0.6622 0.0920 Uiso
O7 O -0.1667(6) 1.01499(19) 0.80837(16) 0.0478 Uani
C1 C -0.0093(9) 0.7593(2) 1.0416(2) 0.0367 Uani
C2 C 0.0626(9) 0.7862(2) 0.9587(2) 0.0367 Uani
O8 O -0.4573(7) 0.9795(2) 0.8014(2) 0.0640 Uani
C3 C 0.3554(9) 0.7126(2) 0.9582(2) 0.0371 Uani
O9 O 0.8284(8) 0.5026(2) 1.20308(19) 0.0692 Uani
C4 C 0.2841(9) 0.6868(3) 1.0422(2) 0.0378 Uani
C5 C 0.0963(10) 0.7536(3) 1.0005(3) 0.0530 Uani
C6 C -0.6158(10) 0.8682(3) 1.1908(2) 0.0473 Uani
C7 C 0.2460(11) 0.7176(3) 0.9990(3) 0.0542 Uani
C8 C -0.2861(11) 0.9796(3) 0.8166(2) 0.0499 Uani
C9 C 0.5080(11) 0.6749(3) 0.9610(3) 0.0600 Uani
C10 C 0.9487(10) 0.6121(3) 0.8012(2) 0.0437 Uani
C11 C 0.8312(10) 0.6328(4) 0.8396(3) 0.0673 Uani
C12 C 0.0200(13) 0.7272(3) 1.0823(3) 0.0687 Uani
H3 H -0.0598 0.7297 1.1076 0.0830 Uiso
C13 C 0.3276(13) 0.7437(3) 0.9164(3) 0.0657 Uani
H4 H 0.4036 0.7399 0.8905 0.0790 Uiso
C14 C 0.4430(11) 0.6508(3) 1.0382(3) 0.0612 Uani
C15 C 0.1825(11) 0.6894(3) 1.0832(3) 0.0614 Uani
H5 H 0.2140 0.6688 1.1096 0.0740 Uiso
O10 O 0.8276(7) 0.4675(2) 0.7569(2) 0.0706 Uani
H6 H 0.7711 0.4394 0.7481 0.1060 Uiso
H7 H 0.8444 0.4676 0.7869 0.1060 Uiso
C16 C -0.1955(12) 0.8248(3) 1.1243(3) 0.0650 Uani
H8 H -0.0626 0.8257 1.1275 0.0780 Uiso
C17 C -0.1384(12) 0.8609(3) 0.9204(3) 0.0575 Uani
C18 C 0.6220(11) 0.6635(3) 0.9175(3) 0.0547 Uani
C19 C 0.5913(13) 0.5428(3) 1.1536(3) 0.0690 Uani
C20 C -0.0897(11) 0.8222(3) 0.9617(3) 0.0590 Uani
C21 C 0.4947(13) 0.6134(3) 1.0808(3) 0.0618 Uani
C22 C -0.0471(13) 0.9311(3) 0.8677(3) 0.0727 Uani
H9 H 0.0482 0.9524 0.8563 0.0870 Uiso
C23 C 0.1663(12) 0.7831(4) 0.9171(3) 0.0669 Uani
H10 H 0.1365 0.8045 0.8911 0.0800 Uiso
C24 C -0.2272(12) 0.9373(3) 0.8512(3) 0.0660 Uani
C25 C -0.3026(11) 0.8395(4) 1.1634(4) 0.0807 Uani
H11 H -0.2425 0.8476 1.1925 0.0970 Uiso
C26 C -0.2811(11) 0.8092(3) 1.0818(2) 0.0578 Uani
C27 C 0.5515(13) 0.6467(3) 1.0003(3) 0.0681 Uani
H12 H 0.6566 0.6243 1.0012 0.0820 Uiso
C28 C -0.4958(11) 0.8413(4) 1.1570(3) 0.0677 Uani
C29 C 0.6538(11) 0.5048(3) 1.1904(2) 0.0482 Uani
C30 C -0.2021(12) 0.8262(3) 0.9992(3) 0.0656 Uani
H13 H -0.3065 0.8488 0.9979 0.0780 Uiso
C31 C 0.5317(13) 0.6476(3) 0.8728(3) 0.0697 Uani
H14 H 0.3989 0.6475 0.8693 0.0840 Uiso
C32 C 0.6369(11) 0.6329(3) 0.8357(3) 0.0684 Uani
H15 H 0.5750 0.6228 0.8073 0.0820 Uiso
C33 C 0.9224(13) 0.6482(4) 0.8823(3) 0.0849 Uani
H16 H 1.0554 0.6482 0.8851 0.1020 Uiso
C34 C -0.3683(15) 0.9047(4) 0.8696(4) 0.0936 Uani
H17 H -0.4944 0.9083 0.8582 0.1120 Uiso
C35 C -0.5801(14) 0.8219(4) 1.1143(3) 0.0979 Uani
H18 H -0.7126 0.8185 1.1119 0.1170 Uiso
C36 C -0.1618(11) 0.7967(3) 1.0393(3) 0.0567 Uani
C37 C 0.6782(13) 0.6112(4) 1.0987(3) 0.0779 Uani
H19 H 0.7684 0.6342 1.0873 0.0930 Uiso
C38 C 0.0010(13) 0.8930(4) 0.9017(3) 0.0728 Uani
H20 H 0.1282 0.8890 0.9121 0.0870 Uiso
C39 C 0.3569(15) 0.5799(4) 1.0997(3) 0.0802 Uani
H21 H 0.2307 0.5817 1.0879 0.0960 Uiso
C40 C -0.4808(12) 0.8081(4) 1.0770(3) 0.0721 Uani
H22 H -0.5429 0.7979 1.0487 0.0870 Uiso
C41 C 0.8201(12) 0.6635(4) 0.9203(3) 0.0684 Uani
H23 H 0.8848 0.6739 0.9482 0.0820 Uiso
C42 C 0.4065(13) 0.5440(3) 1.1360(3) 0.0645 Uani
H24 H 0.3153 0.5216 1.1477 0.0770 Uiso
C43 C -0.3267(13) 0.8686(4) 0.9031(3) 0.0782 Uani
H25 H -0.4245 0.8485 0.9150 0.0940 Uiso
C44 C 0.7332(15) 0.5757(4) 1.1334(4) 0.0824 Uani
H26 H 0.8611 0.5730 1.1437 0.0990 Uiso
Mn1A Mn 0.79940(13) 0.43068(4) 1.25166(3) 0.0347 Uani
Mn1B Mn -0.20060(13) 1.06932(4) 0.75166(3) 0.0347 Uani
Mn1C Mn 1.20060(13) 0.56932(4) 0.74834(3) 0.0347 Uani
Mn2A Mn -0.65369(13) 1.03332(4) 0.76467(3) 0.0389 Uani
Mn2B Mn 0.34631(13) 0.46668(4) 1.26467(3) 0.0389 Uani
Mn2C Mn -0.34631(13) 0.96668(4) 1.23533(3) 0.0389 Uani
O1C O -1.1219(6) 0.91590(18) 1.26825(14) 0.0410 Uani
O2C O 0.4677(6) 0.60172(16) 0.72233(14) 0.0397 Uani
O3A O -0.5392(7) 0.97257(19) 1.29370(16) 0.0501 Uani
O3B O 0.4608(7) 0.52743(19) 0.79370(16) 0.0501 Uani
O4C O -0.8757(7) 0.8785(2) 1.30406(16) 0.0563 Uani
O7B O -0.8333(6) 0.98501(19) 1.19163(16) 0.0478 Uani
O8A O 0.4573(7) 0.4795(2) 0.6986(2) 0.0640 Uani
O9A O -0.8284(8) 1.0026(2) 1.29692(19) 0.0692 Uani
O11 O 0.3721(13) 0.4545(5) 0.4196(3) 0.1390 Uani
N1 N 0.6753(17) 0.4423(5) 0.4506(4) 0.1289 Uani
C45 C 0.543(2) 0.4498(5) 0.4174(4) 0.1175 Uani
H27 H 0.5871 0.4520 0.3870 0.1410 Uiso
C46 C 0.617(3) 0.4338(9) 0.4987(6) 0.1912 Uani
H28 H 0.5014 0.4530 0.5036 0.2860 Uiso
H29 H 0.7160 0.4456 0.5208 0.2860 Uiso
H30 H 0.5941 0.3970 0.5035 0.2860 Uiso
C47 C 0.878(2) 0.4370(8) 0.4410(7) 0.1741 Uani
H31 H 0.8902 0.4183 0.4118 0.2640 Uiso
H32 H 0.9424 0.4181 0.4664 0.2640 Uiso
H33 H 0.9339 0.4712 0.4384 0.2640 Uiso
O12 O 0.732(4) 0.3621(5) 0.7495(7) 0.3650 Uani
H34 H 0.7644 0.3314 0.7357 0.4380 Uiso
H35 H 0.6262 0.3796 0.7371 0.4380 Uiso
loop_
_atom_site_aniso_label
_atom_site_aniso_U_11
_atom_site_aniso_U_22
_atom_site_aniso_U_33
_atom_site_aniso_U_23
_atom_site_aniso_U_13
_atom_site_aniso_U_12
Mn1 0.0331(6) 0.0400(6) 0.0314(5) 0.0013(4) 0.0064(4) 0.0009(4)
Mn2 0.0298(6) 0.0470(6) 0.0396(6) -0.0042(4) -0.0021(4) 0.0039(4)
O1 0.031(2) 0.056(3) 0.036(2) -0.008(2) 0.0021(18) -0.002(2)
O2 0.038(2) 0.043(3) 0.039(2) -0.015(2) 0.0114(19) -0.001(2)
O3 0.060(3) 0.053(3) 0.038(2) 0.011(2) 0.011(2) 0.005(2)
O4 0.038(3) 0.080(4) 0.052(3) -0.022(3) 0.015(2) -0.016(2)
O5 0.033(3) 0.081(4) 0.059(3) -0.018(3) 0.011(2) -0.012(2)
O6 0.051(3) 0.086(4) 0.045(3) -0.015(3) -0.001(2) 0.013(3)
O7 0.041(3) 0.053(3) 0.049(3) 0.016(2) -0.001(2) -0.005(2)
C1 0.042(4) 0.034(3) 0.035(3) -0.006(3) 0.011(3) 0.001(3)
C2 0.038(4) 0.041(4) 0.031(3) 0.008(3) -0.001(3) 0.002(3)
O8 0.039(3) 0.073(4) 0.078(4) 0.029(3) -0.017(3) -0.004(3)
C3 0.035(3) 0.045(4) 0.032(3) -0.006(3) 0.010(3) -0.003(3)
O9 0.051(3) 0.090(4) 0.065(3) 0.022(3) -0.015(3) -0.005(3)
C4 0.042(4) 0.047(4) 0.024(3) 0.008(3) -0.003(3) -0.003(3)
C5 0.047(4) 0.058(5) 0.055(4) -0.013(4) 0.012(3) -0.006(4)
C6 0.050(5) 0.054(4) 0.039(4) -0.006(3) 0.014(3) -0.013(3)
C7 0.049(4) 0.062(5) 0.052(4) -0.004(4) 0.006(3) -0.008(4)
C8 0.048(5) 0.052(4) 0.049(4) 0.005(3) -0.005(3) -0.001(4)
C9 0.062(5) 0.057(5) 0.059(5) 0.017(4) -0.018(4) 0.002(4)
C10 0.040(4) 0.053(4) 0.039(4) -0.006(3) 0.011(3) -0.012(3)
C11 0.042(4) 0.098(6) 0.064(5) -0.051(5) 0.025(4) -0.035(4)
C12 0.087(6) 0.069(5) 0.048(4) 0.017(4) -0.019(4) -0.020(5)
C13 0.076(6) 0.059(5) 0.059(5) 0.027(4) -0.028(4) -0.016(4)
C14 0.056(5) 0.067(5) 0.063(5) -0.015(4) 0.027(4) 0.002(4)
C15 0.055(5) 0.069(5) 0.062(5) -0.015(4) 0.022(4) -0.005(4)
O10 0.055(4) 0.047(3) 0.108(5) 0.006(3) -0.016(3) 0.003(2)
C16 0.052(5) 0.077(6) 0.067(5) -0.004(4) 0.012(4) 0.007(4)
C17 0.063(5) 0.061(5) 0.049(4) 0.014(4) 0.009(4) 0.000(4)
C18 0.051(5) 0.067(5) 0.047(4) -0.009(4) 0.011(3) 0.003(4)
C19 0.077(6) 0.056(5) 0.071(6) 0.022(4) -0.027(5) -0.019(4)
C20 0.050(5) 0.056(5) 0.073(5) -0.018(4) 0.024(4) 0.001(4)
C21 0.077(6) 0.054(5) 0.055(4) 0.014(4) 0.009(4) 0.005(4)
C22 0.064(6) 0.066(6) 0.086(6) 0.013(5) -0.020(5) -0.003(4)
C23 0.064(5) 0.089(6) 0.049(4) -0.013(4) 0.017(4) -0.013(5)
C24 0.051(5) 0.063(5) 0.081(6) 0.026(4) -0.029(4) -0.016(4)
C25 0.049(5) 0.086(6) 0.110(7) -0.065(6) 0.033(5) -0.015(4)
C26 0.064(5) 0.071(5) 0.039(4) -0.001(4) 0.008(3) 0.001(4)
C27 0.071(6) 0.076(6) 0.057(5) -0.004(4) 0.001(4) 0.022(4)
C28 0.051(5) 0.090(6) 0.065(5) -0.044(4) 0.032(4) -0.037(4)
C29 0.055(5) 0.046(4) 0.043(4) 0.008(3) -0.003(3) -0.002(4)
C30 0.073(6) 0.075(6) 0.049(4) 0.006(4) 0.006(4) 0.012(4)
C31 0.061(5) 0.081(6) 0.068(5) -0.021(5) 0.014(4) -0.006(4)
C32 0.047(5) 0.083(6) 0.077(5) -0.047(5) 0.022(4) -0.011(4)
C33 0.056(5) 0.142(9) 0.059(5) -0.038(5) 0.027(4) -0.039(6)
C34 0.089(7) 0.098(7) 0.090(7) 0.049(6) -0.035(6) -0.039(6)
C35 0.083(7) 0.145(9) 0.070(6) -0.064(6) 0.048(5) -0.068(6)
C36 0.064(5) 0.049(4) 0.055(4) 0.008(3) -0.018(4) 0.001(4)
C37 0.057(5) 0.095(7) 0.081(6) 0.030(5) -0.004(5) 0.009(5)
C38 0.061(5) 0.091(7) 0.066(5) 0.010(5) 0.000(4) 0.005(5)
C39 0.086(7) 0.073(6) 0.079(6) 0.021(5) -0.024(5) 0.001(5)
C40 0.064(6) 0.088(6) 0.065(5) -0.026(5) 0.010(4) -0.002(5)
C41 0.061(5) 0.091(6) 0.053(5) -0.015(4) 0.001(4) 0.001(5)
C42 0.073(6) 0.051(5) 0.067(5) 0.011(4) -0.024(4) -0.007(4)
C43 0.057(5) 0.091(7) 0.086(6) 0.023(5) -0.002(5) 0.009(5)
C44 0.078(6) 0.080(6) 0.087(7) 0.026(5) -0.018(5) -0.018(5)
Mn1A 0.0331 0.04 0.0314 -0.0013 0.0064 -0.0009
Mn1B 0.0331 0.04 0.0314 0.0013 0.0064 0.0009
Mn1C 0.0331 0.04 0.0314 -0.0013 0.0064 -0.0009
Mn2A 0.0298 0.047 0.0396 0.0042 -0.0021 -0.0039
Mn2B 0.0298 0.047 0.0396 -0.0042 -0.0021 0.0039
Mn2C 0.0298 0.047 0.0396 0.0042 -0.0021 -0.0039
O1C 0.031 0.056 0.036 0.008 0.0021 0.002
O2C 0.038 0.043 0.039 0.015 0.0114 0.001
O3A 0.06 0.053 0.038 -0.011 0.011 -0.005
O3B 0.06 0.053 0.038 0.011 0.011 0.005
O4C 0.038 0.08 0.052 0.022 0.015 0.016
O7B 0.041 0.053 0.049 0.016 -0.001 -0.005
O8A 0.039 0.073 0.078 -0.029 -0.017 0.004
O9A 0.051 0.09 0.065 -0.022 -0.015 0.005
O11 0.086(6) 0.261(12) 0.069(5) -0.013(6) -0.008(4) 0.048(7)
N1 0.105(8) 0.201(12) 0.078(7) 0.012(7) -0.025(6) 0.019(8)
C45 0.145(13) 0.151(11) 0.055(6) 0.000(7) -0.011(7) 0.039(10)
C46 0.193(19) 0.27(3) 0.107(13) 0.013(13) -0.031(12) -0.009(16)
C47 0.100(12) 0.22(2) 0.200(18) 0.005(15) -0.016(11) 0.026(12)
O12 0.60(4) 0.068(9) 0.42(3) 0.039(11) -0.05(3) 0.003(13)
loop_
_geom_bond_atom_site_label_1
_geom_bond_atom_site_label_2
_geom_bond_site_symmetry_1
_geom_bond_site_symmetry_2
Mn1 O2 1_555 1_555
Mn2 O1 1_555 1_555
O1 C10 1_555 1_555
O2 C6 1_555 1_555
O3 C29 1_555 1_555
O4 C10 1_555 1_555
O5 Mn1 1_555 1_555
O6 Mn2 1_555 1_555
H1 O6 1_555 1_555
H2 O6 1_555 1_555
O7 C8 1_555 1_555
C1 C5 1_555 1_555
C2 C5 1_555 1_555
O8 C8 1_555 1_555
C3 C7 1_555 1_555
O9 C29 1_555 1_555
C4 C7 1_555 1_555
C5 C7 1_555 1_555
C6 O5 1_555 1_555
C8 C24 1_555 1_555
C9 C3 1_555 1_555
C10 C11 1_555 1_555
C11 C32 1_555 1_555
C12 C1 1_555 1_555
H3 C12 1_555 1_555
C13 C3 1_555 1_555
H4 C13 1_555 1_555
C14 C4 1_555 1_555
C15 C4 1_555 1_555
H5 C15 1_555 1_555
O10 Mn2 1_555 1_555
H6 O10 1_555 1_555
H7 O10 1_555 1_555
C16 H8 1_555 1_555
C17 C20 1_555 1_555
C18 C9 1_555 1_555
C19 C29 1_555 1_555
C20 C2 1_555 1_555
C21 C14 1_555 1_555
C22 H9 1_555 1_555
C23 C2 1_555 1_555
H10 C23 1_555 1_555
C24 C22 1_555 1_555
C25 C16 1_555 1_555
H11 C25 1_555 1_555
C26 C16 1_555 1_555
C27 C9 1_555 1_555
H12 C27 1_555 1_555
C28 C6 1_555 1_555
C30 C20 1_555 1_555
H13 C30 1_555 1_555
C31 C18 1_555 1_555
H14 C31 1_555 1_555
C32 C31 1_555 1_555
H15 C32 1_555 1_555
C33 C11 1_555 1_555
H16 C33 1_555 1_555
C34 C24 1_555 1_555
H17 C34 1_555 1_555
C35 C28 1_555 1_555
H18 C35 1_555 1_555
C36 C1 1_555 1_555
C37 C21 1_555 1_555
H19 C37 1_555 1_555
C38 C17 1_555 1_555
H20 C38 1_555 1_555
C39 C21 1_555 1_555
H21 C39 1_555 1_555
C40 C26 1_555 1_555
H22 C40 1_555 1_555
C41 C18 1_555 1_555
H23 C41 1_555 1_555
C42 C19 1_555 1_555
H24 C42 1_555 1_555
C43 C17 1_555 1_555
H25 C43 1_555 1_555
C44 C19 1_555 1_555
H26 C44 1_555 1_555
O11 C45 1_555 1_555
N1 C45 1_555 1_555
C45 H27 1_555 1_555
C46 N1 1_555 1_555
H28 C46 1_555 1_555
H29 C46 1_555 1_555
H30 C46 1_555 1_555
C47 N1 1_555 1_555
H31 C47 1_555 1_555
H32 C47 1_555 1_555
H33 C47 1_555 1_555
O12 H34 1_555 1_555
H35 O12 1_555 1_555
Mn1A O3 1_555 1_555
Mn1B O7 1_555 1_555
Mn1C O1 1_555 1_555
Mn2A O8 1_555 1_555
Mn2B O3 1_555 1_555
Mn2C O2 1_555 1_555
O1C Mn1 1_555 1_555
O2C Mn2 1_555 1_555
O3A Mn1 1_555 1_555
O3B Mn2 1_555 1_555
O4C Mn1 1_555 1_555
O7B Mn1 1_555 1_555
O8A Mn2 1_555 1_555
O9A Mn1 1_555 1_555
O4 Mn1C 1_555 1_555
O9 Mn1A 1_555 1_555
C12 C15 1_555 1_555
C13 C23 1_555 1_555
C14 C27 1_555 1_555
C22 C38 1_555 1_555
C25 C28 1_555 1_555
C26 C36 1_555 1_555
C30 C36 1_555 1_555
C33 C41 1_555 1_555
C34 C43 1_555 1_555
C35 C40 1_555 1_555
C37 C44 1_555 1_555
C39 C42 1_555 1_555
Mn2C O3A 1_555 1_555

#END
