
#######################################################################
#
#                 Cambridge Crystallographic Data Centre
#                                CCDC 
#
#######################################################################
#
# If this CIF has been generated from an entry in the Cambridge 
# Structural Database, then it will include bibliographic, chemical, 
# crystal, experimental, refinement or atomic coordinate data resulting 
# from the CCDC's data processing and validation procedures.
#
#######################################################################

data_ACUJOZ
_chemical_formula_moiety         '(C36 H24 Cr1 Cu3 O20)n'
_chemical_name_systematic        
"catena-(bis(trans-stilbene-3,3',5,5'-tetracarboxylato)-tetraaqua-tri-copper-chromium guest clathrate)"
_symmetry_cell_setting           rhombohedral
_symmetry_space_group_name_H-M   'R -3'
_symmetry_Int_Tables_number      148
_space_group_name_Hall           '-R 3'
loop_
_symmetry_equiv_pos_site_id
_symmetry_equiv_pos_as_xyz
1 x,y,z
2 -y,x-y,z
3 -x+y,-x,z
4 2/3+x,1/3+y,1/3+z
5 2/3-y,1/3+x-y,1/3+z
6 2/3-x+y,1/3-x,1/3+z
7 1/3+x,2/3+y,2/3+z
8 1/3-y,2/3+x-y,2/3+z
9 1/3-x+y,2/3-x,2/3+z
10 -x,-y,-z
11 y,-x+y,-z
12 x-y,x,-z
13 1/3-x,2/3-y,2/3-z
14 1/3+y,2/3-x+y,2/3-z
15 1/3+x-y,2/3+x,2/3-z
16 2/3-x,1/3-y,1/3-z
17 2/3+y,1/3-x+y,1/3-z
18 2/3+x-y,1/3+x,1/3-z
_cell_length_a                   46.582(7)
_cell_length_b                   46.582(7)
_cell_length_c                   21.332(4)
_cell_angle_alpha                90
_cell_angle_beta                 90
_cell_angle_gamma                120
_cell_volume                     40086.5
_exptl_crystal_colour            blue
_exptl_crystal_description       block
_cell_formula_units_Z            18
loop_
_atom_site_label
_atom_site_type_symbol
_atom_site_fract_x
_atom_site_fract_y
_atom_site_fract_z
C1 C 0.55290(14) 0.68252(17) 0.6710(4)
C2 C 0.54749(14) 0.70288(17) 0.6310(4)
C3 C 0.51671(14) 0.70090(19) 0.6297(5)
C4 C 0.49135(14) 0.6785(2) 0.6684(5)
C5 C 0.49676(14) 0.65818(19) 0.7084(5)
C6 C 0.52754(15) 0.66016(18) 0.7097(4)
C7 C 0.68182(18) 0.66721(15) 0.6922(4)
C8 C 0.65376(19) 0.64215(15) 0.7306(5)
C9 C 0.62673(18) 0.64524(14) 0.7265(4)
C10 C 0.62037(16) 0.66239(14) 0.6849(4)
C11 C 0.64830(15) 0.69444(14) 0.6536(3)
C12 C 0.67664(16) 0.68934(14) 0.6535(4)
C13 C 0.87726(17) 0.85035(15) 0.3074(5)
C14 C 0.87979(16) 0.82377(15) 0.3380(4)
C15 C 0.84853(18) 0.80165(15) 0.3736(5)
C16 C 0.82470(19) 0.80597(15) 0.3897(5)
C17 C 0.8148(2) 0.82310(14) 0.3415(6)
C18 C 0.84363(19) 0.84874(15) 0.3011(5)
C19 C 0.98947(14) 0.86405(18) 0.2803(4)
C20 C 1.01789(14) 0.86272(19) 0.2829(5)
C21 C 1.02143(14) 0.83913(18) 0.3212(5)
C22 C 0.99446(14) 0.81478(17) 0.3602(4)
C23 C 0.96580(14) 0.82181(17) 0.3738(4)
C24 C 0.96064(14) 0.84053(17) 0.3287(4)
Cu1 Cu 0.73586(7) 0.76497(7) 0.50402(13)
Cu2 Cu 0.76781(8) 0.73078(8) 0.52970(13)
Cu3 Cu 0.44447(8) 0.57730(8) 0.84541(16)
Cr1 Cr 1.07663(7) 0.94348(8) 0.15376(17)
O1 O 0.7045(4) 0.7352(4) 0.5752(6)
O2 O 0.9713(5) 0.7682(4) 0.4296(7)
O3 O 0.7317(3) 0.7067(3) 0.5946(7)
O4 O 1.0276(4) 0.7959(4) 0.4092(8)
O5 O 0.7102(8) 0.7931(8) 0.4875(7)
O6 O 0.4745(7) 0.5529(5) 0.8695(8)
C25 C 0.7006(8) 0.7137(9) 0.6136(13)
C26 C 0.9305(9) 0.8448(6) 0.312(2)
O7 O 1.0483(7) 0.9693(7) 0.1359(11)
C27 C 0.5888(6) 0.6894(11) 0.6620(14)
O8 O 0.7910(7) 0.6989(7) 0.5487(11)
C28 C 0.9984(8) 0.7897(7) 0.3981(14)
C29 C 0.5916(6) 0.6686(7) 0.6990(15)
C30 C 0.9119(9) 0.8238(5) 0.3499(14)
C31 C 0.4690(5) 0.6334(5) 0.7487(11)
O9 O 1.0764(4) 0.8867(7) 0.2339(11)
O10 O 1.0517(3) 0.9135(3) 0.2054(7)
C32 C 1.0468(6) 0.8904(6) 0.2512(12)
C33 C 0.8001(7) 0.7811(7) 0.4399(13)
C34 C 0.6537(6) 0.6178(6) 0.7773(11)
C35 C 0.8380(6) 0.8689(5) 0.2558(12)
O11 O 0.8650(3) 0.8916(4) 0.2240(5)
O12 O 0.8078(4) 0.8653(5) 0.2423(11)
O13 O 0.4753(3) 0.6126(3) 0.7795(6)
O14 O 0.4408(4) 0.6344(4) 0.7570(11)
O15 O 0.6866(6) 0.6228(3) 0.7800(9)
O16 O 0.6352(3) 0.5918(2) 0.8174(7)
O17 O 0.7740(3) 0.7892(7) 0.4448(10)
O18 O 0.7888(2) 0.7553(3) 0.4847(9)
C36 C 0.5149(7) 0.7271(5) 0.5893(12)
O19 O 0.5306(4) 0.7527(6) 0.5349(14)
O20 O 1.0522(6) 0.9106(5) 0.1117(10)
Cu1K Cu 0.97089(10) 0.73586(7) 0.49598(13)
Cu1E Cu 0.69578(10) 0.59747(7) 0.83735(13)
Cu2K Cu 1.03703(11) 0.76781(8) 0.47030(13)
Cu2E Cu 0.62964(11) 0.56552(8) 0.86303(13)
Cu3C Cu 1.11114(8) 0.91063(8) 0.17874(16)
Cu3E Cu 0.79950(11) 0.88886(8) 0.17874(16)
Cu3Q Cu 0.53384(11) 0.77780(8) 0.48792(16)
Cr1F Cr 0.40996(7) 0.61015(8) 0.82043(17)
Cr1B Cr 0.86685(11) 0.92337(7) 0.15376(17)
O2J O 0.7682(4) 0.7969(6) 0.5704(7)
O4J O 0.7959(4) 0.7683(6) 0.5908(8)
O9F O 0.4097(4) 0.5534(7) 0.9006(11)
O11A O 1.1084(4) 0.9734(5) 0.2240(5)
O12G O 0.4680(5) 0.6092(6) 0.9090(11)
O14C O 1.1075(4) 0.9677(4) 0.0903(11)
O15G O 0.7105(3) 0.7305(7) 0.4467(9)
O16G O 0.7415(2) 0.7101(4) 0.4841(7)
O19P O 0.4194(6) 0.5554(7) 0.7984(14)
loop_
_geom_bond_atom_site_label_1
_geom_bond_atom_site_label_2
_geom_bond_site_symmetry_1
_geom_bond_site_symmetry_2
C1 C2 1_555 1_555
C2 C3 1_555 1_555
C3 C4 1_555 1_555
C4 C5 1_555 1_555
C5 C6 1_555 1_555
C6 C1 1_555 1_555
C7 C8 1_555 1_555
C8 C9 1_555 1_555
C9 C10 1_555 1_555
C10 C11 1_555 1_555
C11 C12 1_555 1_555
C12 C7 1_555 1_555
C13 C14 1_555 1_555
C14 C15 1_555 1_555
C15 C16 1_555 1_555
C16 C17 1_555 1_555
C17 C18 1_555 1_555
C18 C13 1_555 1_555
C19 C20 1_555 1_555
C20 C21 1_555 1_555
C21 C22 1_555 1_555
C22 C23 1_555 1_555
C23 C24 1_555 1_555
C24 C19 1_555 1_555
Cu1 Cu2 1_555 1_555
Cu2 O3 1_555 1_555
Cu3 O6 1_555 1_555
Cr1 O7 1_555 1_555
O1 Cu1 1_555 1_555
O2 C28 1_555 1_555
O3 C25 1_555 1_555
O4 C28 1_555 1_555
O5 Cu1 1_555 1_555
C25 C12 1_555 1_555
C26 C24 1_555 1_555
C27 C1 1_555 1_555
O8 Cu2 1_555 1_555
C28 C22 1_555 1_555
C29 C10 1_555 1_555
C30 C14 1_555 1_555
C31 C5 1_555 1_555
O9 C32 1_555 1_555
O10 Cr1 1_555 1_555
C32 C20 1_555 1_555
C33 C16 1_555 1_555
C34 C8 1_555 1_555
C35 C18 1_555 1_555
O11 C35 1_555 1_555
O12 C35 1_555 1_555
O13 Cu3 1_555 1_555
O14 C31 1_555 1_555
O15 C34 1_555 1_555
O16 C34 1_555 1_555
O17 Cu1 1_555 1_555
O18 Cu2 1_555 1_555
C36 C3 1_555 1_555
O19 C36 1_555 1_555
O20 Cr1 1_555 1_555
Cu1K O2 1_555 1_555
Cu1E O15 1_555 1_555
Cu2K O4 1_555 1_555
Cu2E O16 1_555 1_555
Cu3C Cr1 1_555 1_555
Cu3E O12 1_555 1_555
Cu3Q O19 1_555 1_555
Cr1F Cu3 1_555 1_555
Cr1B O11 1_555 1_555
O2J Cu1 1_555 1_555
O4J Cu2 1_555 1_555
O9F Cu3 1_555 1_555
O11A Cr1 1_555 1_555
O12G Cu3 1_555 1_555
O14C Cr1 1_555 1_555
O15G Cu1 1_555 1_555
O16G Cu2 1_555 1_555
O19P Cu3 1_555 1_555
O1 C25 1_555 1_555
C26 C30 1_555 1_555
C27 C29 1_555 1_555
C31 O13 1_555 1_555
O9 Cu3C 1_555 1_555
O10 C32 1_555 1_555
C33 O17 1_555 1_555
C33 O18 1_555 1_555
O14 Cr1F 1_555 1_555
Cu1K Cu2K 1_555 1_555
Cu1E Cu2E 1_555 1_555
Cu3E Cr1B 1_555 1_555

#END
