
#######################################################################
#
#                 Cambridge Crystallographic Data Centre
#                                CCDC 
#
#######################################################################
#
# If this CIF has been generated from an entry in the Cambridge 
# Structural Database, then it will include bibliographic, chemical, 
# crystal, experimental, refinement or atomic coordinate data resulting 
# from the CCDC's data processing and validation procedures.
#
#######################################################################

data_WARQOX
_chemical_formula_moiety         '(C36 H26 N4 Ni2 O10)n,4n(H2 O1)'
_chemical_name_systematic        
"catena-(bis(\m~3~-2-(Pyridin-3-yl)terephthalato)-(\m~2~-4,4'-bipyridine)-diaqua-di-nickel tetrahydrate)"
_symmetry_cell_setting           monoclinic
_symmetry_space_group_name_H-M   'C 2/c'
_symmetry_Int_Tables_number      15
_space_group_name_Hall           '-C 2yc'
loop_
_symmetry_equiv_pos_site_id
_symmetry_equiv_pos_as_xyz
1 x,y,z
2 -x,y,1/2-z
3 1/2+x,1/2+y,z
4 1/2-x,1/2+y,1/2-z
5 -x,-y,-z
6 x,-y,1/2+z
7 1/2-x,1/2-y,-z
8 1/2+x,1/2-y,1/2+z
_cell_length_a                   17.5507(6)
_cell_length_b                   14.8203(5)
_cell_length_c                   16.0963(5)
_cell_angle_alpha                90
_cell_angle_beta                 108.9490(10)
_cell_angle_gamma                90
_cell_volume                     3959.87
_exptl_crystal_colour            green
_exptl_crystal_description       block
_cell_formula_units_Z            4
loop_
_atom_site_label
_atom_site_type_symbol
_atom_site_fract_x
_atom_site_fract_y
_atom_site_fract_z
Ni1 Ni 0.367139(18) 0.59269(2) -0.04411(2)
O1 O 0.47596(11) 0.59571(11) 0.06275(12)
O2 O 0.42985(11) 0.55157(13) -0.12706(13)
H1 H 0.3973 0.5416 -0.1783
H2 H 0.4561 0.5035 -0.1079
O3 O 0.44023(11) 0.71322(13) -0.02303(12)
O5 O 0.77200(11) 0.87152(13) 0.35266(11)
O7 O 0.79874(17) 0.9244(2) 0.23581(15)
N1 N 0.69842(14) 0.63624(15) 0.46304(15)
N2 N 0.32872(13) 0.46281(14) -0.03254(14)
C1 C 0.48856(15) 0.67631(17) 0.04338(17)
C2 C 0.55921(15) 0.72756(18) 0.10136(16)
C3 C 0.60083(16) 0.69437(18) 0.18471(18)
H3 H 0.5845 0.6402 0.2028
C4 C 0.66639(16) 0.74021(18) 0.24175(16)
C5 C 0.69086(16) 0.82134(18) 0.21339(17)
C6 C 0.64939(17) 0.85362(19) 0.12957(18)
H4 H 0.6662 0.9070 0.1105
C7 C 0.58366(16) 0.80806(19) 0.07399(17)
H5 H 0.5561 0.8313 0.0187
C8 C 0.70895(16) 0.69635(18) 0.32815(17)
C9 C 0.78931(18) 0.6706(2) 0.3534(2)
H6 H 0.8199 0.6816 0.3169
C10 C 0.82306(18) 0.6285(2) 0.4333(2)
H7 H 0.8768 0.6109 0.4514
C11 C 0.77654(18) 0.6127(2) 0.4861(2)
H8 H 0.8001 0.5845 0.5400
C12 C 0.66672(17) 0.67632(19) 0.38470(18)
H9 H 0.6124 0.6917 0.3672
C13 C 0.76041(17) 0.87653(19) 0.27136(18)
C14 C 0.3554(2) 0.4199(2) 0.0437(2)
H10 H 0.3957 0.4471 0.0894
C15 C 0.3267(2) 0.3372(2) 0.0589(2)
H11 H 0.3479 0.3099 0.1136
C16 C 0.26654(16) 0.29447(17) -0.00685(18)
C17 C 0.23933(19) 0.3392(2) -0.0866(2)
H12 H 0.1990 0.3136 -0.1333
C18 C 0.2716(2) 0.4213(2) -0.0969(2)
H13 H 0.2527 0.4493 -0.1515
Ni1G Ni -0.132861(18) 0.90731(2) -0.54411(2)
Ni1G_2 Ni 0.867139(18) 0.90731(2) 0.45589(2)
Ni1A Ni 0.632861(18) 0.59269(2) 0.54411(2)
Ni1F Ni 0.132861(18) -0.09269(2) 0.04411(2)
Ni1F_2 Ni 0.132861(18) 0.90731(2) 0.04411(2)
O1G O -0.02404(11) 0.90429(11) -0.43725(12)
O2G O -0.07015(11) 0.94843(13) -0.62706(13)
H1G H -0.1027 0.9584 -0.6783
H2G H -0.0439 0.9965 -0.6079
O3G O -0.05977(11) 0.78678(13) -0.52303(12)
O5G O 0.27200(11) 0.62848(13) -0.14734(11)
O5_2 O -0.22800(11) 0.87152(13) -0.64734(11)
O7G O 0.29874(17) 0.5756(2) -0.26419(15)
N1G N 0.19842(14) 0.86376(15) -0.03696(15)
N1A N 0.30158(14) 0.63624(15) 0.03696(15)
N1F N -0.19842(14) 0.86376(15) -0.46304(15)
N2F N 0.17128(13) 0.03719(14) 0.03254(14)
N2G N -0.17128(13) 1.03719(14) -0.53254(14)
C1G C -0.01144(15) 0.82369(17) -0.45662(17)
C2G C 0.05921(15) 0.77244(18) -0.39864(16)
C3G C 0.10083(16) 0.80563(18) -0.31529(18)
H3G H 0.0845 0.8598 -0.2972
C4G C 0.16639(16) 0.75979(18) -0.25825(16)
C5G C 0.19086(16) 0.67866(18) -0.28661(17)
C6G C 0.14939(17) 0.64638(19) -0.37043(18)
H4G H 0.1662 0.5930 -0.3895
C7G C 0.08366(16) 0.69194(19) -0.42601(17)
H5G H 0.0561 0.6687 -0.4813
C8G C 0.20895(16) 0.80365(18) -0.17185(17)
C9G C 0.28931(18) 0.8294(2) -0.1466(2)
H6G H 0.3199 0.8184 -0.1831
C10G C 0.32306(18) 0.8715(2) -0.0667(2)
H7G H 0.3768 0.8891 -0.0486
C11G C 0.27654(18) 0.8873(2) -0.0139(2)
H8G H 0.3001 0.9155 0.0400
C12G C 0.16672(17) 0.82368(19) -0.11530(18)
H9G H 0.1124 0.8083 -0.1328
C13G C 0.26041(17) 0.62347(19) -0.22864(18)
C14F C 0.1446(2) 0.0801(2) -0.0437(2)
H10F H 0.1043 0.0529 -0.0894
C15F C 0.1733(2) 0.1628(2) -0.0589(2)
H11F H 0.1521 0.1901 -0.1136
C16F C 0.23346(16) 0.20553(17) 0.00685(18)
C17F C 0.26067(19) 0.1608(2) 0.0866(2)
H12F H 0.3010 0.1864 0.1333
C18F C 0.2284(2) 0.0787(2) 0.0969(2)
H13F H 0.2473 0.0507 0.1515
O4 O 0.4505(6) 0.7361(7) 0.7931(6)
O6 O 0.5165(14) 0.9694(16) 0.8836(15)
O8? O 0.4808(7) 0.8017(8) 0.8305(7)
loop_
_geom_bond_atom_site_label_1
_geom_bond_atom_site_label_2
_geom_bond_site_symmetry_1
_geom_bond_site_symmetry_2
Ni1 O1 1_555 1_555
O1 C1 1_555 1_555
O2 Ni1 1_555 1_555
H1 O2 1_555 1_555
H2 O2 1_555 1_555
O3 Ni1 1_555 1_555
O5 C13 1_555 1_555
O7 C13 1_555 1_555
N1 C11 1_555 1_555
N2 Ni1 1_555 1_555
C1 O3 1_555 1_555
C2 C1 1_555 1_555
C3 C2 1_555 1_555
H3 C3 1_555 1_555
C4 C3 1_555 1_555
C5 C4 1_555 1_555
C6 C5 1_555 1_555
H4 C6 1_555 1_555
C7 C2 1_555 1_555
H5 C7 1_555 1_555
C8 C4 1_555 1_555
C9 C8 1_555 1_555
H6 C9 1_555 1_555
C10 C9 1_555 1_555
H7 C10 1_555 1_555
C11 C10 1_555 1_555
H8 C11 1_555 1_555
C12 N1 1_555 1_555
H9 C12 1_555 1_555
C13 C5 1_555 1_555
C14 N2 1_555 1_555
H10 C14 1_555 1_555
C15 C14 1_555 1_555
H11 C15 1_555 1_555
C16 C15 1_555 1_555
C17 C16 1_555 1_555
H12 C17 1_555 1_555
C18 N2 1_555 1_555
H13 C18 1_555 1_555
Ni1G O1G 1_555 1_555
Ni1G_2 O5 1_555 1_555
Ni1A N1 1_555 1_555
Ni1F N2F 1_555 1_555
Ni1F_2 N1G 1_555 1_555
O1G C1G 1_555 1_555
O2G Ni1G 1_555 1_555
H1G O2G 1_555 1_555
H2G O2G 1_555 1_555
O3G Ni1G 1_555 1_555
O5G Ni1 1_555 1_555
O5_2 Ni1G 1_555 1_555
O7G C13G 1_555 1_555
N1G C11G 1_555 1_555
N1A Ni1 1_555 1_555
N1F Ni1G 1_555 1_555
N2F C14F 1_555 1_555
N2G Ni1G 1_555 1_555
C1G O3G 1_555 1_555
C2G C1G 1_555 1_555
C3G C2G 1_555 1_555
H3G C3G 1_555 1_555
C4G C3G 1_555 1_555
C5G C4G 1_555 1_555
C6G C5G 1_555 1_555
H4G C6G 1_555 1_555
C7G C2G 1_555 1_555
H5G C7G 1_555 1_555
C8G C4G 1_555 1_555
C9G C8G 1_555 1_555
H6G C9G 1_555 1_555
C10G C9G 1_555 1_555
H7G C10G 1_555 1_555
C11G C10G 1_555 1_555
H8G C11G 1_555 1_555
C12G N1G 1_555 1_555
H9G C12G 1_555 1_555
C13G O5G 1_555 1_555
C14F H10F 1_555 1_555
C15F C14F 1_555 1_555
H11F C15F 1_555 1_555
C16F C16 1_555 1_555
C17F C16F 1_555 1_555
H12F C17F 1_555 1_555
C18F N2F 1_555 1_555
H13F C18F 1_555 1_555
C6 C7 1_555 1_555
C8 C12 1_555 1_555
C17 C18 1_555 1_555
C5G C13G 1_555 1_555
C6G C7G 1_555 1_555
C8G C12G 1_555 1_555
C15F C16F 1_555 1_555
C17F C18F 1_555 1_555

#END
