
#######################################################################
#
#                 Cambridge Crystallographic Data Centre
#                                CCDC 
#
#######################################################################
#
# If this CIF has been generated from an entry in the Cambridge 
# Structural Database, then it will include bibliographic, chemical, 
# crystal, experimental, refinement or atomic coordinate data resulting 
# from the CCDC's data processing and validation procedures.
#
#######################################################################

data_QIVBON
_chemical_formula_moiety         
'(C36 H36 Cd1 Fe1 N4 O6 S2)n,2n(C1 H4 O1),6n(H2 O1)'
_chemical_name_systematic        
"catena-((\m~2~-Ferrocene-1,1'-disulfonato)-bis(\m~2~-1,3-bis(4-pyridyl)propane)-cadmium(ii) methanol hexahydrate clathrate)"
_symmetry_cell_setting           triclinic
_symmetry_space_group_name_H-M   'P -1'
_symmetry_Int_Tables_number      2
_space_group_name_Hall           '-P 1'
loop_
_symmetry_equiv_pos_site_id
_symmetry_equiv_pos_as_xyz
1 x,y,z
2 -x,-y,-z
_cell_length_a                   11.257(2)
_cell_length_b                   11.830(2)
_cell_length_c                   10.914(2)
_cell_angle_alpha                111.80(3)
_cell_angle_beta                 107.36(3)
_cell_angle_gamma                110.67(3)
_cell_volume                     1097.53
_exptl_crystal_colour            red
_exptl_crystal_description       prismatic
_cell_formula_units_Z            1
_exptl_crystal_preparation       
'nanoporous; special adsorption properties with Cu and Pb salts'
loop_
_atom_site_label
_atom_site_type_symbol
_atom_site_fract_x
_atom_site_fract_y
_atom_site_fract_z
Cd1 Cd -0.5000 0.5000 0.5000
S1 S -0.69553(14) 0.28061(14) 0.07913(14)
N1 N -0.3130(5) 0.4534(5) 0.5028(5)
N2 N -0.4108(5) 0.6876(5) 0.4592(5)
O1 O -0.6393(4) 0.3236(4) 0.2380(4)
O2 O -0.7661(5) 0.3533(5) 0.0413(5)
O3 O -0.5847(4) 0.2902(5) 0.0342(5)
C1 C -0.8307(5) 0.0990(5) -0.0277(5)
C2 C -0.9659(6) 0.0305(7) -0.1628(6)
H1 H -1.0016 0.0768 -0.2093
C3 C -1.0395(6) -0.1188(6) -0.2167(7)
H2 H -1.1357 -0.1929 -0.3065
C4 C -0.9496(7) -0.1406(6) -0.1183(8)
H3 H -0.9729 -0.2324 -0.1276
C5 C -0.8200(6) -0.0052(6) -0.0004(7)
H4 H -0.7385 0.0118 0.0841
C6 C -0.2208(6) 0.4762(6) 0.6342(6)
H5 H -0.2222 0.5262 0.7221
C7 C -0.1266(6) 0.4293(6) 0.6431(6)
H6 H -0.0653 0.4478 0.7362
C8 C -0.1205(6) 0.3538(5) 0.5151(6)
C9 C -0.2113(6) 0.3343(6) 0.3803(6)
H7 H -0.2089 0.2877 0.2920
C10 C -0.3047(6) 0.3850(6) 0.3795(6)
H8 H -0.3648 0.3709 0.2888
C11 C -0.0251(6) 0.2905(6) 0.5216(8)
H9 H 0.0719 0.3624 0.6082
H10 H -0.0164 0.2626 0.4307
C12 C -0.0866(6) 0.1608(6) 0.5345(7)
H11 H -0.0204 0.1259 0.5414
H12 H -0.0919 0.1898 0.6273
C13 C -0.2358(7) 0.0415(7) 0.4024(8)
H13 H -0.2300 0.0100 0.3099
H14 H -0.3014 0.0772 0.3933
C14 C -0.4027(7) 0.8092(6) 0.5409(7)
H15 H -0.4351 0.8169 0.6109
C15 C -0.3473(7) 0.9249(6) 0.5246(7)
H16 H -0.3425 1.0087 0.5830
C16 C -0.2991(6) -0.0870(6) 0.4193(6)
C17 C -0.3090(6) -0.2144(6) 0.3362(6)
H17 H -0.2779 -0.2264 0.2648
C18 C -0.3643(6) 0.6784(6) 0.3596(6)
H18 H -0.3700 0.5936 0.3026
Fe1 Fe -1.0000 0.0000 0.0000
Cd1_2 Cd -0.5000 -0.5000 0.5000
Cd1_3 Cd -0.5000 1.5000 0.5000
Cd1_4 Cd -1.5000 -0.5000 -0.5000
S1A S -1.30447(14) -0.28061(14) -0.07913(14)
N1A N -0.6870(5) 0.5466(5) 0.4972(5)
N1_2 N -0.3130(5) 1.4534(5) 0.5028(5)
N2A N -0.5892(5) 0.3124(5) 0.5408(5)
N2_2 N -0.4108(5) -0.3124(5) 0.4592(5)
O1A O -0.3607(4) 0.6764(4) 0.7620(4)
O1A_2 O -1.3607(4) -0.3236(4) -0.2380(4)
O2A O -1.2339(5) -0.3533(5) -0.0413(5)
O3A O -1.4153(4) -0.2902(5) -0.0342(5)
C1A C -1.1693(5) -0.0990(5) 0.0277(5)
C2A C -1.0341(6) -0.0305(7) 0.1628(6)
H1A H -0.9984 -0.0768 0.2093
C3A C -0.9605(6) 0.1188(6) 0.2167(7)
H2A H -0.8643 0.1929 0.3065
C4A C -1.0504(7) 0.1406(6) 0.1183(8)
H3A H -1.0271 0.2324 0.1276
C5A C -1.1800(6) 0.0052(6) 0.0004(7)
H4A H -1.2615 -0.0118 -0.0841
C6_2 C -0.2208(6) 1.4762(6) 0.6342(6)
H5_2 H -0.2222 1.5262 0.7221
C7_2 C -0.1266(6) 1.4293(6) 0.6431(6)
H6_2 H -0.0653 1.4478 0.7362
C8_2 C -0.1205(6) 1.3538(5) 0.5151(6)
C9_2 C -0.2113(6) 1.3343(6) 0.3803(6)
H7_2 H -0.2089 1.2877 0.2920
C10_2 C -0.3047(6) 1.3850(6) 0.3795(6)
H8_2 H -0.3648 1.3709 0.2888
C11_2 C -0.0251(6) 1.2905(6) 0.5216(8)
H9_2 H 0.0719 1.3624 0.6082
H10_2 H -0.0164 1.2626 0.4307
C12_2 C -0.0866(6) 1.1608(6) 0.5345(7)
H11_2 H -0.0204 1.1259 0.5414
H12_2 H -0.0919 1.1898 0.6273
C13_2 C -0.2358(7) 1.0415(7) 0.4024(8)
H13_2 H -0.2300 1.0100 0.3099
H14_2 H -0.3014 1.0772 0.3933
C14_2 C -0.4027(7) -0.1908(6) 0.5409(7)
H15_2 H -0.4351 -0.1831 0.6109
C15_2 C -0.3473(7) -0.0751(6) 0.5246(7)
H16_2 H -0.3425 0.0087 0.5830
C16_2 C -0.2991(6) 0.9130(6) 0.4193(6)
C17_2 C -0.3090(6) 0.7856(6) 0.3362(6)
H17_2 H -0.2779 0.7736 0.2648
C18_2 C -0.3643(6) -0.3216(6) 0.3596(6)
H18_2 H -0.3700 -0.4064 0.3026
O4 O -1.0270(9) 0.3582(10) -0.0611(10)
O5 O -0.4789(12) 0.0884(12) -0.0429(13)
O6 O -0.3154(7) 0.4675(9) 0.0715(10)
O7 O -0.314(2) 0.202(2) -0.150(2)
C19 C -0.233(4) 0.284(3) 0.014(3)
loop_
_geom_bond_atom_site_label_1
_geom_bond_atom_site_label_2
_geom_bond_site_symmetry_1
_geom_bond_site_symmetry_2
Cd1 N1 1_555 1_555
S1 O1 1_555 1_555
N1 C6 1_555 1_555
N2 Cd1 1_555 1_555
O1 Cd1 1_555 1_555
O2 S1 1_555 1_555
O3 S1 1_555 1_555
O7 C19 1_555 1_555
C1 S1 1_555 1_555
C2 C1 1_555 1_555
H1 C2 1_555 1_555
C3 C2 1_555 1_555
H2 C3 1_555 1_555
C4 C3 1_555 1_555
H3 C4 1_555 1_555
C5 C1 1_555 1_555
H4 C5 1_555 1_555
C6 H5 1_555 1_555
C7 C6 1_555 1_555
H6 C7 1_555 1_555
C8 C7 1_555 1_555
C9 C8 1_555 1_555
H7 C9 1_555 1_555
C10 N1 1_555 1_555
H8 C10 1_555 1_555
C11 C8 1_555 1_555
H9 C11 1_555 1_555
H10 C11 1_555 1_555
C12 C11 1_555 1_555
H11 C12 1_555 1_555
H12 C12 1_555 1_555
C13 C12 1_555 1_555
H13 C13 1_555 1_555
H14 C13 1_555 1_555
C14 N2 1_555 1_555
H15 C14 1_555 1_555
C15 C14 1_555 1_555
H16 C15 1_555 1_555
C16 C13 1_555 1_555
C17 C16 1_555 1_555
H17 C17 1_555 1_555
C18 N2 1_555 1_555
H18 C18 1_555 1_555
Fe1 C1 1_555 1_555
Cd1_2 N2_2 1_555 1_555
Cd1_3 N1_2 1_555 1_555
Cd1_4 O1A_2 1_555 1_555
S1A O1A_2 1_555 1_555
N1A Cd1 1_555 1_555
N1_2 C6_2 1_555 1_555
N2A Cd1 1_555 1_555
N2_2 C14_2 1_555 1_555
O1A Cd1 1_555 1_555
O2A S1A 1_555 1_555
O3A S1A 1_555 1_555
C1A Fe1 1_555 1_555
C2A Fe1 1_555 1_555
H1A C2A 1_555 1_555
C3A Fe1 1_555 1_555
H2A C3A 1_555 1_555
C4A Fe1 1_555 1_555
H3A C4A 1_555 1_555
C5A Fe1 1_555 1_555
H4A C5A 1_555 1_555
C6_2 H5_2 1_555 1_555
C7_2 C6_2 1_555 1_555
H6_2 C7_2 1_555 1_555
C8_2 C7_2 1_555 1_555
C9_2 C8_2 1_555 1_555
H7_2 C9_2 1_555 1_555
C10_2 N1_2 1_555 1_555
H8_2 C10_2 1_555 1_555
C11_2 C8_2 1_555 1_555
H9_2 C11_2 1_555 1_555
H10_2 C11_2 1_555 1_555
C12_2 C11_2 1_555 1_555
H11_2 C12_2 1_555 1_555
H12_2 C12_2 1_555 1_555
C13_2 C12_2 1_555 1_555
H13_2 C13_2 1_555 1_555
H14_2 C13_2 1_555 1_555
C14_2 H15_2 1_555 1_555
C15_2 C16 1_555 1_555
H16_2 C15_2 1_555 1_555
C16_2 C15 1_555 1_555
C17_2 C18 1_555 1_555
H17_2 C17_2 1_555 1_555
C18_2 C17 1_555 1_555
H18_2 C18_2 1_555 1_555
C2 Fe1 1_555 1_555
C3 Fe1 1_555 1_555
C4 C5 1_555 1_555
C4 Fe1 1_555 1_555
C5 Fe1 1_555 1_555
C9 C10 1_555 1_555
S1A C1A 1_555 1_555
N2_2 C18_2 1_555 1_555
C1A C2A 1_555 1_555
C1A C5A 1_555 1_555
C2A C3A 1_555 1_555
C3A C4A 1_555 1_555
C4A C5A 1_555 1_555
C9_2 C10_2 1_555 1_555
C13_2 C16_2 1_555 1_555
C14_2 C15_2 1_555 1_555
C16_2 C17_2 1_555 1_555

#END
