
#######################################################################
#
#                 Cambridge Crystallographic Data Centre
#                                CCDC 
#
#######################################################################
#
# If this CIF has been generated from an entry in the Cambridge 
# Structural Database, then it will include bibliographic, chemical, 
# crystal, experimental, refinement or atomic coordinate data resulting 
# from the CCDC's data processing and validation procedures.
#
#######################################################################

data_JOGBAK
_chemical_formula_moiety         '(C23 H18 N2 O5 Zn1)n'
_chemical_name_systematic        
"catena-[(\m~3~-4,4'-(5,6-Dimethyl-1H-benzimidazole-4,7-diyl)dibenzoato)-aqua-zinc(ii) unknown solvate]"
_symmetry_cell_setting           orthorhombic
_symmetry_space_group_name_H-M   'P 21 21 21'
_symmetry_Int_Tables_number      19
_space_group_name_Hall           'P 2ac 2ab'
loop_
_symmetry_equiv_pos_site_id
_symmetry_equiv_pos_as_xyz
1 x,y,z
2 1/2-x,-y,1/2+z
3 -x,1/2+y,1/2-z
4 1/2+x,1/2-y,-z
_cell_length_a                   6.215(2)
_cell_length_b                   20.656(8)
_cell_length_c                   25.022(10)
_cell_angle_alpha                90
_cell_angle_beta                 90
_cell_angle_gamma                90
_cell_volume                     3212.25
_cell_formula_units_Z            4
loop_
_atom_site_label
_atom_site_type_symbol
_atom_site_fract_x
_atom_site_fract_y
_atom_site_fract_z
_atom_site_U_iso_or_equiv
_atom_site_thermal_displace_type
Zn1 Zn 0.13148(17) 0.80710(5) 1.13430(3) 0.0384 Uani
N1 N 0.7534(11) 0.6053(3) 0.8552(2) 0.0377 Uani
N2 N 0.9390(12) 0.5307(4) 0.8094(3) 0.0463 Uani
H1 H 1.0141 0.5131 0.7845 0.0550 Uiso
O1 O 0.1559(10) 0.7430(3) 1.07543(19) 0.0373 Uani
O2 O -0.1879(8) 0.8107(3) 1.15584(19) 0.0423 Uani
H2 H -0.1375 0.7829 1.1341 0.0510 Uiso
H3 H -0.1321 0.8299 1.1292 0.0510 Uiso
O3 O 0.4837(11) 0.7723(3) 1.0952(2) 0.0553 Uani
O4 O 1.5800(16) 0.2634(6) 0.7386(4) 0.1497 Uani
O5 O 1.2683(11) 0.2364(3) 0.7012(2) 0.0553 Uani
C1 C 0.3688(19) 0.7386(4) 1.0703(3) 0.0407 Uani
C2 C 0.4438(13) 0.6888(4) 1.0339(3) 0.0310 Uani
C3 C 0.3255(18) 0.6601(4) 0.9955(3) 0.0483 Uani
H4 H 0.1851 0.6745 0.9906 0.0580 Uiso
C4 C 0.398(2) 0.6110(5) 0.9632(3) 0.0733 Uani
H5 H 0.3108 0.5922 0.9374 0.0880 Uiso
C5 C 0.616(2) 0.5902(5) 0.9712(4) 0.0687 Uani
C6 C 0.7430(19) 0.6164(6) 1.0096(4) 0.0630 Uani
H6 H 0.8803 0.6005 1.0164 0.0760 Uiso
C7 C 0.6568(17) 0.6694(4) 1.0392(3) 0.0520 Uani
H7 H 0.7458 0.6916 1.0628 0.0630 Uiso
C8 C 0.700(2) 0.5378(7) 0.9390(5) 0.1147 Uani
C9 C 0.748(2) 0.4747(6) 0.9570(4) 0.1027 Uani
C10 C 0.866(3) 0.4268(5) 0.9249(4) 0.1027 Uani
C11 C 0.929(2) 0.4382(6) 0.8747(4) 0.0873 Uani
C12 C 0.880(3) 0.5030(6) 0.8565(4) 0.1027 Uani
C13 C 0.775(2) 0.5520(6) 0.8852(4) 0.1027 Uani
C14 C 0.615(6) 0.4453(9) 1.0084(9) 0.1320 Uani
H8 H 0.4730 0.4328 0.9971 0.1980 Uiso
H9 H 0.6038 0.4778 1.0357 0.1980 Uiso
H10 H 0.6891 0.4082 1.0223 0.1980 Uiso
C15 C 0.838(6) 0.3474(7) 0.9349(9) 0.1320 Uani
H11 H 0.7074 0.3327 0.9183 0.1980 Uiso
H12 H 0.8320 0.3387 0.9725 0.1980 Uiso
H13 H 0.9583 0.3250 0.9195 0.1980 Uiso
C16 C 0.8579(18) 0.5904(5) 0.8094(3) 0.0480 Uani
H14 H 0.8717 0.6189 0.7808 0.0580 Uiso
C17 C 1.047(2) 0.3959(5) 0.8398(5) 0.0737 Uani
C18 C 1.248(2) 0.3775(7) 0.8516(5) 0.1113 Uani
H15 H 1.3135 0.3918 0.8829 0.1340 Uiso
C19 C 1.362(3) 0.3359(6) 0.8163(5) 0.1113 Uani
H16 H 1.5054 0.3260 0.8236 0.1340 Uiso
C20 C 1.2698(17) 0.3110(5) 0.7732(3) 0.0527 Uani
C21 C 1.060(2) 0.3220(7) 0.7641(5) 0.1113 Uani
H17 H 0.9863 0.2986 0.7382 0.1340 Uiso
C22 C 0.954(2) 0.3698(7) 0.7949(5) 0.1113 Uani
H18 H 0.8186 0.3839 0.7845 0.1340 Uiso
C23 C 1.389(2) 0.2649(5) 0.7347(4) 0.0560 Uani
Zn1A Zn 1.36852(17) 0.19290(5) 0.63430(3) 0.0384 Uani
Zn1C Zn 0.63148(17) 0.69290(5) 0.86570(3) 0.0384 Uani
N1C N 0.2534(11) 0.8947(3) 1.1448(2) 0.0377 Uani
O5A O 0.2317(11) 0.7636(3) 1.2012(2) 0.0553 Uani
C24? C 0.783(9) 0.4708(18) 1.0229(8) 0.1320 Uani
H19? H 0.9246 0.4855 1.0318 0.1980 Uiso
H20? H 0.7648 0.4269 1.0346 0.1980 Uiso
H21? H 0.6781 0.4978 1.0402 0.1980 Uiso
C25? C 1.016(6) 0.3752(17) 0.9598(12) 0.1320 Uani
H22? H 1.1372 0.3976 0.9746 0.1980 Uiso
H23? H 1.0650 0.3411 0.9368 0.1980 Uiso
H24? H 0.9313 0.3571 0.9883 0.1980 Uiso
loop_
_atom_site_aniso_label
_atom_site_aniso_U_11
_atom_site_aniso_U_22
_atom_site_aniso_U_33
_atom_site_aniso_U_23
_atom_site_aniso_U_13
_atom_site_aniso_U_12
Zn1 0.0375(6) 0.0419(6) 0.0359(4) -0.0031(5) -0.0012(5) 0.0023(6)
N1 0.037(4) 0.042(5) 0.034(4) -0.002(3) 0.011(3) -0.006(4)
N2 0.039(6) 0.041(5) 0.059(5) -0.027(4) 0.004(4) -0.002(4)
O1 0.027(4) 0.046(4) 0.039(3) -0.004(2) 0.003(3) -0.008(4)
O2 0.031(4) 0.046(3) 0.050(3) -0.012(3) 0.007(2) 0.020(3)
O3 0.040(4) 0.070(5) 0.056(4) -0.029(4) -0.002(3) 0.000(4)
O4 0.059(7) 0.267(14) 0.123(8) -0.121(8) 0.002(6) -0.014(8)
O5 0.050(4) 0.068(5) 0.048(4) -0.023(3) 0.004(3) -0.006(4)
C1 0.046(6) 0.048(6) 0.028(4) 0.008(4) -0.002(5) 0.011(7)
C2 0.027(5) 0.037(5) 0.029(4) 0.012(4) 0.005(3) 0.017(5)
C3 0.069(9) 0.047(6) 0.029(5) 0.014(4) 0.002(5) 0.020(6)
C4 0.132(12) 0.054(7) 0.034(5) -0.009(4) 0.018(7) 0.041(9)
C5 0.094(10) 0.046(6) 0.066(7) 0.034(5) 0.064(8) 0.034(8)
C6 0.050(7) 0.077(9) 0.062(7) 0.002(6) 0.014(6) 0.009(7)
C7 0.045(7) 0.063(7) 0.048(5) 0.013(4) 0.023(5) 0.023(6)
C8 0.146(15) 0.094(10) 0.104(9) 0.029(8) 0.093(10) 0.071(10)
C9 0.166(7) 0.070(4) 0.072(4) 0.008(3) 0.067(4) 0.029(5)
C10 0.166(7) 0.070(4) 0.072(4) 0.008(3) 0.067(4) 0.029(5)
C11 0.115(12) 0.081(8) 0.066(7) 0.007(6) 0.040(7) 0.022(8)
C12 0.166(7) 0.070(4) 0.072(4) 0.008(3) 0.067(4) 0.029(5)
C13 0.166(7) 0.070(4) 0.072(4) 0.008(3) 0.067(4) 0.029(5)
C14 0.25(3) 0.048(10) 0.098(11) 0.005(7) 0.090(15) 0.012(11)
C15 0.25(3) 0.048(10) 0.098(11) 0.005(7) 0.090(15) 0.012(11)
C16 0.053(6) 0.055(6) 0.036(4) -0.016(4) -0.014(5) 0.011(7)
C17 0.075(10) 0.064(8) 0.082(8) 0.023(6) 0.047(7) 0.022(7)
C18 0.098(6) 0.138(7) 0.098(5) -0.068(4) -0.015(4) 0.045(5)
C19 0.098(6) 0.138(7) 0.098(5) -0.068(4) -0.015(4) 0.045(5)
C20 0.063(7) 0.046(6) 0.049(5) -0.009(5) 0.006(5) -0.028(7)
C21 0.098(6) 0.138(7) 0.098(5) -0.068(4) -0.015(4) 0.045(5)
C22 0.098(6) 0.138(7) 0.098(5) -0.068(4) -0.015(4) 0.045(5)
C23 0.044(7) 0.067(7) 0.057(6) -0.032(5) 0.021(6) -0.018(7)
Zn1A 0.0375 0.0419 0.0359 0.0031 0.0012 0.0023
Zn1C 0.0375 0.0419 0.0359 -0.0031 0.0012 -0.0023
N1C 0.037 0.042 0.034 -0.002 -0.011 0.006
O5A 0.05 0.068 0.048 0.023 -0.004 -0.006
C24? 0.25(3) 0.048(10) 0.098(11) 0.005(7) 0.090(15) 0.012(11)
C25? 0.25(3) 0.048(10) 0.098(11) 0.005(7) 0.090(15) 0.012(11)
loop_
_geom_bond_atom_site_label_1
_geom_bond_atom_site_label_2
_geom_bond_site_symmetry_1
_geom_bond_site_symmetry_2
Zn1 O1 1_555 1_555
N1 C13 1_555 1_555
N2 H1 1_555 1_555
O1 C1 1_555 1_555
O2 Zn1 1_555 1_555
H2 O2 1_555 1_555
H3 O2 1_555 1_555
O3 Zn1 1_555 1_555
O4 C23 1_555 1_555
O5 C23 1_555 1_555
C1 O3 1_555 1_555
C2 C1 1_555 1_555
C3 C2 1_555 1_555
H4 C3 1_555 1_555
C4 C3 1_555 1_555
H5 C4 1_555 1_555
C5 C4 1_555 1_555
C6 C5 1_555 1_555
H6 C6 1_555 1_555
C7 C2 1_555 1_555
H7 C7 1_555 1_555
C8 C5 1_555 1_555
C9 C8 1_555 1_555
C10 C9 1_555 1_555
C11 C10 1_555 1_555
C12 N2 1_555 1_555
C13 C8 1_555 1_555
C14 C9 1_555 1_555
H8 C14 1_555 1_555
H9 C14 1_555 1_555
H10 C14 1_555 1_555
C15 C10 1_555 1_555
H11 C15 1_555 1_555
H12 C15 1_555 1_555
H13 C15 1_555 1_555
C16 N1 1_555 1_555
H14 C16 1_555 1_555
C17 C11 1_555 1_555
C18 C17 1_555 1_555
H15 C18 1_555 1_555
C19 C18 1_555 1_555
H16 C19 1_555 1_555
C20 C19 1_555 1_555
C21 C20 1_555 1_555
H17 C21 1_555 1_555
C22 C17 1_555 1_555
H18 C22 1_555 1_555
C23 C20 1_555 1_555
Zn1A O5 1_555 1_555
Zn1C N1 1_555 1_555
N1C Zn1 1_555 1_555
O5A Zn1 1_555 1_555
N2 C16 1_555 1_555
C6 C7 1_555 1_555
C11 C12 1_555 1_555
C12 C13 1_555 1_555
C21 C22 1_555 1_555

#END
