
#######################################################################
#
#                 Cambridge Crystallographic Data Centre
#                                CCDC 
#
#######################################################################
#
# If this CIF has been generated from an entry in the Cambridge 
# Structural Database, then it will include bibliographic, chemical, 
# crystal, experimental, refinement or atomic coordinate data resulting 
# from the CCDC's data processing and validation procedures.
#
#######################################################################

data_XUNGOD
_chemical_formula_moiety         '(C24 H16 Li4 N4 O8)n,2n(C4 H9 N1 O1)'
_chemical_name_systematic        
'catena-(tetrakis(\m~4~-Isonicotinato)-tetra-lithium morpholine solvate)'
_symmetry_cell_setting           triclinic
_symmetry_space_group_name_H-M   'P -1'
_symmetry_Int_Tables_number      2
_space_group_name_Hall           '-P 1'
loop_
_symmetry_equiv_pos_site_id
_symmetry_equiv_pos_as_xyz
1 x,y,z
2 -x,-y,-z
_cell_length_a                   5.3968(3)
_cell_length_b                   11.4886(9)
_cell_length_c                   13.4233(9)
_cell_angle_alpha                90.670(6)
_cell_angle_beta                 94.900(5)
_cell_angle_gamma                91.238(6)
_cell_volume                     828.955
_exptl_crystal_colour            colorless
_exptl_crystal_description       rod
_cell_formula_units_Z            1
loop_
_atom_site_label
_atom_site_type_symbol
_atom_site_fract_x
_atom_site_fract_y
_atom_site_fract_z
C13 C 0.3326(11) 1.0923(6) 0.4869(5)
C14 C 0.5661(11) 1.0840(6) 0.4319(4)
N3 N 0.3618(7) 1.0350(4) 0.5819(3)
H9 H 0.195(8) 1.057(5) 0.447(4)
H10 H 0.304(12) 1.172(2) 0.501(5)
H11 H 0.542(12) 1.118(5) 0.367(3)
H12 H 0.694(9) 1.126(5) 0.473(4)
C13A C 0.6674(11) 0.9077(6) 0.5131(5)
C14A C 0.4339(11) 0.9160(6) 0.5681(4)
N3A N 0.6382(7) 0.9650(4) 0.4181(3)
H9A H 0.805(8) 0.943(5) 0.553(4)
H10A H 0.696(12) 0.828(2) 0.499(5)
H11A H 0.458(12) 0.882(5) 0.633(3)
H12A H 0.306(9) 0.874(5) 0.527(4)
Li1 Li 0.3127(14) 1.0121(7) 0.0650(5)
C1 C 0.1754(8) 0.6261(4) 0.3975(3)
C2 C 0.2272(8) 0.7176(4) 0.3208(3)
C3 C 0.0681(9) 0.8097(4) 0.3073(4)
H1 H -0.0679 0.8155 0.3450
C4 C 0.1121(9) 0.8925(4) 0.2378(4)
H2 H 0.0050 0.9548 0.2312
C5 C 0.4537(9) 0.8001(4) 0.1930(4)
H3 H 0.5869 0.7957 0.1536
C6 C 0.4263(9) 0.7138(4) 0.2627(4)
H4 H 0.5402 0.6542 0.2703
C7 C -0.1658(8) 1.1294(4) 0.1030(3)
C8 C -0.2127(8) 1.2174(4) 0.1842(3)
C9 C -0.4293(8) 1.2805(4) 0.1821(4)
H5 H -0.5573 1.2666 0.1322
C10 C -0.4515(9) 1.3638(4) 0.2549(4)
H6 H -0.5955 1.4071 0.2514
C11 C -0.0721(9) 1.3229(4) 0.3332(4)
H7 H 0.0496 1.3355 0.3858
C12 C -0.0319(8) 1.2403(4) 0.2620(3)
H8 H 0.1160 1.1998 0.2659
O1 O -0.0382(6) 0.6202(3) 0.4247(2)
O2 O 0.3537(6) 0.5625(3) 0.4289(2)
O3 O 0.0540(5) 1.1124(3) 0.0885(2)
O4 O -0.3533(5) 1.0797(3) 0.0571(2)
Li2 Li -0.3057(14) 0.5139(7) 0.4403(6)
N1 N 0.3001(7) 0.8891(3) 0.1789(3)
N2 N -0.2785(7) 1.3866(4) 0.3308(3)
Li1_2 Li 1.3127(14) 1.0121(7) 0.0650(5)
Li1_3 Li -0.6873(14) 1.0121(7) 0.0650(5)
Li1A Li -0.3127(14) 0.9879(7) -0.0650(5)
Li1A_2 Li 0.6873(14) 0.9879(7) -0.0650(5)
C1_2 C -0.8246(8) 0.6261(4) 0.3975(3)
C2_2 C -0.7728(8) 0.7176(4) 0.3208(3)
C3_2 C -0.9319(9) 0.8097(4) 0.3073(4)
H1_2 H -1.0679 0.8155 0.3450
C4_2 C -0.8879(9) 0.8925(4) 0.2378(4)
H2_2 H -0.9950 0.9548 0.2312
C5_2 C -0.5463(9) 0.8001(4) 0.1930(4)
H3_2 H -0.4131 0.7957 0.1536
C6_2 C -0.5737(9) 0.7138(4) 0.2627(4)
H4_2 H -0.4598 0.6542 0.2703
C7_2 C 0.8342(8) 1.1294(4) 0.1030(3)
C8_2 C 0.7873(8) 1.2174(4) 0.1842(3)
C9_2 C 0.5707(8) 1.2805(4) 0.1821(4)
H5_2 H 0.4427 1.2666 0.1322
C10_2 C 0.5485(9) 1.3638(4) 0.2549(4)
H6_2 H 0.4045 1.4071 0.2514
C11_2 C 0.9279(9) 1.3229(4) 0.3332(4)
H7_2 H 1.0496 1.3355 0.3858
C12_2 C 0.9681(8) 1.2403(4) 0.2620(3)
H8_2 H 1.1160 1.1998 0.2659
O1_2 O -1.0382(6) 0.6202(3) 0.4247(2)
O1_3 O 0.9618(6) 0.6202(3) 0.4247(2)
O2_2 O -0.6463(6) 0.5625(3) 0.4289(2)
O2A O -0.3537(6) 0.4375(3) 0.5711(2)
O2A_2 O 0.6463(6) 0.4375(3) 0.5711(2)
O3_2 O 1.0540(5) 1.1124(3) 0.0885(2)
O4_2 O 0.6467(5) 1.0797(3) 0.0571(2)
O4A O 0.3533(5) 0.9203(3) -0.0571(2)
O4_3 O 1.6467(5) 1.0797(3) 0.0571(2)
O4A_2 O 1.3533(5) 0.9203(3) -0.0571(2)
Li2_2 Li 0.6943(14) 0.5139(7) 0.4403(6)
Li2A Li 0.3057(14) 0.4861(7) 0.5597(6)
Li2_3 Li -0.3057(14) 1.5139(7) 0.4403(6)
Li2_4 Li 0.6943(14) 1.5139(7) 0.4403(6)
Li2_5 Li -1.3057(14) 0.5139(7) 0.4403(6)
Li2A_2 Li -0.6943(14) 0.4861(7) 0.5597(6)
N1_2 N -0.6999(7) 0.8891(3) 0.1789(3)
N1_3 N 1.3001(7) 0.8891(3) 0.1789(3)
N2_2 N 0.7215(7) 1.3866(4) 0.3308(3)
N2_3 N -0.2785(7) 0.3866(4) 0.3308(3)
N2_4 N 0.7215(7) 0.3866(4) 0.3308(3)
O5? O 0.3618(7) 1.0350(4) 0.5819(3)
C15? C 0.0004(18) 0.3825(7) -0.0279(7)
C16? C 0.797(3) 0.5287(13) 0.0533(14)
C17? C 0.898(2) 0.5740(12) -0.0752(10)
C18? C 0.7712(19) 0.4409(9) -0.0230(8)
C19? C 0.047(4) 0.4735(14) -0.0972(11)
loop_
_geom_bond_atom_site_label_1
_geom_bond_atom_site_label_2
_geom_bond_site_symmetry_1
_geom_bond_site_symmetry_2
Li1 O3 1_555 1_555
C1 C2 1_555 1_555
C2 C3 1_555 1_555
C3 H1 1_555 1_555
C4 C3 1_555 1_555
H2 C4 1_555 1_555
C5 H3 1_555 1_555
C6 C2 1_555 1_555
H4 C6 1_555 1_555
C7 C8 1_555 1_555
C8 C9 1_555 1_555
C9 H5 1_555 1_555
C10 C9 1_555 1_555
H6 C10 1_555 1_555
C11 H7 1_555 1_555
C12 C8 1_555 1_555
H8 C12 1_555 1_555
O1 C1 1_555 1_555
O2 C1 1_555 1_555
O3 C7 1_555 1_555
O4 C7 1_555 1_555
Li2 O1 1_555 1_555
N1 Li1 1_555 1_555
N2 C10 1_555 1_555
C13 C14 1_555 1_555
C14 H11 1_555 1_555
N3 C13 1_555 1_555
H9 C13 1_555 1_555
H10 C13 1_555 1_555
H12 C14 1_555 1_555
Li1_2 O3_2 1_555 1_555
Li1_3 O4 1_555 1_555
Li1A O4 1_555 1_555
Li1A_2 O4_2 1_555 1_555
C1_2 C2_2 1_555 1_555
C2_2 C3_2 1_555 1_555
C3_2 H1_2 1_555 1_555
C4_2 C3_2 1_555 1_555
H2_2 C4_2 1_555 1_555
C5_2 H3_2 1_555 1_555
C6_2 C2_2 1_555 1_555
H4_2 C6_2 1_555 1_555
C7_2 C8_2 1_555 1_555
C8_2 C9_2 1_555 1_555
C9_2 H5_2 1_555 1_555
C10_2 C9_2 1_555 1_555
H6_2 C10_2 1_555 1_555
C11_2 H7_2 1_555 1_555
C12_2 C8_2 1_555 1_555
H8_2 C12_2 1_555 1_555
O1_2 C1_2 1_555 1_555
O1_3 Li2_2 1_555 1_555
O2_2 Li2 1_555 1_555
O2A Li2 1_555 1_555
O2A_2 Li2_2 1_555 1_555
O3_2 C7_2 1_555 1_555
O4_2 Li1 1_555 1_555
O4A Li1 1_555 1_555
O4_3 Li1_2 1_555 1_555
O4A_2 Li1_2 1_555 1_555
Li2_2 O2 1_555 1_555
Li2A O2 1_555 1_555
Li2_3 N2 1_555 1_555
Li2_4 N2_2 1_555 1_555
Li2_5 O1_2 1_555 1_555
Li2A_2 O2_2 1_555 1_555
N1_2 Li1_3 1_555 1_555
N1_3 Li1_2 1_555 1_555
N2_2 C10_2 1_555 1_555
N2_3 Li2 1_555 1_555
N2_4 Li2_2 1_555 1_555
C13A C14A 1_555 1_555
C14A N3 1_555 1_555
N3A C14 1_555 1_555
H9A C13A 1_555 1_555
H10A C13A 1_555 1_555
H11A C14A 1_555 1_555
H12A C14A 1_555 1_555
C4 N1 1_555 1_555
C5 C6 1_555 1_555
C5 N1 1_555 1_555
C11 C12 1_555 1_555
C11 N2 1_555 1_555
Li1A_2 O4A 1_555 1_555
C1_2 O2_2 1_555 1_555
C4_2 N1_2 1_555 1_555
C5_2 C6_2 1_555 1_555
C5_2 N1_2 1_555 1_555
C7_2 O4_2 1_555 1_555
C11_2 C12_2 1_555 1_555
C11_2 N2_2 1_555 1_555
O2A Li2A_2 1_555 1_555
O2A_2 Li2A 1_555 1_555
C13A N3A 1_555 1_555

#END
