
#######################################################################
#
#                 Cambridge Crystallographic Data Centre
#                                CCDC 
#
#######################################################################
#
# If this CIF has been generated from an entry in the Cambridge 
# Structural Database, then it will include bibliographic, chemical, 
# crystal, experimental, refinement or atomic coordinate data resulting 
# from the CCDC's data processing and validation procedures.
#
#######################################################################

data_XUNGUJ
_chemical_formula_moiety         '(C12 H8 Li2 N2 O4)n,n(C3 H7 N1 O1)'
_chemical_name_systematic        
'catena-(bis(\m~4~-Isonicotinato)-di-lithium dimethylformamide solvate)'
_symmetry_cell_setting           monoclinic
_symmetry_space_group_name_H-M   'P 21/n'
_symmetry_Int_Tables_number      14
_space_group_name_Hall           '-P 2yn'
loop_
_symmetry_equiv_pos_site_id
_symmetry_equiv_pos_as_xyz
1 x,y,z
2 1/2-x,1/2+y,1/2-z
3 -x,-y,-z
4 1/2+x,1/2-y,1/2+z
_cell_length_a                   5.40280(10)
_cell_length_b                   13.9175(2)
_cell_length_c                   11.2862(3)
_cell_angle_alpha                90
_cell_angle_beta                 102.875(2)
_cell_angle_gamma                90
_cell_volume                     827.312
_exptl_crystal_colour            colorless
_exptl_crystal_description       block
_cell_formula_units_Z            2
loop_
_atom_site_label
_atom_site_type_symbol
_atom_site_fract_x
_atom_site_fract_y
_atom_site_fract_z
C1 C 0.140(2) -0.0788(7) 0.0410(10)
C2 C 0.038(2) 0.0536(8) -0.1057(10)
C3 C -0.200(2) 0.0363(9) 0.0527(12)
O1 O 0.292(3) -0.0980(12) -0.0115(15)
N1 N 0.0000 0.0000 0.0000
O2 O 0.1740(3) 0.55057(11) 0.08698(14)
N2 N 0.3184(4) 0.82273(14) 0.3888(2)
O3 O 0.5721(3) 0.59703(14) 0.09583(19)
C4 C 0.3641(4) 0.60311(16) 0.1252(2)
C5 C 0.3415(4) 0.68116(16) 0.2156(2)
C6 C 0.1597(5) 0.67680(18) 0.2856(2)
H1 H 0.0426 0.6268 0.2757
C7 C 0.4919(5) 0.82614(18) 0.3207(3)
H2 H 0.6055 0.8773 0.3318
C8 C 0.5109(5) 0.75745(17) 0.2345(2)
H3 H 0.6357 0.7624 0.1898
C9 C 0.1573(5) 0.74841(19) 0.3702(2)
H4 H 0.0363 0.7447 0.4171
Li1 Li 0.1876(7) 0.4342(3) -0.0089(3)
O2B O -0.1740(3) 0.44943(11) -0.08698(14)
N2B N -0.3184(4) 0.17727(14) -0.3888(2)
N2A N 0.1816(4) 0.32273(14) 0.1112(2)
N2C N -0.1816(4) 0.67727(14) -0.1112(2)
O3B O -0.5721(3) 0.40297(14) -0.09583(19)
O3_2 O -0.4279(3) 0.59703(14) 0.09583(19)
O3B_2 O 0.4279(3) 0.40297(14) -0.09583(19)
C4B C -0.3641(4) 0.39689(16) -0.1252(2)
C5B C -0.3415(4) 0.31884(16) -0.2156(2)
C6B C -0.1597(5) 0.32320(18) -0.2856(2)
H1B H -0.0426 0.3732 -0.2757
C7B C -0.4919(5) 0.17386(18) -0.3207(3)
H2B H -0.6055 0.1227 -0.3318
C8B C -0.5109(5) 0.24255(17) -0.2345(2)
H3B H -0.6357 0.2376 -0.1898
C9B C -0.1573(5) 0.25159(19) -0.3702(2)
H4B H -0.0363 0.2553 -0.4171
Li1B Li -0.1876(7) 0.5658(3) 0.0089(3)
Li1_2 Li -0.8124(7) 0.4342(3) -0.0089(3)
Li1A Li 0.3124(7) 0.9342(3) 0.5089(3)
Li1B_2 Li 0.8124(7) 0.5658(3) 0.0089(3)
Li1C Li -0.3124(7) 0.0658(3) -0.5089(3)
O4? O -0.230(4) -0.0130(16) 0.1276(18)
loop_
_geom_bond_atom_site_label_1
_geom_bond_atom_site_label_2
_geom_bond_site_symmetry_1
_geom_bond_site_symmetry_2
C1 O1 1_555 1_555
C2 N1 1_555 1_555
C3 N1 1_555 1_555
N1 C1 1_555 1_555
O2 C4 1_555 1_555
N2 C7 1_555 1_555
O3 C4 1_555 1_555
C4 C5 1_555 1_555
C5 C6 1_555 1_555
C6 H1 1_555 1_555
C7 H2 1_555 1_555
C8 C5 1_555 1_555
H3 C8 1_555 1_555
C9 N2 1_555 1_555
H4 C9 1_555 1_555
Li1 O2 1_555 1_555
O2B Li1 1_555 1_555
N2B C7B 1_555 1_555
N2A Li1 1_555 1_555
N2C Li1B 1_555 1_555
O3B C4B 1_555 1_555
O3_2 Li1B 1_555 1_555
O3B_2 Li1 1_555 1_555
C4B O2B 1_555 1_555
C5B C4B 1_555 1_555
C6B C5B 1_555 1_555
H1B C6B 1_555 1_555
C7B H2B 1_555 1_555
C8B C5B 1_555 1_555
H3B C8B 1_555 1_555
C9B N2B 1_555 1_555
H4B C9B 1_555 1_555
Li1B O2 1_555 1_555
Li1_2 O3B 1_555 1_555
Li1A N2 1_555 1_555
Li1B_2 O3 1_555 1_555
Li1C N2B 1_555 1_555
C6 C9 1_555 1_555
C7 C8 1_555 1_555
O2B Li1B 1_555 1_555
C6B C9B 1_555 1_555
C7B C8B 1_555 1_555

#END
