
#######################################################################
#
#                 Cambridge Crystallographic Data Centre
#                                CCDC 
#
#######################################################################
#
# If this CIF has been generated from an entry in the Cambridge 
# Structural Database, then it will include bibliographic, chemical, 
# crystal, experimental, refinement or atomic coordinate data resulting 
# from the CCDC's data processing and validation procedures.
#
#######################################################################

data_WAFKEU02
_chemical_formula_moiety         '(C22 H20 N2 O8 Zn2)n'
_chemical_name_systematic        
catena-(bis(\m~4~-1,4-Benzenedicarboxylato)-(\m~2~-1,4-diazabicyclo(2.2.2)octane)-di-zinc)
_symmetry_cell_setting           tetragonal
_symmetry_space_group_name_H-M   'P 4/m m m'
_symmetry_Int_Tables_number      123
_space_group_name_Hall           '-P 4 2'
loop_
_symmetry_equiv_pos_site_id
_symmetry_equiv_pos_as_xyz
1 x,y,z
2 -y,x,z
3 y,-x,z
4 y,x,-z
5 -x,-y,z
6 -x,y,-z
7 x,-y,-z
8 -y,-x,-z
9 -x,-y,-z
10 y,-x,-z
11 -y,x,-z
12 -y,-x,z
13 x,y,-z
14 x,-y,z
15 -x,y,z
16 y,x,z
_cell_length_a                   10.983(5)
_cell_length_b                   10.983(5)
_cell_length_c                   9.702(6)
_cell_angle_alpha                90
_cell_angle_beta                 90
_cell_angle_gamma                90
_cell_volume                     1170.32
_exptl_crystal_colour            colorless
_exptl_crystal_description       prism
_cell_formula_units_Z            1
loop_
_atom_site_label
_atom_site_type_symbol
_atom_site_fract_x
_atom_site_fract_y
_atom_site_fract_z
Zn1 Zn 0.5000 0.5000 0.15132(16)
O1 O 0.5000 0.3170(6) 0.1151(6)
N1 N 0.5000 0.5000 0.3677(12)
C1 C 0.5000 0.2657(10) 0.0000
C2 C 0.5000 0.1283(11) 0.0000
C3 C 0.5000 0.0638(9) 0.1219(9)
H1 H 0.5000 0.1056 0.2053
C4 C 0.450(2) 0.382(2) 0.4175(13)
Zn1C Zn 0.5000 0.5000 -0.15132(16)
Zn1_2 Zn 0.5000 -0.5000 0.15132(16)
Zn1C_2 Zn 0.5000 -0.5000 -0.15132(16)
Zn1C_3 Zn 0.5000 0.5000 0.84868(16)
Zn1_3 Zn 1.5000 0.5000 0.15132(16)
Zn1C_4 Zn 1.5000 0.5000 -0.15132(16)
O1E O 0.5000 0.3170(6) -0.1151(6)
O1D O 0.5000 -0.3170(6) 0.1151(6)
O1F O 0.5000 -0.3170(6) -0.1151(6)
O1A O 0.6830(6) 0.5000 0.1151(6)
O1G O 0.6830(6) 0.5000 -0.1151(6)
O1B O 1.3170(6) 0.5000 0.1151(6)
O1C O 1.3170(6) 0.5000 -0.1151(6)
O1B_2 O 0.3170(6) 0.5000 0.1151(6)
O1D_2 O 0.5000 0.6830(6) 0.1151(6)
O1C_2 O 0.3170(6) 0.5000 -0.1151(6)
O1F_2 O 0.5000 0.6830(6) -0.1151(6)
N1C N 0.5000 0.5000 0.6323(12)
N1C_2 N 0.5000 0.5000 -0.3677(12)
C1D C 0.5000 -0.2657(10) 0.0000
C1A C 0.7343(10) 0.5000 0.0000
C1B C 1.2657(10) 0.5000 0.0000
C2D C 0.5000 -0.1283(11) 0.0000
C2A C 0.8717(11) 0.5000 0.0000
C2B C 1.1283(11) 0.5000 0.0000
C3D C 0.5000 -0.0638(9) 0.1219(9)
C3F C 0.5000 -0.0638(9) -0.1219(9)
C3E C 0.5000 0.0638(9) -0.1219(9)
C3A C 0.9362(9) 0.5000 0.1219(9)
C3B C 1.0638(9) 0.5000 0.1219(9)
C3C C 1.0638(9) 0.5000 -0.1219(9)
C3G C 0.9362(9) 0.5000 -0.1219(9)
H1E H 0.5000 0.1056 -0.2053
H1F H 0.5000 -0.1056 -0.2053
H1D H 0.5000 -0.1056 0.2053
H1A H 0.8944 0.5000 0.2053
H1G H 0.8944 0.5000 -0.2053
H1C H 1.1056 0.5000 -0.2053
H1B H 1.1056 0.5000 0.2053
C4L C 0.450(2) 0.382(2) 0.5825(13)
C4J C 0.618(2) 0.450(2) 0.5825(13)
C4A C 0.618(2) 0.450(2) 0.4175(13)
C4B C 0.382(2) 0.550(2) 0.4175(13)
C4I C 0.382(2) 0.550(2) 0.5825(13)
C4O C 0.382(2) 0.450(2) 0.4175(13)
C4M C 0.450(2) 0.618(2) 0.4175(13)
C4F C 0.450(2) 0.618(2) 0.5825(13)
C4D C 0.550(2) 0.618(2) 0.4175(13)
C4N C 0.550(2) 0.382(2) 0.4175(13)
C4E C 0.550(2) 0.382(2) 0.5825(13)
C4C C 0.382(2) 0.450(2) 0.5825(13)
C4K C 0.618(2) 0.550(2) 0.4175(13)
C4G C 0.618(2) 0.550(2) 0.5825(13)
C4H C 0.550(2) 0.618(2) 0.5825(13)
loop_
_geom_bond_atom_site_label_1
_geom_bond_atom_site_label_2
_geom_bond_site_symmetry_1
_geom_bond_site_symmetry_2
Zn1 O1 1_555 1_555
O1 C1 1_555 1_555
N1 Zn1 1_555 1_555
C1 C2 1_555 1_555
C2 C3 1_555 1_555
C3 H1 1_555 1_555
C4 N1 1_555 1_555
Zn1C O1E 1_555 1_555
Zn1_2 O1D 1_555 1_555
Zn1C_2 O1F 1_555 1_555
Zn1C_3 N1C 1_555 1_555
Zn1_3 O1B 1_555 1_555
Zn1C_4 O1C 1_555 1_555
O1E C1 1_555 1_555
O1D C1D 1_555 1_555
O1F C1D 1_555 1_555
O1A Zn1 1_555 1_555
O1G Zn1C 1_555 1_555
O1B C1B 1_555 1_555
O1C C1B 1_555 1_555
O1B_2 Zn1 1_555 1_555
O1D_2 Zn1 1_555 1_555
O1C_2 Zn1C 1_555 1_555
O1F_2 Zn1C 1_555 1_555
N1C C4L 1_555 1_555
N1C_2 Zn1C 1_555 1_555
C1D C2D 1_555 1_555
C1A O1A 1_555 1_555
C1B C2B 1_555 1_555
C2D C3D 1_555 1_555
C2A C1A 1_555 1_555
C2B C3B 1_555 1_555
C3D C3 1_555 1_555
C3F C2D 1_555 1_555
C3E C2 1_555 1_555
C3A C2A 1_555 1_555
C3B C3A 1_555 1_555
C3C C2B 1_555 1_555
C3G C2A 1_555 1_555
H1E C3E 1_555 1_555
H1F C3F 1_555 1_555
H1D C3D 1_555 1_555
H1A C3A 1_555 1_555
H1G C3G 1_555 1_555
H1C C3C 1_555 1_555
H1B C3B 1_555 1_555
C4L C4 1_555 1_555
C4J N1C 1_555 1_555
C4A N1 1_555 1_555
C4B N1 1_555 1_555
C4I N1C 1_555 1_555
C4O N1 1_555 1_555
C4M N1 1_555 1_555
C4F N1C 1_555 1_555
C4D N1 1_555 1_555
C4N N1 1_555 1_555
C4E N1C 1_555 1_555
C4C N1C 1_555 1_555
C4K N1 1_555 1_555
C4G N1C 1_555 1_555
C4H N1C 1_555 1_555
C4 C4O 1_555 1_555
C4 C4N 1_555 1_555
O1G C1A 1_555 1_555
C3F C3E 1_555 1_555
C3C C3G 1_555 1_555
C4L C4E 1_555 1_555
C4L C4C 1_555 1_555
C4J C4A 1_555 1_555
C4J C4E 1_555 1_555
C4J C4G 1_555 1_555
C4A C4N 1_555 1_555
C4A C4K 1_555 1_555
C4B C4I 1_555 1_555
C4B C4O 1_555 1_555
C4B C4M 1_555 1_555
C4I C4F 1_555 1_555
C4I C4C 1_555 1_555
C4O C4C 1_555 1_555
C4M C4F 1_555 1_555
C4M C4D 1_555 1_555
C4F C4H 1_555 1_555
C4D C4K 1_555 1_555
C4D C4H 1_555 1_555
C4N C4E 1_555 1_555
C4K C4G 1_555 1_555
C4G C4H 1_555 1_555

#END
