
#######################################################################
#
#                 Cambridge Crystallographic Data Centre
#                                CCDC 
#
#######################################################################
#
# If this CIF has been generated from an entry in the Cambridge 
# Structural Database, then it will include bibliographic, chemical, 
# crystal, experimental, refinement or atomic coordinate data resulting 
# from the CCDC's data processing and validation procedures.
#
#######################################################################

data_LUFRIO
_chemical_formula_moiety         '(C8 H4 Fe1 N6 Ni1)n'
_chemical_name_systematic        
catena-((\m~2~-Pyrazine)-tetrakis(\m~2~-cyano)-iron-nickel)
_symmetry_cell_setting           tetragonal
_symmetry_space_group_name_H-M   'P 4/m m m'
_symmetry_Int_Tables_number      123
_space_group_name_Hall           '-P 4 2'
loop_
_symmetry_equiv_pos_site_id
_symmetry_equiv_pos_as_xyz
1 x,y,z
2 -y,x,z
3 -x,-y,z
4 y,-x,z
5 x,-y,-z
6 -x,y,-z
7 y,x,-z
8 -y,-x,-z
9 -x,-y,-z
10 y,-x,-z
11 x,y,-z
12 -y,x,-z
13 -x,y,z
14 x,-y,z
15 -y,-x,z
16 y,x,z
_cell_length_a                   7.2574(13)
_cell_length_b                   7.2574(13)
_cell_length_c                   7.256(3)
_cell_angle_alpha                90
_cell_angle_beta                 90
_cell_angle_gamma                90
_cell_volume                     382.172
_exptl_crystal_colour            yellow-red
_exptl_crystal_description       'rectangular block'
_cell_formula_units_Z            1
loop_
_atom_site_label
_atom_site_type_symbol
_atom_site_fract_x
_atom_site_fract_y
_atom_site_fract_z
Ni1 Ni 0.5000 -0.5000 0.0000
Fe1 Fe 0.0000 0.0000 0.0000
N1 N 0.2063(6) -0.2063(6) 0.0000
N2 N 0.0000 0.0000 0.3049(16)
C1 C 0.3183(6) -0.3183(6) 0.0000
C2 C 0.0000 0.1498(12) 0.3985(17)
H1 H 0.0000 0.2619 0.3363
Fe1_2 Fe 0.0000 0.0000 1.0000
Fe1_3 Fe 0.0000 -1.0000 0.0000
Fe1_4 Fe 1.0000 -1.0000 0.0000
Fe1_5 Fe 1.0000 0.0000 0.0000
N1A N 0.2063(6) -0.7937(6) 0.0000
N1B N 0.7937(6) -0.7937(6) 0.0000
N1C N 0.7937(6) -0.2063(6) 0.0000
N1A_2 N 0.2063(6) 0.2063(6) 0.0000
N1B_2 N -0.2063(6) 0.2063(6) 0.0000
N1C_2 N -0.2063(6) -0.2063(6) 0.0000
N2D N 0.0000 0.0000 0.6951(16)
N2D_2 N 0.0000 0.0000 -0.3049(16)
C1A C 0.3183(6) -0.6817(6) 0.0000
C1B C 0.6817(6) -0.6817(6) 0.0000
C1C C 0.6817(6) -0.3183(6) 0.0000
C2E C 0.0000 0.1498(12) 0.6015(17)
C2F C 0.1498(12) 0.0000 0.6015(17)
C2C C 0.1498(12) 0.0000 0.3985(17)
C2A C -0.1498(12) 0.0000 0.3985(17)
C2G C -0.1498(12) 0.0000 0.6015(17)
C2B C 0.0000 -0.1498(12) 0.3985(17)
C2D C 0.0000 -0.1498(12) 0.6015(17)
H1F H 0.2619 0.0000 0.6637
H1A H -0.2619 0.0000 0.3363
H1C H 0.2619 0.0000 0.3363
H1B H 0.0000 -0.2619 0.3363
H1D H 0.0000 -0.2619 0.6637
H1G H -0.2619 0.0000 0.6637
H1E H 0.0000 0.2619 0.6637
loop_
_geom_bond_atom_site_label_1
_geom_bond_atom_site_label_2
_geom_bond_site_symmetry_1
_geom_bond_site_symmetry_2
Ni1 C1 1_555 1_555
Fe1 N1 1_555 1_555
N1 C1 1_555 1_555
N2 Fe1 1_555 1_555
C2 N2 1_555 1_555
H1 C2 1_555 1_555
Fe1_2 N2D 1_555 1_555
Fe1_3 N1A 1_555 1_555
Fe1_4 N1B 1_555 1_555
Fe1_5 N1C 1_555 1_555
N1A C1A 1_555 1_555
N1B C1B 1_555 1_555
N1C C1C 1_555 1_555
N1A_2 Fe1 1_555 1_555
N1B_2 Fe1 1_555 1_555
N1C_2 Fe1 1_555 1_555
N2D C2E 1_555 1_555
N2D_2 Fe1 1_555 1_555
C1A Ni1 1_555 1_555
C1B Ni1 1_555 1_555
C1C Ni1 1_555 1_555
C2E C2 1_555 1_555
C2F N2D 1_555 1_555
C2C N2 1_555 1_555
C2A N2 1_555 1_555
C2G N2D 1_555 1_555
C2B N2 1_555 1_555
C2D N2D 1_555 1_555
H1F C2F 1_555 1_555
H1A C2A 1_555 1_555
H1C C2C 1_555 1_555
H1B C2B 1_555 1_555
H1D C2D 1_555 1_555
H1G C2G 1_555 1_555
H1E C2E 1_555 1_555
C2 C2C 1_555 1_555
C2 C2A 1_555 1_555
C2E C2F 1_555 1_555
C2E C2G 1_555 1_555
C2F C2C 1_555 1_555
C2F C2D 1_555 1_555
C2C C2B 1_555 1_555
C2A C2G 1_555 1_555
C2A C2B 1_555 1_555
C2G C2D 1_555 1_555
C2B C2D 1_555 1_555

#END
