
#######################################################################
#
#                 Cambridge Crystallographic Data Centre
#                                CCDC 
#
#######################################################################
#
# If this CIF has been generated from an entry in the Cambridge 
# Structural Database, then it will include bibliographic, chemical, 
# crystal, experimental, refinement or atomic coordinate data resulting 
# from the CCDC's data processing and validation procedures.
#
#######################################################################

data_BUSMUY
_chemical_formula_moiety         '(C24 H16 Co1 N10)n'
_chemical_name_systematic        
'catena-(bis(\m~2~-2-(3-(pyridin-4-yl)-1H-1,2,4-triazol-5-yl)pyridine)-cobalt(ii)) unknown solvate'
_symmetry_cell_setting           rhombohedral
_symmetry_space_group_name_H-M   'R -3'
_symmetry_Int_Tables_number      148
_space_group_name_Hall           '-R 3'
loop_
_symmetry_equiv_pos_site_id
_symmetry_equiv_pos_as_xyz
1 x,y,z
2 -y,x-y,z
3 -x+y,-x,z
4 2/3+x,1/3+y,1/3+z
5 2/3-y,1/3+x-y,1/3+z
6 2/3-x+y,1/3-x,1/3+z
7 1/3+x,2/3+y,2/3+z
8 1/3-y,2/3+x-y,2/3+z
9 1/3-x+y,2/3-x,2/3+z
10 -x,-y,-z
11 y,-x+y,-z
12 x-y,x,-z
13 1/3-x,2/3-y,2/3-z
14 1/3+y,2/3-x+y,2/3-z
15 1/3+x-y,2/3+x,2/3-z
16 2/3-x,1/3-y,1/3-z
17 2/3+y,1/3-x+y,1/3-z
18 2/3+x-y,1/3+x,1/3-z
_cell_length_a                   28.222(5)
_cell_length_b                   28.222(5)
_cell_length_c                   9.413(3)
_cell_angle_alpha                90
_cell_angle_beta                 90
_cell_angle_gamma                120
_cell_volume                     6492.83
_exptl_crystal_colour            yellow
_exptl_crystal_description       block
_cell_formula_units_Z            9
loop_
_atom_site_label
_atom_site_type_symbol
_atom_site_fract_x
_atom_site_fract_y
_atom_site_fract_z
_atom_site_U_iso_or_equiv
_atom_site_thermal_displace_type
Co1 Co 0.0000 0.5000 1.0000 0.0487 Uani
N1 N -0.06879(8) 0.48484(8) 0.8656(2) 0.0577 Uani
N2 N 0.01567(8) 0.47118(8) 0.81846(19) 0.0494 Uani
N3 N 0.05461(8) 0.45986(8) 0.7724(2) 0.0507 Uani
N4 N -0.01175(9) 0.43189(8) 0.6051(2) 0.0595 Uani
N5 N 0.12548(8) 0.37581(8) 0.4193(2) 0.0562 Uani
C1 C -0.10855(13) 0.49622(13) 0.8912(3) 0.0768 Uani
H1 H -0.1090 0.5115 0.9784 0.0920 Uiso
C2 C -0.14863(14) 0.48634(16) 0.7951(4) 0.0987 Uani
H2 H -0.1756 0.4949 0.8168 0.1190 Uiso
C3 C -0.14877(15) 0.46374(16) 0.6662(4) 0.1003 Uani
H3 H -0.1760 0.4565 0.5998 0.1200 Uiso
C4 C -0.10843(13) 0.45199(13) 0.6368(3) 0.0820 Uani
H4 H -0.1076 0.4368 0.5498 0.0980 Uiso
C5 C -0.06888(10) 0.46299(10) 0.7380(3) 0.0570 Uani
C6 C -0.02246(10) 0.45404(9) 0.7172(3) 0.0514 Uani
C7 C 0.03624(10) 0.43642(9) 0.6461(2) 0.0483 Uani
C8 C 0.06715(9) 0.41681(9) 0.5637(2) 0.0493 Uani
C9 C 0.04748(11) 0.38659(13) 0.4427(3) 0.0747 Uani
H5 H 0.0139 0.3794 0.4061 0.0900 Uiso
C10 C 0.07680(12) 0.36681(14) 0.3751(3) 0.0797 Uani
H6 H 0.0620 0.3459 0.2936 0.0950 Uiso
C11 C 0.14465(11) 0.40610(12) 0.5346(3) 0.0698 Uani
H7 H 0.1790 0.4141 0.5670 0.0840 Uiso
C12 C 0.11713(11) 0.42652(12) 0.6097(3) 0.0692 Uani
H8 H 0.1324 0.4469 0.6917 0.0830 Uiso
Co1E Co 0.1667 0.3333 0.3333 0.0487 Uani
Co1H Co -0.1667 0.6667 1.6667 0.0487 Uani
N1I N 0.06879(8) 0.51516(8) 1.1344(2) 0.0577 Uani
N2I N -0.01567(8) 0.52882(8) 1.18154(19) 0.0494 Uani
N3I N -0.05461(8) 0.54014(8) 1.2276(2) 0.0507 Uani
N4I N 0.01175(9) 0.56811(8) 1.3949(2) 0.0595 Uani
N5I N -0.12548(8) 0.62419(8) 1.5807(2) 0.0562 Uani
N5G N -0.04248(8) 0.41634(11) 1.0860(2) 0.0562 Uani
N5P N 0.04248(8) 0.58366(11) 0.9140(2) 0.0562 Uani
C1I C 0.10855(13) 0.50378(13) 1.1088(3) 0.0768 Uani
H1I H 0.1090 0.4885 1.0216 0.0920 Uiso
C2I C 0.14863(14) 0.51366(16) 1.2049(4) 0.0987 Uani
H2I H 0.1756 0.5051 1.1832 0.1190 Uiso
C3I C 0.14877(15) 0.53626(16) 1.3338(4) 0.1003 Uani
H3I H 0.1760 0.5435 1.4002 0.1200 Uiso
C4I C 0.10843(13) 0.54801(13) 1.3632(3) 0.0820 Uani
H4I H 0.1076 0.5632 1.4502 0.0980 Uiso
C5I C 0.06888(10) 0.53701(10) 1.2620(3) 0.0570 Uani
C6I C 0.02246(10) 0.54596(9) 1.2828(3) 0.0514 Uani
C7I C -0.03624(10) 0.56358(9) 1.3539(2) 0.0483 Uani
C8I C -0.06715(9) 0.58319(9) 1.4363(2) 0.0493 Uani
C9I C -0.04748(11) 0.61341(13) 1.5573(3) 0.0747 Uani
H5I H -0.0139 0.6206 1.5939 0.0900 Uiso
C10I C -0.07680(12) 0.63319(14) 1.6249(3) 0.0797 Uani
H6I H -0.0620 0.6541 1.7064 0.0950 Uiso
C11I C -0.14465(11) 0.59390(12) 1.4654(3) 0.0698 Uani
H7I H -0.1790 0.5859 1.4330 0.0840 Uiso
C12I C -0.11713(11) 0.57348(12) 1.3903(3) 0.0692 Uani
H8I H -0.1324 0.5531 1.3083 0.0830 Uiso
loop_
_atom_site_aniso_label
_atom_site_aniso_U_11
_atom_site_aniso_U_22
_atom_site_aniso_U_33
_atom_site_aniso_U_23
_atom_site_aniso_U_13
_atom_site_aniso_U_12
Co1 0.0686(3) 0.0500(3) 0.0386(3) 0.00718(19) 0.0155(2) 0.0379(2)
N1 0.0700(13) 0.0618(13) 0.0542(13) 0.0077(10) 0.0176(11) 0.0427(11)
N2 0.0649(13) 0.0544(11) 0.0404(11) 0.0064(9) 0.0131(10) 0.0385(10)
N3 0.0661(12) 0.0558(12) 0.0406(11) 0.0017(9) 0.0092(10) 0.0383(10)
N4 0.0675(14) 0.0713(14) 0.0494(12) -0.0106(10) 0.0038(10) 0.0419(12)
N5 0.0548(12) 0.0753(14) 0.0470(12) -0.0178(10) -0.0079(10) 0.0388(11)
C1 0.086(2) 0.098(2) 0.0720(19) -0.0014(17) 0.0129(16) 0.0653(19)
C2 0.087(2) 0.138(3) 0.104(3) -0.008(2) 0.002(2) 0.081(2)
C3 0.097(2) 0.143(3) 0.089(2) -0.017(2) -0.014(2) 0.081(2)
C4 0.082(2) 0.106(2) 0.070(2) -0.0091(17) -0.0033(16) 0.0559(19)
C5 0.0652(16) 0.0606(15) 0.0525(15) 0.0065(12) 0.0099(13) 0.0369(14)
C6 0.0610(15) 0.0523(14) 0.0463(14) 0.0064(11) 0.0109(12) 0.0323(12)
C7 0.0607(15) 0.0493(13) 0.0411(13) 0.0008(11) 0.0078(11) 0.0322(12)
C8 0.0556(14) 0.0532(14) 0.0423(13) -0.0039(11) 0.0054(11) 0.0296(12)
C9 0.0655(17) 0.118(2) 0.0611(18) -0.0332(17) -0.0157(14) 0.0613(18)
C10 0.0739(18) 0.131(3) 0.0557(17) -0.0449(17) -0.0208(14) 0.0674(19)
C11 0.0612(16) 0.090(2) 0.0714(19) -0.0340(16) -0.0200(14) 0.0477(16)
C12 0.0737(18) 0.086(2) 0.0620(17) -0.0351(15) -0.0177(14) 0.0505(16)
Co1E 0.0428 0.0686 0.0386 -0.0155 -0.00832 0.0307
Co1H 0.0428 0.0686 0.0386 -0.0155 -0.00832 0.0307
N1I 0.07 0.0618 0.0542 0.0077 0.0176 0.0427
N2I 0.0649 0.0544 0.0404 0.0064 0.0131 0.0385
N3I 0.0661 0.0558 0.0406 0.0017 0.0092 0.0383
N4I 0.0675 0.0713 0.0494 -0.0106 0.0038 0.0419
N5I 0.0548 0.0753 0.047 -0.0178 -0.0079 0.0388
N5G 0.0753 0.0525 0.047 0.0099 0.0178 0.0365
N5P 0.0753 0.0525 0.047 0.0099 0.0178 0.0365
C1I 0.086 0.098 0.072 -0.0014 0.0129 0.0653
C2I 0.087 0.138 0.104 -0.008 0.002 0.081
C3I 0.097 0.143 0.089 -0.017 -0.014 0.081
C4I 0.082 0.106 0.07 -0.0091 -0.0033 0.0559
C5I 0.0652 0.0606 0.0525 0.0065 0.0099 0.0369
C6I 0.061 0.0523 0.0463 0.0064 0.0109 0.0323
C7I 0.0607 0.0493 0.0411 0.0008 0.0078 0.0322
C8I 0.0556 0.0532 0.0423 -0.0039 0.0054 0.0296
C9I 0.0655 0.118 0.0611 -0.0332 -0.0157 0.0613
C10I 0.0739 0.131 0.0557 -0.0449 -0.0208 0.0674
C11I 0.0612 0.09 0.0714 -0.034 -0.02 0.0477
C12I 0.0737 0.086 0.062 -0.0351 -0.0177 0.0505
loop_
_geom_bond_atom_site_label_1
_geom_bond_atom_site_label_2
_geom_bond_site_symmetry_1
_geom_bond_site_symmetry_2
Co1 N1 1_555 1_555
N1 C1 1_555 1_555
N2 Co1 1_555 1_555
N3 N2 1_555 1_555
N4 C6 1_555 1_555
N5 C10 1_555 1_555
C1 H1 1_555 1_555
C2 C1 1_555 1_555
H2 C2 1_555 1_555
C3 C2 1_555 1_555
H3 C3 1_555 1_555
C4 C3 1_555 1_555
H4 C4 1_555 1_555
C5 N1 1_555 1_555
C6 N2 1_555 1_555
C7 N3 1_555 1_555
C8 C7 1_555 1_555
C9 C8 1_555 1_555
H5 C9 1_555 1_555
C10 C9 1_555 1_555
H6 C10 1_555 1_555
C11 N5 1_555 1_555
H7 C11 1_555 1_555
C12 C8 1_555 1_555
H8 C12 1_555 1_555
Co1E N5 1_555 1_555
Co1H N5I 1_555 1_555
N1I Co1 1_555 1_555
N2I Co1 1_555 1_555
N3I N2I 1_555 1_555
N4I C6I 1_555 1_555
N5I C10I 1_555 1_555
N5G Co1 1_555 1_555
N5P Co1 1_555 1_555
C1I N1I 1_555 1_555
H1I C1I 1_555 1_555
C2I C1I 1_555 1_555
H2I C2I 1_555 1_555
C3I C2I 1_555 1_555
H3I C3I 1_555 1_555
C4I C3I 1_555 1_555
H4I C4I 1_555 1_555
C5I N1I 1_555 1_555
C6I N2I 1_555 1_555
C7I N3I 1_555 1_555
C8I C7I 1_555 1_555
C9I C8I 1_555 1_555
H5I C9I 1_555 1_555
C10I C9I 1_555 1_555
H6I C10I 1_555 1_555
C11I N5I 1_555 1_555
H7I C11I 1_555 1_555
C12I C8I 1_555 1_555
H8I C12I 1_555 1_555
N4 C7 1_555 1_555
C4 C5 1_555 1_555
C5 C6 1_555 1_555
C11 C12 1_555 1_555
N4I C7I 1_555 1_555
C4I C5I 1_555 1_555
C5I C6I 1_555 1_555
C11I C12I 1_555 1_555

#END
