
#######################################################################
#
#                 Cambridge Crystallographic Data Centre
#                                CCDC 
#
#######################################################################
#
# If this CIF has been generated from an entry in the Cambridge 
# Structural Database, then it will include bibliographic, chemical, 
# crystal, experimental, refinement or atomic coordinate data resulting 
# from the CCDC's data processing and validation procedures.
#
#######################################################################

data_KUSRUN
_chemical_formula_moiety         '(C59 H67 Cd3 Cu1 N7 O17)n,4(C3 H7 N1 O1)'
_chemical_name_systematic        
"catena-[(\m~3~-3,3'-(cyclohexane-1,2-diylbis(nitrilomethylylidene))bis(5-t-butylpyridin-4-olato))-tris(\m~4~-terephthalato)-tri(N,N-dimethylformamide)-copper-tri-cadmium N,N-dimethylformamide solvate]"
_symmetry_cell_setting           orthorhombic
_symmetry_space_group_name_H-M   'P 21 21 21'
_symmetry_Int_Tables_number      19
_space_group_name_Hall           'P 2ac 2ab'
loop_
_symmetry_equiv_pos_site_id
_symmetry_equiv_pos_as_xyz
1 x,y,z
2 1/2-x,-y,1/2+z
3 -x,1/2+y,1/2-z
4 1/2+x,1/2-y,-z
_cell_length_a                   10.3562(3)
_cell_length_b                   17.8979(5)
_cell_length_c                   44.1383(14)
_cell_angle_alpha                90
_cell_angle_beta                 90
_cell_angle_gamma                90
_cell_volume                     8181.22
_exptl_crystal_colour            blue
_exptl_crystal_description       plate
_cell_formula_units_Z            4
loop_
_atom_site_label
_atom_site_type_symbol
_atom_site_fract_x
_atom_site_fract_y
_atom_site_fract_z
Cd1 Cd 0.15411(3) 1.00397(3) 0.922108(7)
Cd2 Cd 0.24219(3) 0.99962(4) 1.001752(7)
Cd3 Cd 0.32634(3) 0.99667(3) 1.082175(7)
Cu1 Cu 0.02718(7) 1.06723(4) 0.752176(14)
O1 O 0.2712(4) 0.9001(2) 0.92501(9)
O2 O 0.3586(4) 0.9329(2) 0.96932(8)
O3 O 0.7130(4) 0.6067(2) 0.97353(8)
O4 O 0.6710(4) 0.5882(2) 0.92444(9)
O5 O -0.0357(4) 1.0619(2) 0.94287(9)
O6 O 0.0655(3) 0.9770(2) 0.97030(8)
O7 O -0.4796(4) 0.9411(2) 1.06201(8)
O8 O -0.5845(3) 1.0223(2) 1.03389(8)
O9 O 0.2035(4) 1.0984(2) 1.07861(9)
O10 O 0.1184(4) 1.0613(2) 1.03437(8)
O11 O -0.1856(4) 1.4142(2) 1.07006(8)
O12 O -0.2198(4) 1.3926(2) 1.02111(8)
O13 O 0.1404(4) 1.1036(3) 0.78359(8)
O14 O 0.1525(4) 1.0946(3) 0.72202(8)
O15 O -0.1044(5) 1.1720(3) 0.74506(12)
O16 O -0.0102(4) 0.9123(2) 0.90745(9)
O17 O 0.4868(4) 1.0912(2) 1.09577(8)
N1 N 0.1444(4) 1.0456(3) 0.87420(9)
N2 N 0.1576(4) 1.0430(3) 0.63095(9)
N3 N -0.0707(4) 1.0057(3) 0.72388(8)
N4 N -0.0961(5) 1.0300(3) 0.78167(9)
N5 N -0.1871(6) 1.2906(3) 0.7474(2)
N6 N -0.0763(6) 0.7955(3) 0.91679(17)
N7 N 0.5647(6) 1.2031(3) 1.08107(16)
C1 C 0.3408(7) 0.8891(3) 0.94821(14)
C2 C 0.4129(7) 0.8160(3) 0.94898(13)
C3 C 0.4896(6) 0.7990(3) 0.97360(12)
H1 H 0.4902 0.8313 0.9907
C4 C 0.5653(7) 0.7359(3) 0.97366(13)
H2 H 0.6182 0.7252 0.9907
C5 C 0.5651(8) 0.6881(3) 0.94934(13)
C6 C 0.4857(6) 0.7034(3) 0.92491(13)
H3 H 0.4834 0.6699 0.9082
C7 C 0.4100(6) 0.7668(3) 0.92449(13)
H4 H 0.3560 0.7769 0.9076
C8 C 0.6552(7) 0.6214(4) 0.94913(14)
C9 C -0.0328(5) 1.0186(3) 0.96498(12)
C10 C -0.1479(5) 1.0108(4) 0.98491(11)
C11 C -0.2479(5) 1.0629(4) 0.98367(13)
H5 H -0.2400 1.1057 0.9711
C12 C -0.3584(5) 1.0524(3) 1.00071(12)
H6 H -0.4263 1.0880 0.9997
C13 C -0.3707(4) 0.9900(3) 1.01938(11)
C14 C -0.2704(5) 0.9376(4) 1.02042(13)
H7 H -0.2781 0.8944 1.0328
C15 C -0.1615(5) 0.9489(3) 1.00356(12)
H8 H -0.0934 0.9134 1.0046
C16 C -0.4855(5) 0.9825(3) 1.03945(11)
C17 C 0.1351(6) 1.1084(3) 1.05484(13)
C18 C 0.0633(7) 1.1808(3) 1.05238(13)
C19 C -0.0115(6) 1.1947(3) 1.02684(13)
H9 H -0.0129 1.1592 1.0108
C20 C -0.0836(7) 1.2593(3) 1.02432(13)
H10 H -0.1343 1.2681 1.0067
C21 C -0.0816(7) 1.3117(3) 1.04788(13)
C22 C -0.0043(5) 1.2989(3) 1.07277(12)
H11 H -0.0004 1.3349 1.0886
C23 C 0.0679(6) 1.2336(3) 1.07493(13)
H12 H 0.1209 1.2254 1.0922
C24 C -0.1688(7) 1.3778(3) 1.04616(13)
C25 C 0.0634(6) 1.0188(3) 0.64845(12)
H13 H -0.0028 0.9894 0.6395
C26 C 0.0554(6) 1.0340(3) 0.67961(12)
C27 C -0.0480(5) 0.9991(4) 0.69541(11)
H14 H -0.1048 0.9685 0.6840
C28 C -0.1734(5) 0.9607(3) 0.73910(12)
H15 H -0.1341 0.9128 0.7463
C29 C -0.2899(6) 0.9419(4) 0.71933(13)
H16 H -0.2620 0.9115 0.7018
H17 H -0.3293 0.9885 0.7116
C30 C -0.3901(6) 0.8978(4) 0.73824(13)
H18 H -0.4676 0.8881 0.7257
H19 H -0.3530 0.8491 0.7443
C31 C -0.4288(6) 0.9411(4) 0.76637(13)
H20 H -0.4905 0.9110 0.7784
H21 H -0.4728 0.9879 0.7603
C32 C -0.3106(6) 0.9601(4) 0.78606(12)
H22 H -0.3374 0.9900 0.8039
H23 H -0.2690 0.9137 0.7934
C33 C -0.2164(5) 1.0048(3) 0.76654(10)
H24 H -0.2627 1.0503 0.7591
C34 C -0.0762(6) 1.0196(3) 0.80993(12)
H25 H -0.1406 0.9942 0.8213
C35 C 0.0398(6) 1.0444(3) 0.82565(11)
C36 C 0.0475(6) 1.0254(3) 0.85599(13)
H26 H -0.0203 0.9962 0.8644
C37 C 0.2365(6) 1.0894(3) 0.86160(12)
H27 H 0.3042 1.1063 0.8744
C38 C 0.2400(6) 1.1117(3) 0.83130(11)
C39 C 0.1385(6) 1.0870(3) 0.81182(12)
C40 C 0.1526(6) 1.0791(4) 0.69357(12)
C41 C 0.2482(6) 1.0881(3) 0.64362(12)
H28 H 0.3135 1.1079 0.6308
C42 C 0.2517(6) 1.1072(3) 0.67424(12)
C43 C 0.3518(6) 1.1611(4) 0.81978(13)
C44 C 0.4461(7) 1.1840(4) 0.84475(15)
H29 H 0.4010 1.2147 0.8598
H30 H 0.5171 1.2129 0.8359
H31 H 0.4808 1.1392 0.8546
C45 C 0.4300(7) 1.1132(5) 0.79619(15)
H32 H 0.4624 1.0679 0.8061
H33 H 0.5030 1.1425 0.7885
H34 H 0.3735 1.0994 0.7793
C46 C 0.3008(8) 1.2323(4) 0.80497(16)
H35 H 0.2527 1.2616 0.8200
H36 H 0.2435 1.2192 0.7881
H37 H 0.3734 1.2619 0.7973
C47 C 0.3626(6) 1.1547(4) 0.68680(13)
C48 C 0.3114(7) 1.2241(4) 0.70340(16)
H38 H 0.2624 1.2553 0.6892
H39 H 0.3841 1.2529 0.7115
H40 H 0.2549 1.2085 0.7201
C49 C 0.4388(7) 1.1053(4) 0.70898(14)
H41 H 0.4720 1.0614 0.6982
H42 H 0.3819 1.0891 0.7255
H43 H 0.5112 1.1339 0.7174
C50 C 0.4530(7) 1.1829(4) 0.66227(15)
H44 H 0.4050 1.2148 0.6482
H45 H 0.4893 1.1403 0.6512
H46 H 0.5230 1.2117 0.6715
C51 C -0.0935(7) 1.2391(4) 0.7488(2)
H47 H -0.0091 1.2569 0.7531
C52 C -0.1698(9) 1.3695(4) 0.7493(4)
H48 H -0.0803 1.3806 0.7550
H49 H -0.2283 1.3900 0.7647
H50 H -0.1890 1.3922 0.7296
C53 C -0.3118(9) 1.2689(5) 0.7408(4)
H51 H -0.3158 1.2143 0.7395
H52 H -0.3384 1.2908 0.7215
H53 H -0.3699 1.2861 0.7569
C54 C -0.0047(6) 0.8543(4) 0.92196(18)
C55 C -0.0653(12) 0.7295(6) 0.9350(4)
H54 H -0.0008 0.7377 0.9509
H55 H -0.0385 0.6875 0.9222
H56 H -0.1490 0.7183 0.9443
C56 C -0.1725(11) 0.7954(6) 0.8914(3)
H57 H -0.1687 0.8432 0.8807
H58 H -0.2595 0.7881 0.8997
H59 H -0.1523 0.7547 0.8773
C57 C 0.4853(6) 1.1472(3) 1.07972(15)
H60 H 0.4194 1.1499 1.0648
C58 C 0.5546(11) 1.2685(5) 1.0613(3)
H61 H 0.4831 1.2614 1.0470
H62 H 0.6354 1.2747 1.0500
H63 H 0.5386 1.3132 1.0735
C59 C 0.6741(10) 1.2022(6) 1.1027(2)
H64 H 0.6700 1.1567 1.1150
H65 H 0.6689 1.2461 1.1160
H66 H 0.7558 1.2033 1.0915
Cd1C Cd -0.34589(3) 1.49603(3) 1.077892(7)
Cd2_2 Cd -0.75781(3) 0.99962(4) 1.001752(7)
Cd2C Cd -0.25781(3) 1.50038(4) 0.998248(7)
Cd2C_2 Cd 0.74219(3) 0.50038(4) 0.998248(7)
Cd3_2 Cd -0.67366(3) 0.99667(3) 1.082175(7)
Cd3A Cd 0.17366(3) 1.00333(3) 0.582175(7)
Cd3C Cd 0.82634(3) 0.50333(3) 0.917825(7)
O3C O 0.2130(4) 0.8933(2) 1.02647(8)
O4C O 0.1710(4) 0.9118(2) 1.07556(9)
O7_2 O 0.5204(4) 0.9411(2) 1.06201(8)
O8_2 O 0.4155(3) 1.0223(2) 1.03389(8)
O11C O 0.3144(4) 1.0858(2) 0.92994(8)
O12C O 0.2802(4) 1.1074(2) 0.97889(8)
N2A N 0.3424(4) 0.9570(3) 1.13095(9)
O18 O 0.7039(6) 1.0510(4) 0.85785(14)
N8 N 0.6266(5) 0.9769(4) 0.89430(12)
C60 C 0.7065(8) 1.0254(5) 0.88313(19)
H67 H 0.7735 1.0425 0.8961
C61 C 0.6377(9) 0.9488(7) 0.92471(18)
H68 H 0.7122 0.9721 0.9347
H69 H 0.6497 0.8945 0.9242
H70 H 0.5590 0.9608 0.9360
C62 C 0.5234(8) 0.9486(5) 0.87565(17)
H71 H 0.5264 0.9727 0.8557
H72 H 0.4403 0.9593 0.8853
H73 H 0.5332 0.8945 0.8732
O19 O 0.2724(7) 0.5459(4) 0.84693(15)
N9 N 0.3608(5) 0.4835(4) 0.88587(13)
C63 C 0.2778(8) 0.5297(5) 0.87368(19)
H74 H 0.2167 0.5525 0.8868
C64 C 0.3590(10) 0.4738(8) 0.91795(18)
H75 H 0.2870 0.5023 0.9266
H76 H 0.4405 0.4919 0.9265
H77 H 0.3483 0.4207 0.9227
C65 C 0.4602(8) 0.4458(5) 0.86814(17)
H78 H 0.4483 0.4574 0.8466
H79 H 0.4536 0.3917 0.8712
H80 H 0.5456 0.4630 0.8747
O20 O -0.0297(9) 0.8495(4) 0.8116(2)
N10 N 0.1177(8) 0.7798(4) 0.8381(2)
C66 C 0.0136(10) 0.7911(7) 0.8208(3)
H81 H -0.0323 0.7475 0.8149
C67 C 0.1530(12) 0.7082(6) 0.8496(4)
H82 H 0.0918 0.6706 0.8422
H83 H 0.1513 0.7093 0.8718
H84 H 0.2402 0.6956 0.8426
C68 C 0.1970(10) 0.8422(5) 0.8463(2)
H85 H 0.1608 0.8880 0.8376
H86 H 0.2846 0.8346 0.8385
H87 H 0.1999 0.8467 0.8684
O21 O -0.0096(10) 0.8370(5) 0.6874(3)
N11 N 0.1386(9) 0.7749(5) 0.6586(3)
C69 C 0.0290(14) 0.7817(7) 0.6750(5)
H88 H -0.0227 0.7381 0.6770
C70 C 0.1704(13) 0.7082(6) 0.6437(5)
H89 H 0.1038 0.6706 0.6478
H90 H 0.2539 0.6901 0.6511
H91 H 0.1756 0.7172 0.6218
C71 C 0.2267(10) 0.8355(6) 0.6558(3)
H92 H 0.1998 0.8762 0.6693
H93 H 0.2276 0.8532 0.6348
H94 H 0.3134 0.8187 0.6615
loop_
_geom_bond_atom_site_label_1
_geom_bond_atom_site_label_2
_geom_bond_site_symmetry_1
_geom_bond_site_symmetry_2
Cd1 O1 1_555 1_555
Cd2 O2 1_555 1_555
Cd3 O9 1_555 1_555
Cu1 O13 1_555 1_555
O1 C1 1_555 1_555
O2 C1 1_555 1_555
O3 C8 1_555 1_555
O4 C8 1_555 1_555
O5 Cd1 1_555 1_555
O6 Cd1 1_555 1_555
O7 C16 1_555 1_555
O8 C16 1_555 1_555
O9 C17 1_555 1_555
O10 Cd2 1_555 1_555
O11 C24 1_555 1_555
O12 C24 1_555 1_555
O13 C39 1_555 1_555
O14 Cu1 1_555 1_555
O15 Cu1 1_555 1_555
O16 Cd1 1_555 1_555
O17 Cd3 1_555 1_555
N1 Cd1 1_555 1_555
N2 C25 1_555 1_555
N3 Cu1 1_555 1_555
N4 Cu1 1_555 1_555
N5 C51 1_555 1_555
N6 C54 1_555 1_555
N7 C57 1_555 1_555
C1 C2 1_555 1_555
C2 C3 1_555 1_555
C3 H1 1_555 1_555
C4 C3 1_555 1_555
H2 C4 1_555 1_555
C5 C4 1_555 1_555
C6 C5 1_555 1_555
H3 C6 1_555 1_555
C7 C2 1_555 1_555
H4 C7 1_555 1_555
C8 C5 1_555 1_555
C9 O5 1_555 1_555
C10 C9 1_555 1_555
C11 C10 1_555 1_555
H5 C11 1_555 1_555
C12 C11 1_555 1_555
H6 C12 1_555 1_555
C13 C12 1_555 1_555
C14 C13 1_555 1_555
H7 C14 1_555 1_555
C15 C10 1_555 1_555
H8 C15 1_555 1_555
C16 C13 1_555 1_555
C17 O10 1_555 1_555
C18 C17 1_555 1_555
C19 C18 1_555 1_555
H9 C19 1_555 1_555
C20 C19 1_555 1_555
H10 C20 1_555 1_555
C21 C20 1_555 1_555
C22 C21 1_555 1_555
H11 C22 1_555 1_555
C23 C18 1_555 1_555
H12 C23 1_555 1_555
C24 C21 1_555 1_555
C25 H13 1_555 1_555
C26 C25 1_555 1_555
C27 N3 1_555 1_555
H14 C27 1_555 1_555
C28 N3 1_555 1_555
H15 C28 1_555 1_555
C29 C28 1_555 1_555
H16 C29 1_555 1_555
H17 C29 1_555 1_555
C30 C29 1_555 1_555
H18 C30 1_555 1_555
H19 C30 1_555 1_555
C31 C30 1_555 1_555
H20 C31 1_555 1_555
H21 C31 1_555 1_555
C32 C31 1_555 1_555
H22 C32 1_555 1_555
H23 C32 1_555 1_555
C33 N4 1_555 1_555
H24 C33 1_555 1_555
C34 N4 1_555 1_555
H25 C34 1_555 1_555
C35 C34 1_555 1_555
C36 N1 1_555 1_555
H26 C36 1_555 1_555
C37 N1 1_555 1_555
H27 C37 1_555 1_555
C38 C37 1_555 1_555
C39 C35 1_555 1_555
C40 O14 1_555 1_555
C41 N2 1_555 1_555
H28 C41 1_555 1_555
C42 C40 1_555 1_555
C43 C38 1_555 1_555
C44 C43 1_555 1_555
H29 C44 1_555 1_555
H30 C44 1_555 1_555
H31 C44 1_555 1_555
C45 C43 1_555 1_555
H32 C45 1_555 1_555
H33 C45 1_555 1_555
H34 C45 1_555 1_555
C46 C43 1_555 1_555
H35 C46 1_555 1_555
H36 C46 1_555 1_555
H37 C46 1_555 1_555
C47 C42 1_555 1_555
C48 C47 1_555 1_555
H38 C48 1_555 1_555
H39 C48 1_555 1_555
H40 C48 1_555 1_555
C49 C47 1_555 1_555
H41 C49 1_555 1_555
H42 C49 1_555 1_555
H43 C49 1_555 1_555
C50 C47 1_555 1_555
H44 C50 1_555 1_555
H45 C50 1_555 1_555
H46 C50 1_555 1_555
C51 O15 1_555 1_555
H47 C51 1_555 1_555
C52 N5 1_555 1_555
H48 C52 1_555 1_555
H49 C52 1_555 1_555
H50 C52 1_555 1_555
C53 N5 1_555 1_555
H51 C53 1_555 1_555
H52 C53 1_555 1_555
H53 C53 1_555 1_555
C54 O16 1_555 1_555
C55 N6 1_555 1_555
H54 C55 1_555 1_555
H55 C55 1_555 1_555
H56 C55 1_555 1_555
C56 N6 1_555 1_555
H57 C56 1_555 1_555
H58 C56 1_555 1_555
H59 C56 1_555 1_555
C57 O17 1_555 1_555
H60 C57 1_555 1_555
C58 N7 1_555 1_555
H61 C58 1_555 1_555
H62 C58 1_555 1_555
H63 C58 1_555 1_555
C59 N7 1_555 1_555
H64 C59 1_555 1_555
H65 C59 1_555 1_555
H66 C59 1_555 1_555
O18 C60 1_555 1_555
N8 C60 1_555 1_555
C60 H67 1_555 1_555
C61 N8 1_555 1_555
H68 C61 1_555 1_555
H69 C61 1_555 1_555
H70 C61 1_555 1_555
C62 N8 1_555 1_555
H71 C62 1_555 1_555
H72 C62 1_555 1_555
H73 C62 1_555 1_555
O19 C63 1_555 1_555
N9 C63 1_555 1_555
C63 H74 1_555 1_555
C64 N9 1_555 1_555
H75 C64 1_555 1_555
H76 C64 1_555 1_555
H77 C64 1_555 1_555
C65 N9 1_555 1_555
H78 C65 1_555 1_555
H79 C65 1_555 1_555
H80 C65 1_555 1_555
O20 C66 1_555 1_555
N10 C66 1_555 1_555
C66 H81 1_555 1_555
C67 N10 1_555 1_555
H82 C67 1_555 1_555
H83 C67 1_555 1_555
H84 C67 1_555 1_555
C68 N10 1_555 1_555
H85 C68 1_555 1_555
H86 C68 1_555 1_555
H87 C68 1_555 1_555
O21 C69 1_555 1_555
N11 C69 1_555 1_555
C69 H88 1_555 1_555
C70 N11 1_555 1_555
H89 C70 1_555 1_555
H90 C70 1_555 1_555
H91 C70 1_555 1_555
C71 N11 1_555 1_555
H92 C71 1_555 1_555
H93 C71 1_555 1_555
H94 C71 1_555 1_555
Cd1C O11 1_555 1_555
Cd2_2 O8 1_555 1_555
Cd2C O12 1_555 1_555
Cd2C_2 O3 1_555 1_555
Cd3_2 O7 1_555 1_555
Cd3A N2 1_555 1_555
Cd3C O4 1_555 1_555
O3C Cd2 1_555 1_555
O4C Cd3 1_555 1_555
O7_2 Cd3 1_555 1_555
O8_2 Cd2 1_555 1_555
O11C Cd1 1_555 1_555
O12C Cd2 1_555 1_555
N2A Cd3 1_555 1_555
Cd2 O6 1_555 1_555
Cd3 O8_2 1_555 1_555
O6 C9 1_555 1_555
O8 Cd3_2 1_555 1_555
C6 C7 1_555 1_555
C14 C15 1_555 1_555
C22 C23 1_555 1_555
C26 C27 1_555 1_555
C26 C40 1_555 1_555
C28 C33 1_555 1_555
C32 C33 1_555 1_555
C35 C36 1_555 1_555
C38 C39 1_555 1_555
C41 C42 1_555 1_555

#END
