
#######################################################################
#
#                 Cambridge Crystallographic Data Centre
#                                CCDC 
#
#######################################################################
#
# If this CIF has been generated from an entry in the Cambridge 
# Structural Database, then it will include bibliographic, chemical, 
# crystal, experimental, refinement or atomic coordinate data resulting 
# from the CCDC's data processing and validation procedures.
#
#######################################################################

data_RORTUP
_chemical_formula_moiety         '(C37 H33 N3 O13 Zn3)n'
_chemical_name_systematic        
"catena-[(\m-2,2'-dihydroxybiphenyl-4,4'-dicarboxylato)-(\m-2,2'-dioxidobiphenyl-4,4'-dicarboxylato)-(\m-1,4-diazabicyclo[2.2.2]octane)-(N,N-dimethylformamide)-tri-zinc unknown solvate]"
_symmetry_cell_setting           monoclinic
_symmetry_space_group_name_H-M   'P 21/c'
_symmetry_Int_Tables_number      14
_space_group_name_Hall           '-P 2ybc'
loop_
_symmetry_equiv_pos_site_id
_symmetry_equiv_pos_as_xyz
1 x,y,z
2 -x,1/2+y,1/2-z
3 -x,-y,-z
4 x,1/2-y,1/2+z
_cell_length_a                   17.5414(2)
_cell_length_b                   18.1004(2)
_cell_length_c                   18.4729(2)
_cell_angle_alpha                90
_cell_angle_beta                 91.8580(10)
_cell_angle_gamma                90
_cell_volume                     5862.18
_exptl_crystal_colour            colorless
_exptl_crystal_description       block
_cell_formula_units_Z            4
loop_
_atom_site_label
_atom_site_type_symbol
_atom_site_fract_x
_atom_site_fract_y
_atom_site_fract_z
_atom_site_U_iso_or_equiv
_atom_site_thermal_displace_type
Zn1 Zn 0.397959(14) 0.524865(13) 0.200834(12) 0.0122 Uani
Zn2 Zn 0.397335(14) 0.232711(13) 0.064084(12) 0.0123 Uani
Zn3 Zn 0.320407(14) 0.392046(13) 0.124306(13) 0.0128 Uani
O1 O 0.38319(8) 0.42101(8) 0.21728(7) 0.0133 Uani
O2 O 0.64504(8) 0.51695(8) -0.05762(8) 0.0153 Uani
O3 O 0.41775(8) 0.33346(8) 0.09500(8) 0.0126 Uani
O4 O 0.29334(9) 0.20661(9) 0.09681(8) 0.0200 Uani
O5 O 0.56087(9) 0.43976(8) -0.11060(8) 0.0169 Uani
O6 O 0.25619(10) 0.36323(10) 0.03005(9) 0.0281 Uani
N1 N 0.46262(10) 0.57974(10) 0.27752(9) 0.0147 Uani
C1 C 0.59498(12) 0.46780(12) -0.05505(11) 0.0130 Uani
O7 O -0.29344(9) 0.06040(9) 0.29479(9) 0.0265 Uani
O8 O -0.23368(9) -0.04072(9) 0.34050(9) 0.0230 Uani
C2 C 0.61634(12) 0.45817(12) 0.07869(11) 0.0162 Uani
H1 H 0.6603 0.4885 0.0751 0.0190 Uiso
O9 O 0.38670(11) 0.29360(10) 0.46052(8) 0.0282 Uani
O10 O 0.27812(9) 0.30101(9) 0.17353(8) 0.0219 Uani
C3 C 0.52785(12) 0.39049(11) 0.15280(11) 0.0127 Uani
O11 O 0.50883(12) 0.27349(10) 0.48212(9) 0.0330 Uani
N2 N 0.54035(10) 0.66170(10) 0.36743(9) 0.0148 Uani
C4 C 0.50838(12) 0.39571(11) 0.02296(11) 0.0123 Uani
H2 H 0.4801 0.3820 -0.0197 0.0150 Uiso
C5 C 0.41720(13) 0.35048(11) 0.32121(11) 0.0158 Uani
H3 H 0.3672 0.3567 0.3385 0.0190 Uiso
C6 C 0.56114(13) 0.32734(12) 0.26920(12) 0.0182 Uani
H4 H 0.6105 0.3186 0.2512 0.0220 Uiso
C7 C 0.47182(13) 0.31424(12) 0.36400(11) 0.0174 Uani
C8 C 0.48384(12) 0.37223(11) 0.09016(11) 0.0118 Uani
C9 C 0.43475(12) 0.37787(11) 0.25322(11) 0.0129 Uani
C10 C 0.57284(14) 0.66518(13) 0.29412(12) 0.0221 Uani
H5 H 0.6267 0.6488 0.2968 0.0270 Uiso
H6 H 0.5715 0.7168 0.2765 0.0270 Uiso
C11 C 0.57348(12) 0.43886(11) 0.01712(11) 0.0135 Uani
C12 C 0.52731(14) 0.61571(14) 0.24090(12) 0.0238 Uani
H7 H 0.5074 0.6458 0.1997 0.0290 Uiso
H8 H 0.5613 0.5773 0.2215 0.0290 Uiso
C13 C 0.50724(12) 0.36442(12) 0.22579(11) 0.0145 Uani
C14 C 0.18737(13) 0.20613(13) 0.17367(13) 0.0211 Uani
C15 C 0.59398(12) 0.43243(12) 0.14608(11) 0.0156 Uani
H9 H 0.6244 0.4437 0.1881 0.0190 Uiso
C16 C -0.23426(13) 0.02157(14) 0.31124(13) 0.0238 Uani
C17 C 0.49390(15) 0.53504(13) 0.33875(13) 0.0241 Uani
H10 H 0.5263 0.4950 0.3200 0.0290 Uiso
H11 H 0.4515 0.5120 0.3647 0.0290 Uiso
C18 C 0.54452(14) 0.30290(13) 0.33785(12) 0.0213 Uani
H12 H 0.5824 0.2785 0.3670 0.0260 Uiso
C19 C 0.41364(14) 0.63921(13) 0.30711(13) 0.0239 Uani
H13 H 0.3695 0.6168 0.3310 0.0290 Uiso
H14 H 0.3939 0.6709 0.2670 0.0290 Uiso
C20 C 0.45959(13) 0.68625(13) 0.36192(13) 0.0212 Uani
H15 H 0.4575 0.7387 0.3468 0.0250 Uiso
H16 H 0.4366 0.6823 0.4100 0.0250 Uiso
C21 C 0.54160(15) 0.58367(12) 0.39167(13) 0.0240 Uani
H17 H 0.5207 0.5802 0.4407 0.0290 Uiso
H18 H 0.5949 0.5656 0.3943 0.0290 Uiso
C22 C 0.07485(15) 0.21648(18) 0.24436(15) 0.0379 Uani
C23 C -0.15952(15) 0.05472(16) 0.29180(16) 0.0364 Uani
O12 O 0.03350(16) 0.2577(2) 0.29111(17) 0.0729 Uani
H19 H -0.0110 0.2633 0.2739 0.0870 Uiso
C24 C 0.05349(15) 0.14538(17) 0.22591(16) 0.0385 Uani
C25 C -0.09311(15) 0.01651(17) 0.30536(17) 0.0408 Uani
H20 H -0.0948 -0.0304 0.3283 0.0490 Uiso
C26 C -0.02035(16) 0.11368(18) 0.24995(18) 0.0458 Uani
C27 C -0.02344(16) 0.04550(19) 0.28593(18) 0.0473 Uani
C28 C -0.15748(17) 0.12293(19) 0.2566(2) 0.0560 Uani
H21 H -0.2032 0.1496 0.2465 0.0670 Uiso
C29 C -0.08815(17) 0.1511(2) 0.2367(2) 0.0601 Uani
H22 H -0.0869 0.1977 0.2132 0.0720 Uiso
O13 O 0.04260(15) 0.00796(19) 0.3032(2) 0.0714 Uani
H23 H 0.0411 -0.0339 0.2836 0.0860 Uiso
C30 C 0.45568(15) 0.29180(12) 0.43993(12) 0.0204 Uani
C31 C 0.25818(13) 0.24082(13) 0.14578(12) 0.0178 Uani
C32 C 0.1670(3) 0.3661(5) -0.0977(3) 0.1182 Uani
H24 H 0.1462 0.3704 -0.0493 0.1770 Uiso
H25 H 0.1465 0.3216 -0.1215 0.1770 Uiso
H26 H 0.1526 0.4096 -0.1265 0.1770 Uiso
C33 C 0.28496(19) 0.36223(17) -0.02833(16) 0.0249 Uani
H27 H 0.3391 0.3624 -0.0287 0.0300 Uiso
N3 N 0.2483(2) 0.3610(3) -0.09161(18) 0.0458 Uani
C34 C 0.2912(3) 0.3504(3) -0.1573(2) 0.0610 Uani
H28 H 0.2560 0.3506 -0.1996 0.0920 Uiso
H29 H 0.3181 0.3030 -0.1546 0.0920 Uiso
H30 H 0.3282 0.3905 -0.1617 0.0920 Uiso
C35 C 0.14147(14) 0.24682(16) 0.21818(14) 0.0297 Uani
H31 H 0.1555 0.2959 0.2310 0.0360 Uiso
C36 C 0.16713(16) 0.13430(15) 0.15671(17) 0.0376 Uani
H32 H 0.1984 0.1052 0.1269 0.0450 Uiso
C37 C 0.10088(17) 0.10524(17) 0.18358(19) 0.0466 Uani
H33 H 0.0878 0.0556 0.1722 0.0560 Uiso
Zn1A Zn -0.397959(14) 0.024865(13) 0.299166(12) 0.0122 Uani
Zn1B Zn 0.602041(14) 0.475135(13) -0.200834(12) 0.0122 Uani
Zn2A Zn 0.602665(14) 0.732711(13) 0.435916(12) 0.0123 Uani
Zn2C Zn 0.397335(14) 0.267289(13) 0.564084(12) 0.0123 Uani
Zn3A Zn -0.320407(14) -0.107954(13) 0.375694(13) 0.0128 Uani
Zn3B Zn 0.679593(14) 0.607954(13) -0.124306(13) 0.0128 Uani
O2B O 0.35496(8) 0.48305(8) 0.05762(8) 0.0153 Uani
O5B O 0.43913(9) 0.56024(8) 0.11060(8) 0.0169 Uani
O7A O 0.29344(9) 0.56040(9) 0.20521(9) 0.0265 Uani
O8A O 0.23368(9) 0.45928(9) 0.15950(9) 0.0230 Uani
O9C O 0.38670(11) 0.20640(10) -0.03948(8) 0.0282 Uani
O11C O 0.50883(12) 0.22651(10) -0.01788(9) 0.0330 Uani
N2A N 0.45965(10) 0.16170(10) 0.13257(9) 0.0148 Uani
O14? O -0.0896(6) 0.2148(7) 0.1920(8) 0.0878 Uani
H34? H -0.1191 0.2464 0.2091 0.1060 Uiso
O15? O 0.0856(11) 0.0323(9) 0.1679(10) 0.0620 Uiso
H35? H 0.1035 0.0055 0.2014 0.0740 Uiso
C38? C 0.2399(8) 0.4007(8) -0.0172(8) 0.0271 Uani
H36? H 0.2225 0.4483 -0.0038 0.0330 Uiso
N4? N 0.2411(11) 0.3890(11) -0.0898(10) 0.0470 Uiso
C39? C 0.1946(16) 0.4311(14) -0.1455(18) 0.1241 Uani
H37? H 0.2051 0.4122 -0.1939 0.1830 Uiso
H38? H 0.2080 0.4836 -0.1429 0.1830 Uiso
H39? H 0.1402 0.4250 -0.1362 0.1830 Uiso
H40? H 0.1638 0.4684 -0.1214 0.1830 Uiso
H41? H 0.1609 0.3969 -0.1725 0.1830 Uiso
H42? H 0.2286 0.4555 -0.1791 0.1830 Uiso
C40? C 0.262(2) 0.3172(15) -0.1189(13) 0.1170 Uiso
H43? H 0.2598 0.3191 -0.1720 0.1750 Uiso
H44? H 0.2274 0.2793 -0.1019 0.1750 Uiso
H45? H 0.3146 0.3050 -0.1024 0.1750 Uiso
H46? H 0.2748 0.2832 -0.0789 0.1750 Uiso
H47? H 0.3072 0.3230 -0.1489 0.1750 Uiso
H48? H 0.2199 0.2972 -0.1485 0.1750 Uiso
H49? H 0.0439 0.2449 0.2751 0.0450 Uiso
H50? H 0.0223 0.0191 0.2970 0.0570 Uiso
H51? H 0.1506 0.3640 -0.1489 0.1770 Uiso
H52? H 0.1503 0.4129 -0.0767 0.1770 Uiso
H53? H 0.1442 0.3248 -0.0717 0.1770 Uiso
H54? H 0.3455 0.3455 -0.1444 0.0920 Uiso
H55? H 0.2834 0.3931 -0.1893 0.0920 Uiso
H56? H 0.2733 0.3055 -0.1822 0.0920 Uiso
loop_
_atom_site_aniso_label
_atom_site_aniso_U_11
_atom_site_aniso_U_22
_atom_site_aniso_U_33
_atom_site_aniso_U_23
_atom_site_aniso_U_13
_atom_site_aniso_U_12
Zn1 0.01333(13) 0.01201(13) 0.01125(12) -0.00009(9) 0.00247(9) -0.00072(9)
Zn2 0.01571(13) 0.01187(13) 0.00935(12) -0.00067(9) 0.00201(9) -0.00103(9)
Zn3 0.01265(13) 0.01383(13) 0.01209(12) -0.00104(9) 0.00356(9) -0.00180(9)
O1 0.0171(8) 0.0118(7) 0.0109(7) 0.0010(6) 0.0010(6) -0.0013(6)
O2 0.0146(8) 0.0157(8) 0.0157(7) 0.0048(6) 0.0032(6) -0.0020(6)
O3 0.0123(7) 0.0118(7) 0.0138(7) -0.0009(6) 0.0039(6) -0.0031(6)
O4 0.0171(8) 0.0219(9) 0.0210(8) 0.0012(7) 0.0014(6) -0.0060(7)
O5 0.0195(8) 0.0205(8) 0.0107(7) 0.0030(6) 0.0022(6) -0.0047(6)
O6 0.0319(10) 0.0318(10) 0.0205(9) 0.0020(8) -0.0022(8) -0.0130(8)
N1 0.0182(9) 0.0135(9) 0.0124(9) -0.0008(7) 0.0014(7) -0.0004(7)
C1 0.0120(10) 0.0151(11) 0.0121(10) 0.0038(8) 0.0020(8) 0.0031(8)
O7 0.0163(8) 0.0266(10) 0.0367(10) 0.0092(8) 0.0031(7) -0.0032(7)
O8 0.0155(8) 0.0272(9) 0.0265(9) 0.0076(7) 0.0041(7) -0.0024(7)
C2 0.0132(10) 0.0170(11) 0.0184(11) 0.0024(9) 0.0010(8) -0.0048(9)
O9 0.0403(11) 0.0320(10) 0.0126(8) 0.0054(7) 0.0048(7) -0.0054(8)
O10 0.0245(9) 0.0232(9) 0.0183(8) -0.0001(7) 0.0064(7) -0.0115(7)
C3 0.0147(10) 0.0131(11) 0.0105(10) 0.0010(8) 0.0022(8) 0.0016(8)
O11 0.0516(12) 0.0353(11) 0.0120(8) 0.0044(7) -0.0011(8) 0.0107(9)
N2 0.0196(10) 0.0131(9) 0.0119(9) -0.0019(7) 0.0017(7) 0.0006(7)
C4 0.0129(10) 0.0115(10) 0.0126(10) -0.0003(8) 0.0010(8) 0.0009(8)
C5 0.0212(11) 0.0134(11) 0.0131(10) -0.0008(8) 0.0044(9) -0.0021(9)
C6 0.0207(12) 0.0185(12) 0.0156(11) 0.0013(9) 0.0017(9) 0.0013(9)
C7 0.0294(13) 0.0112(11) 0.0118(10) 0.0021(8) 0.0018(9) -0.0033(9)
C8 0.0110(10) 0.0095(10) 0.0149(10) 0.0003(8) 0.0022(8) 0.0021(8)
C9 0.0196(11) 0.0091(10) 0.0099(9) -0.0001(8) -0.0008(8) -0.0016(8)
C10 0.0248(12) 0.0251(13) 0.0167(11) -0.0062(10) 0.0051(9) -0.0094(10)
C11 0.0146(10) 0.0138(11) 0.0123(10) 0.0024(8) 0.0038(8) -0.0003(8)
C12 0.0256(13) 0.0310(14) 0.0149(11) -0.0051(10) 0.0037(9) -0.0138(11)
C13 0.0208(11) 0.0130(11) 0.0098(10) 0.0012(8) 0.0008(8) -0.0030(9)
C14 0.0133(11) 0.0248(13) 0.0249(12) 0.0071(10) -0.0017(9) -0.0047(9)
C15 0.0168(11) 0.0174(11) 0.0125(10) 0.0013(9) -0.0009(8) -0.0018(9)
C16 0.0142(11) 0.0290(14) 0.0285(13) 0.0078(11) 0.0039(10) -0.0038(10)
C17 0.0355(14) 0.0144(12) 0.0218(12) 0.0035(9) -0.0067(11) -0.0048(10)
C18 0.0288(13) 0.0208(12) 0.0139(11) 0.0027(9) -0.0033(9) 0.0000(10)
C19 0.0217(12) 0.0225(13) 0.0271(13) -0.0127(10) -0.0035(10) 0.0038(10)
C20 0.0184(11) 0.0219(12) 0.0232(12) -0.0088(10) -0.0014(9) 0.0022(9)
C21 0.0380(15) 0.0143(12) 0.0191(12) 0.0008(9) -0.0067(10) -0.0036(10)
C22 0.0201(13) 0.059(2) 0.0352(15) 0.0062(14) 0.0100(11) -0.0068(13)
C23 0.0168(13) 0.0426(17) 0.0499(17) 0.0192(14) 0.0027(12) -0.0090(12)
O12 0.0365(16) 0.113(3) 0.071(2) -0.0274(19) 0.0278(15) -0.0190(17)
C24 0.0170(13) 0.0529(19) 0.0458(17) 0.0208(15) 0.0041(12) -0.0109(12)
C25 0.0173(13) 0.0487(18) 0.0565(19) 0.0282(15) 0.0014(13) -0.0064(12)
C26 0.0204(14) 0.058(2) 0.059(2) 0.0262(16) 0.0032(14) -0.0146(14)
C27 0.0148(13) 0.064(2) 0.063(2) 0.0295(17) 0.0013(13) -0.0045(13)
C28 0.0191(14) 0.053(2) 0.096(3) 0.044(2) 0.0019(16) -0.0060(14)
C29 0.0234(15) 0.059(2) 0.098(3) 0.049(2) 0.0047(17) -0.0092(15)
O13 0.0172(15) 0.079(2) 0.118(3) 0.048(2) 0.0042(16) -0.0007(15)
C30 0.0406(15) 0.0094(11) 0.0114(10) 0.0000(9) 0.0039(10) -0.0029(10)
C31 0.0146(11) 0.0218(12) 0.0171(11) 0.0079(9) 0.0000(9) -0.0021(9)
C32 0.051(3) 0.244(9) 0.058(3) -0.008(4) -0.021(3) 0.000(4)
C33 0.0279(17) 0.0235(17) 0.0233(16) 0.0012(12) -0.0010(13) -0.0043(14)
N3 0.040(2) 0.073(4) 0.0236(18) -0.0002(19) -0.0104(13) -0.016(2)
C34 0.062(3) 0.093(4) 0.028(2) -0.003(2) 0.0012(19) -0.017(3)
C35 0.0197(12) 0.0411(16) 0.0287(14) -0.0008(12) 0.0064(10) -0.0099(11)
C36 0.0245(14) 0.0279(15) 0.061(2) 0.0019(14) 0.0120(13) -0.0075(11)
C37 0.0332(16) 0.0329(17) 0.074(2) 0.0091(16) 0.0056(16) -0.0196(13)
Zn1A 0.01333 0.01201 0.01125 9e-05 0.00247 0.00072
Zn1B 0.01333 0.01201 0.01125 -9e-05 0.00247 -0.00072
Zn2A 0.01571 0.01187 0.00935 0.00067 0.00201 0.00103
Zn2C 0.01571 0.01187 0.00935 0.00067 0.00201 0.00103
Zn3A 0.01265 0.01383 0.01209 0.00104 0.00356 0.0018
Zn3B 0.01265 0.01383 0.01209 -0.00104 0.00356 -0.0018
O2B 0.0146 0.0157 0.0157 0.0048 0.0032 -0.002
O5B 0.0195 0.0205 0.0107 0.003 0.0022 -0.0047
O7A 0.0163 0.0266 0.0367 -0.0092 0.0031 0.0032
O8A 0.0155 0.0272 0.0265 -0.0076 0.0041 0.0024
O9C 0.0403 0.032 0.0126 -0.0054 0.0048 0.0054
O11C 0.0516 0.0353 0.012 -0.0044 -0.0011 -0.0107
N2A 0.0196 0.0131 0.0119 0.0019 0.0017 -0.0006
O14? 0.027(6) 0.104(10) 0.132(12) 0.090(9) -0.005(6) -0.027(6)
C38? 0.010(7) 0.023(8) 0.048(10) 0.003(7) -0.003(6) -0.006(6)
C39? 0.11(3) 0.08(2) 0.18(3) 0.09(2) -0.03(2) -0.033(17)
loop_
_geom_bond_atom_site_label_1
_geom_bond_atom_site_label_2
_geom_bond_site_symmetry_1
_geom_bond_site_symmetry_2
Zn1 O1 1_555 1_555
Zn2 O3 1_555 1_555
Zn3 O1 1_555 1_555
O1 C9 1_555 1_555
O2 C1 1_555 1_555
O3 Zn3 1_555 1_555
O4 Zn2 1_555 1_555
O5 C1 1_555 1_555
O6 Zn3 1_555 1_555
N1 Zn1 1_555 1_555
C1 C11 1_555 1_555
O7 C16 1_555 1_555
O8 C16 1_555 1_555
C2 H1 1_555 1_555
O9 C30 1_555 1_555
O10 Zn3 1_555 1_555
C3 C8 1_555 1_555
O11 C30 1_555 1_555
N2 C10 1_555 1_555
C4 H2 1_555 1_555
C5 H3 1_555 1_555
C6 H4 1_555 1_555
C7 C5 1_555 1_555
C8 O3 1_555 1_555
C9 C5 1_555 1_555
C10 H5 1_555 1_555
H6 C10 1_555 1_555
C11 C2 1_555 1_555
C12 N1 1_555 1_555
H7 C12 1_555 1_555
H8 C12 1_555 1_555
C13 C3 1_555 1_555
C14 C31 1_555 1_555
C15 C2 1_555 1_555
H9 C15 1_555 1_555
C16 C23 1_555 1_555
C17 N1 1_555 1_555
H10 C17 1_555 1_555
H11 C17 1_555 1_555
C18 C6 1_555 1_555
H12 C18 1_555 1_555
C19 N1 1_555 1_555
H13 C19 1_555 1_555
H14 C19 1_555 1_555
C20 N2 1_555 1_555
H15 C20 1_555 1_555
H16 C20 1_555 1_555
C21 N2 1_555 1_555
H17 C21 1_555 1_555
H18 C21 1_555 1_555
C22 O12 1_555 1_555
C23 C25 1_555 1_555
O12 H19 1_555 1_555
C24 C22 1_555 1_555
C25 H20 1_555 1_555
C26 C24 1_555 1_555
C27 C25 1_555 1_555
C28 C23 1_555 1_555
H21 C28 1_555 1_555
C29 C26 1_555 1_555
H22 C29 1_555 1_555
O13 C27 1_555 1_555
H23 O13 1_555 1_555
C30 C7 1_555 1_555
C31 O4 1_555 1_555
C32 H24 1_555 1_555
H25 C32 1_555 1_555
H26 C32 1_555 1_555
C33 O6 1_555 1_555
H27 C33 1_555 1_555
N3 C32 1_555 1_555
C34 N3 1_555 1_555
H28 C34 1_555 1_555
H29 C34 1_555 1_555
H30 C34 1_555 1_555
C35 C14 1_555 1_555
H31 C35 1_555 1_555
C36 C14 1_555 1_555
H32 C36 1_555 1_555
C37 C24 1_555 1_555
H33 C37 1_555 1_555
Zn1A O7 1_555 1_555
Zn1B O5 1_555 1_555
Zn2A N2 1_555 1_555
Zn2C O9 1_555 1_555
Zn3A O8 1_555 1_555
Zn3B O2 1_555 1_555
O2B Zn3 1_555 1_555
O5B Zn1 1_555 1_555
O7A Zn1 1_555 1_555
O8A Zn3 1_555 1_555
O9C Zn2 1_555 1_555
O11C Zn2 1_555 1_555
N2A Zn2 1_555 1_555
O10 C31 1_555 1_555
C3 C15 1_555 1_555
O11 Zn2C 1_555 1_555
C4 C8 1_555 1_555
C4 C11 1_555 1_555
C6 C13 1_555 1_555
C7 C18 1_555 1_555
C9 C13 1_555 1_555
C10 C12 1_555 1_555
C17 C21 1_555 1_555
C19 C20 1_555 1_555
C22 C35 1_555 1_555
C26 C27 1_555 1_555
C28 C29 1_555 1_555
C33 N3 1_555 1_555
C36 C37 1_555 1_555

#END
