
#######################################################################
#
#                 Cambridge Crystallographic Data Centre
#                                CCDC 
#
#######################################################################
#
# If this CIF has been generated from an entry in the Cambridge 
# Structural Database, then it will include bibliographic, chemical, 
# crystal, experimental, refinement or atomic coordinate data resulting 
# from the CCDC's data processing and validation procedures.
#
#######################################################################

data_RORTOJ
_chemical_formula_moiety         '(C37 H33 Co3 N3 O13)n'
_chemical_name_systematic        
"catena-[(\m-2,2'-dihydroxybiphenyl-4,4'-dicarboxylato)-(\m-2,2'-dioxidobiphenyl-4,4'-dicarboxylato)-(\m-1,4-diazabicyclo[2.2.2]octane)-(N,N-dimethylformamide)-tri-cobalt unknown solvate]"
_symmetry_cell_setting           monoclinic
_symmetry_space_group_name_H-M   'P 21/c'
_symmetry_Int_Tables_number      14
_space_group_name_Hall           '-P 2ybc'
loop_
_symmetry_equiv_pos_site_id
_symmetry_equiv_pos_as_xyz
1 x,y,z
2 -x,1/2+y,1/2-z
3 -x,-y,-z
4 x,1/2-y,1/2+z
_cell_length_a                   17.6122(5)
_cell_length_b                   18.1405(4)
_cell_length_c                   18.3816(5)
_cell_angle_alpha                90
_cell_angle_beta                 91.826(3)
_cell_angle_gamma                90
_cell_volume                     5869.83
_exptl_crystal_colour            purple
_exptl_crystal_description       block
_cell_formula_units_Z            4
loop_
_atom_site_label
_atom_site_type_symbol
_atom_site_fract_x
_atom_site_fract_y
_atom_site_fract_z
Co1 Co 0.396719(19) 0.527448(18) 0.19795(2)
Co2 Co 0.321228(19) 0.395308(18) 0.12560(2)
Co3 Co 0.39533(2) 0.234858(18) 0.06495(2)
O1 O 0.38238(10) 0.42489(9) 0.21871(10)
O2 O 0.64376(10) 0.51349(10) -0.05884(10)
O3 O 0.55892(11) 0.43642(10) -0.10933(11)
O4 O 0.29312(10) 0.21073(10) 0.10246(11)
O5 O -0.23323(10) -0.03749(10) 0.34231(11)
O6 O 0.41673(9) 0.33482(9) 0.09825(10)
O7 O 0.26092(14) 0.36409(13) 0.03015(13)
O8 O -0.29256(11) 0.06173(11) 0.29433(12)
O9 O 0.27576(11) 0.30666(10) 0.17728(11)
O10 O 0.49558(12) 0.26794(10) 0.48509(11)
O11 O 0.37794(12) 0.29980(12) 0.46213(11)
C1 C 0.59353(14) 0.46493(14) -0.05378(15)
N1 N 0.45983(12) 0.16408(12) 0.13358(12)
C2 C 0.52611(14) 0.39230(14) 0.15598(15)
C3 C 0.61479(15) 0.45768(14) 0.08045(15)
H1 H 0.6594 0.4866 0.0764
C4 C 0.50743(14) 0.39572(14) 0.02569(15)
H2 H 0.4795 0.3810 -0.0169
N2 N 0.53851(12) 0.08279(12) 0.22358(13)
C5 C 0.48276(14) 0.37370(13) 0.09302(15)
C6 C 0.57215(14) 0.43896(13) 0.01880(15)
C7 C 0.25717(15) 0.24576(16) 0.15057(16)
C8 C 0.55747(16) 0.32927(15) 0.27400(16)
H3 H 0.6070 0.3204 0.2571
C9 C 0.41298(16) 0.35456(14) 0.32321(15)
H4 H 0.3630 0.3621 0.3396
C10 C 0.46613(16) 0.31659(14) 0.36746(15)
C11 C 0.18709(16) 0.20968(16) 0.17871(16)
C12 C 0.43256(15) 0.38106(13) 0.25599(15)
C13 C -0.23354(16) 0.02395(16) 0.31184(17)
C14 C 0.59223(15) 0.43407(14) 0.14834(16)
H5 H 0.6222 0.4465 0.1904
C15 C 0.44609(17) 0.29281(14) 0.44207(16)
C16 C 0.50483(15) 0.36691(14) 0.22921(15)
C17 C 0.54013(15) 0.18836(16) 0.13780(17)
H6 H 0.5426 0.2408 0.1525
H7 H 0.5624 0.1839 0.0892
C18 C 0.53895(16) 0.30483(15) 0.34217(16)
H8 H 0.5758 0.2799 0.3719
C19 C 0.50620(19) 0.03844(16) 0.16260(18)
H9 H 0.4740 -0.0012 0.1822
H10 H 0.5480 0.0149 0.1363
C20 C 0.42825(17) 0.16720(16) 0.20722(16)
H11 H 0.3748 0.1503 0.2049
H12 H 0.4290 0.2188 0.2248
C21 C 0.47392(18) 0.11895(18) 0.26022(17)
H13 H 0.4938 0.1495 0.3012
H14 H 0.4404 0.0807 0.2803
C22 C 0.14008(17) 0.25065(19) 0.22227(19)
H15 H 0.1533 0.2999 0.2349
C23 C 0.16818(18) 0.13819(18) 0.1615(2)
H16 H 0.2003 0.1095 0.1321
C24 C 0.45841(18) 0.08595(15) 0.10924(18)
H17 H 0.4790 0.0823 0.0599
H18 H 0.4054 0.0678 0.1070
C25 C 0.58625(16) 0.14184(16) 0.19259(18)
H19 H 0.6299 0.1194 0.1682
H20 H 0.6064 0.1738 0.2323
C26 C -0.15946(17) 0.05658(19) 0.2925(2)
C27 C 0.07383(19) 0.2201(2) 0.2475(2)
C28 C 0.05330(17) 0.1482(2) 0.2293(2)
C29 C -0.09279(18) 0.0195(2) 0.3066(2)
H21 H -0.0939 -0.0273 0.3299
C30 C 0.1018(2) 0.10821(19) 0.1874(2)
H22 H 0.0895 0.0585 0.1759
C31 C -0.02043(18) 0.1168(2) 0.2527(2)
C32 C -0.0876(2) 0.1536(2) 0.2387(3)
H23 H -0.0864 0.2002 0.2152
C33 C -0.1570(2) 0.1249(2) 0.2580(3)
H24 H -0.2025 0.1515 0.2477
O12 O 0.0298(2) 0.2604(3) 0.2933(2)
H25 H 0.0499 0.3019 0.3007
O13 O 0.04201(18) 0.0094(3) 0.3025(3)
H26 H 0.0307 -0.0329 0.3174
C34 C -0.02386(18) 0.0491(2) 0.2875(2)
N3 N 0.2513(3) 0.3580(5) -0.0924(3)
C35 C 0.2865(3) 0.3627(3) -0.0274(3)
H27 H 0.3403 0.3652 -0.0281
C36 C 0.2933(5) 0.3476(6) -0.1580(4)
H28 H 0.3478 0.3452 -0.1455
H29 H 0.2835 0.3890 -0.1912
H30 H 0.2772 0.3015 -0.1817
C37 C 0.1693(4) 0.3593(9) -0.0977(5)
H31 H 0.1526 0.3553 -0.1489
H32 H 0.1507 0.4057 -0.0776
H33 H 0.1489 0.3178 -0.0703
Co1A Co -0.396719(19) 0.027448(18) 0.30205(2)
Co1A_2 Co 0.603281(19) 0.027448(18) 0.30205(2)
Co1B Co 0.603281(19) 0.472552(18) -0.19795(2)
Co2A Co -0.321228(19) -0.104692(18) 0.37440(2)
Co2B Co 0.678772(19) 0.604692(18) -0.12560(2)
Co3C Co 0.39533(2) 0.265142(18) 0.56495(2)
O2B O 0.35624(10) 0.48651(10) 0.05884(10)
O3B O 0.44108(11) 0.56358(10) 0.10933(11)
O5A O 0.23323(10) 0.46251(10) 0.15769(11)
O8A O 0.29256(11) 0.56173(11) 0.20567(12)
O10C O 0.49558(12) 0.23206(10) -0.01491(11)
O11C O 0.37794(12) 0.20020(12) -0.03787(11)
N2A N 0.46149(12) 0.58279(12) 0.27642(13)
C38? C 0.2403(6) 0.4004(6) -0.0154(6)
H34? H 0.2220 0.4466 0.0009
O14? O -0.0899(6) 0.2201(7) 0.1975(9)
H35? H -0.1334 0.2388 0.1990
N4? N 0.2359(7) 0.3934(7) -0.0854(7)
C39? C 0.1993(9) 0.4447(9) -0.1396(9)
H36? H 0.2049 0.4250 -0.1888
H37? H 0.2238 0.4931 -0.1360
H38? H 0.1452 0.4496 -0.1296
H39? H 0.1777 0.4869 -0.1141
H40? H 0.1588 0.4187 -0.1669
H41? H 0.2374 0.4622 -0.1733
C40? C 0.2629(16) 0.3217(14) -0.1128(17)
H42? H 0.2577 0.3208 -0.1661
H43? H 0.2325 0.2819 -0.0925
H44? H 0.3164 0.3149 -0.0981
H45? H 0.2801 0.2909 -0.0717
H46? H 0.3052 0.3299 -0.1452
H47? H 0.2214 0.2969 -0.1397
O15? O 0.0908(11) 0.0333(8) 0.1685(11)
H48? H 0.0810 0.0089 0.2059
H49? H 0.0421 0.2485 0.2775
H50? H 0.0217 0.0228 0.2983
H51? H 0.2579 0.3453 -0.2001
H52? H 0.3222 0.3015 -0.1544
H53? H 0.3284 0.3889 -0.1639
H54? H 0.1489 0.3639 -0.0489
H55? H 0.1507 0.3135 -0.1203
H56? H 0.1525 0.4014 -0.1276
loop_
_geom_bond_atom_site_label_1
_geom_bond_atom_site_label_2
_geom_bond_site_symmetry_1
_geom_bond_site_symmetry_2
Co1 O1 1_555 1_555
Co2 O1 1_555 1_555
Co3 O4 1_555 1_555
O1 C12 1_555 1_555
O2 C1 1_555 1_555
O3 C1 1_555 1_555
O4 C7 1_555 1_555
O5 C13 1_555 1_555
O6 Co2 1_555 1_555
O7 Co2 1_555 1_555
O8 C13 1_555 1_555
O9 Co2 1_555 1_555
O10 C15 1_555 1_555
O11 C15 1_555 1_555
C1 C6 1_555 1_555
N1 Co3 1_555 1_555
C2 C5 1_555 1_555
C3 H1 1_555 1_555
C4 H2 1_555 1_555
N2 C19 1_555 1_555
C5 O6 1_555 1_555
C6 C3 1_555 1_555
C7 O9 1_555 1_555
C8 H3 1_555 1_555
C9 H4 1_555 1_555
C10 C9 1_555 1_555
C11 C7 1_555 1_555
C12 C9 1_555 1_555
C13 C26 1_555 1_555
C14 C2 1_555 1_555
H5 C14 1_555 1_555
C15 C10 1_555 1_555
C16 C2 1_555 1_555
C17 N1 1_555 1_555
H6 C17 1_555 1_555
H7 C17 1_555 1_555
C18 C8 1_555 1_555
H8 C18 1_555 1_555
C19 H9 1_555 1_555
H10 C19 1_555 1_555
C20 N1 1_555 1_555
H11 C20 1_555 1_555
H12 C20 1_555 1_555
C21 N2 1_555 1_555
H13 C21 1_555 1_555
H14 C21 1_555 1_555
C22 C11 1_555 1_555
H15 C22 1_555 1_555
C23 C11 1_555 1_555
H16 C23 1_555 1_555
C24 N1 1_555 1_555
H17 C24 1_555 1_555
H18 C24 1_555 1_555
C25 N2 1_555 1_555
H19 C25 1_555 1_555
H20 C25 1_555 1_555
C26 C29 1_555 1_555
C27 C22 1_555 1_555
C28 C27 1_555 1_555
C29 H21 1_555 1_555
C30 C23 1_555 1_555
H22 C30 1_555 1_555
C31 C28 1_555 1_555
C32 C31 1_555 1_555
H23 C32 1_555 1_555
C33 C26 1_555 1_555
H24 C33 1_555 1_555
O12 C27 1_555 1_555
H25 O12 1_555 1_555
O13 H26 1_555 1_555
C34 C29 1_555 1_555
N3 C35 1_555 1_555
C35 O7 1_555 1_555
H27 C35 1_555 1_555
C36 N3 1_555 1_555
H28 C36 1_555 1_555
H29 C36 1_555 1_555
H30 C36 1_555 1_555
C37 N3 1_555 1_555
H31 C37 1_555 1_555
H32 C37 1_555 1_555
H33 C37 1_555 1_555
Co1A O8 1_555 1_555
Co1A_2 N2 1_555 1_555
Co1B O3 1_555 1_555
Co2A O5 1_555 1_555
Co2B O2 1_555 1_555
Co3C O10 1_555 1_555
O2B Co2 1_555 1_555
O3B Co1 1_555 1_555
O5A Co2 1_555 1_555
O8A Co1 1_555 1_555
O10C Co3 1_555 1_555
O11C Co3 1_555 1_555
N2A Co1 1_555 1_555
Co3 O6 1_555 1_555
O11 Co3C 1_555 1_555
C3 C14 1_555 1_555
C4 C5 1_555 1_555
C4 C6 1_555 1_555
C8 C16 1_555 1_555
C10 C18 1_555 1_555
C12 C16 1_555 1_555
C17 C25 1_555 1_555
C19 C24 1_555 1_555
C20 C21 1_555 1_555
C28 C30 1_555 1_555
C31 C34 1_555 1_555
C32 C33 1_555 1_555
O13 C34 1_555 1_555

#END
