
#######################################################################
#
#                 Cambridge Crystallographic Data Centre
#                                CCDC 
#
#######################################################################
#
# If this CIF has been generated from an entry in the Cambridge 
# Structural Database, then it will include bibliographic, chemical, 
# crystal, experimental, refinement or atomic coordinate data resulting 
# from the CCDC's data processing and validation procedures.
#
#######################################################################

data_RORVAX
_chemical_formula_moiety         '(C20 H22 Co1 N2 O8)n'
_chemical_name_systematic        
"catena-[(\m-4,4'-dicarboxybiphenyl-2,2'-diolato)-(N,N-dimethylformamide)-cobalt unknown solvate]"
_symmetry_cell_setting           trigonal
_symmetry_space_group_name_H-M   'P 32 2 1'
_symmetry_Int_Tables_number      154
_space_group_name_Hall           'P 32 2"'
loop_
_symmetry_equiv_pos_site_id
_symmetry_equiv_pos_as_xyz
1 x,y,z
2 -y,x-y,2/3+z
3 -x+y,-x,1/3+z
4 x-y,-y,1/3-z
5 -x,-x+y,2/3-z
6 y,x,-z
_cell_length_a                   17.3720(4)
_cell_length_b                   17.3720(4)
_cell_length_c                   8.6547(6)
_cell_angle_alpha                90
_cell_angle_beta                 90
_cell_angle_gamma                120
_cell_volume                     2261.95
_exptl_crystal_colour            purple
_exptl_crystal_description       'hexagonal block'
_cell_formula_units_Z            3
loop_
_atom_site_label
_atom_site_type_symbol
_atom_site_fract_x
_atom_site_fract_y
_atom_site_fract_z
_atom_site_U_iso_or_equiv
_atom_site_thermal_displace_type
Co1 Co 0.46969(3) 0.46969(3) 0.0000 0.0332 Uani
O1 O 0.57181(13) 0.91800(13) -0.2409(3) 0.0454 Uani
O2 O 0.51970(12) 0.59706(12) 0.1026(2) 0.0289 Uani
O3 O 0.44321(13) 0.81329(12) -0.1381(3) 0.0364 Uani
H1 H 0.4249 0.8465 -0.1724 0.0440 Uiso
C1 C 0.57093(19) 0.79672(18) -0.1187(4) 0.0343 Uani
C2 C 0.65440(19) 0.70142(19) -0.0256(4) 0.0342 Uani
O4 O 0.43408(15) 0.51589(16) -0.2008(3) 0.0476 Uani
C3 C 0.52474(18) 0.71945(18) -0.0314(4) 0.0293 Uani
H2 H 0.4647 0.6990 -0.0036 0.0350 Uiso
C4 C 0.56511(19) 0.67215(16) 0.0154(4) 0.0307 Uani
C5 C 0.65925(19) 0.82721(19) -0.1576(5) 0.0472 Uani
H3 H 0.6919 0.8804 -0.2154 0.0570 Uiso
C6 C 0.52634(18) 0.84698(18) -0.1711(4) 0.0327 Uani
N1 N 0.4669(2) 0.6167(2) -0.3948(4) 0.0564 Uani
C7 C 0.4879(3) 0.5721(3) -0.2968(5) 0.0501 Uani
H4 H 0.5471 0.5829 -0.2981 0.0600 Uiso
C8 C 0.6987(2) 0.7793(2) -0.1112(5) 0.0482 Uani
H5 H 0.7589 0.8004 -0.1391 0.0580 Uiso
C9 C 0.3807(3) 0.6085(3) -0.3927(6) 0.0744 Uani
H6 H 0.3466 0.5712 -0.3052 0.1120 Uiso
H7 H 0.3496 0.5811 -0.4893 0.1120 Uiso
H8 H 0.3870 0.6675 -0.3821 0.1120 Uiso
C10 C 0.5327(3) 0.6825(3) -0.4958(5) 0.0671 Uani
H9 H 0.5904 0.6869 -0.4766 0.1010 Uiso
H10 H 0.5374 0.7402 -0.4761 0.1010 Uiso
H11 H 0.5153 0.6652 -0.6035 0.1010 Uiso
O1E O 0.91800(13) 0.57181(13) 0.2409(3) 0.0454 Uani
O2E O 0.59706(12) 0.51970(12) -0.1026(2) 0.0289 Uani
O3E O 0.81329(12) 0.44321(13) 0.1381(3) 0.0364 Uani
H1E H 0.8465 0.4249 0.1724 0.0440 Uiso
C1E C 0.79672(18) 0.57093(19) 0.1187(4) 0.0343 Uani
C2E C 0.70142(19) 0.65440(19) 0.0256(4) 0.0342 Uani
C3E C 0.71945(18) 0.52474(18) 0.0314(4) 0.0293 Uani
H2E H 0.6990 0.4647 0.0036 0.0350 Uiso
C4E C 0.67215(16) 0.56511(19) -0.0154(4) 0.0307 Uani
C5E C 0.82721(19) 0.65925(19) 0.1576(5) 0.0472 Uani
H3E H 0.8804 0.6919 0.2154 0.0570 Uiso
C6E C 0.84698(18) 0.52634(18) 0.1711(4) 0.0327 Uani
C8E C 0.7793(2) 0.6987(2) 0.1112(5) 0.0482 Uani
H5E H 0.8004 0.7589 0.1391 0.0580 Uiso
O4E O 0.51589(16) 0.43408(15) 0.2008(3) 0.0476 Uani
N1E N 0.6167(2) 0.4669(2) 0.3948(4) 0.0564 Uani
C7E C 0.5721(3) 0.4879(3) 0.2968(5) 0.0501 Uani
H4E H 0.5829 0.5471 0.2981 0.0600 Uiso
C9E C 0.6085(3) 0.3807(3) 0.3927(6) 0.0744 Uani
H6E H 0.5712 0.3466 0.3052 0.1120 Uiso
H7E H 0.5811 0.3496 0.4893 0.1120 Uiso
H8E H 0.6675 0.3870 0.3821 0.1120 Uiso
C10E C 0.6825(3) 0.5327(3) 0.4958(5) 0.0671 Uani
H9E H 0.6869 0.5904 0.4766 0.1010 Uiso
H10E H 0.7402 0.5374 0.4761 0.1010 Uiso
H11E H 0.6652 0.5153 0.6035 0.1010 Uiso
Co1A Co 0.53031(3) 1.00000(4) -0.3333 0.0332 Uani
Co1B Co 1.00000(4) 0.53031(3) 0.3333 0.0332 Uani
O1B O 0.34619(18) 0.42819(13) 0.0924(3) 0.0454 Uani
O1D O 0.42819(13) 0.34619(18) -0.0924(3) 0.0454 Uani
loop_
_atom_site_aniso_label
_atom_site_aniso_U_11
_atom_site_aniso_U_22
_atom_site_aniso_U_33
_atom_site_aniso_U_23
_atom_site_aniso_U_13
_atom_site_aniso_U_12
Co1 0.0194(2) 0.0194(2) 0.0598(4) -0.00405(14) 0.00405(14) 0.0090(2)
O1 0.0256(11) 0.0278(11) 0.085(2) 0.0227(11) 0.0115(11) 0.0150(10)
O2 0.0245(10) 0.0187(9) 0.0434(12) 0.0031(8) -0.0003(9) 0.0108(8)
O3 0.0232(10) 0.0268(10) 0.0621(15) 0.0093(10) 0.0027(10) 0.0147(9)
C1 0.0256(14) 0.0164(13) 0.059(2) 0.0013(13) -0.0034(14) 0.0090(11)
C2 0.0216(14) 0.0194(13) 0.061(2) 0.0007(14) -0.0029(14) 0.0098(12)
O4 0.0338(13) 0.0497(15) 0.0653(17) -0.0064(14) -0.0085(13) 0.0254(11)
C3 0.0192(13) 0.0178(13) 0.048(2) -0.0053(12) -0.0026(13) 0.0071(11)
C4 0.0222(14) 0.0149(11) 0.0515(18) -0.0043(11) -0.0046(14) 0.0067(12)
C5 0.0196(15) 0.0238(14) 0.096(3) 0.0215(16) 0.0078(15) 0.0091(12)
C6 0.0210(14) 0.0219(14) 0.053(2) 0.0005(13) -0.0049(13) 0.0090(12)
N1 0.064(2) 0.071(2) 0.052(2) -0.0138(17) -0.0154(17) 0.047(2)
C7 0.048(2) 0.055(2) 0.057(3) -0.009(2) -0.0128(19) 0.033(2)
C8 0.0183(14) 0.0298(16) 0.096(3) 0.0134(17) 0.0100(16) 0.0117(13)
C9 0.078(3) 0.100(4) 0.074(3) -0.006(3) -0.022(2) 0.066(3)
C10 0.083(3) 0.074(3) 0.052(3) 0.002(2) -0.002(2) 0.045(3)
O1E 0.0278 0.0256 0.085 -0.0115 -0.0227 0.015
O2E 0.0187 0.0245 0.0434 0.0003 -0.0031 0.0108
O3E 0.0268 0.0232 0.0621 -0.0027 -0.0093 0.0147
C1E 0.0164 0.0256 0.059 0.0034 -0.0013 0.009
C2E 0.0194 0.0216 0.061 0.0029 -0.0007 0.0098
C3E 0.0178 0.0192 0.048 0.0026 0.0053 0.0071
C4E 0.0149 0.0222 0.0515 0.0046 0.0043 0.0067
C5E 0.0238 0.0196 0.096 -0.0078 -0.0215 0.0091
C6E 0.0219 0.021 0.053 0.0049 -0.0005 0.009
C8E 0.0298 0.0183 0.096 -0.01 -0.0134 0.0117
O4E 0.0497 0.0338 0.0653 0.0085 0.0064 0.0254
N1E 0.071 0.064 0.052 0.0154 0.0138 0.047
C7E 0.055 0.048 0.057 0.0128 0.009 0.033
C9E 0.1 0.078 0.074 0.022 0.006 0.066
C10E 0.074 0.083 0.052 0.002 -0.002 0.045
Co1A 0.0194 0.0208 0.0598 0.0081 0.00405 0.0104
Co1B 0.0208 0.0194 0.0598 -0.00405 -0.0081 0.0104
O1B 0.0234 0.0256 0.085 -0.0115 0.0112 0.0106
O1D 0.0256 0.0234 0.085 -0.0112 0.0115 0.0106
loop_
_geom_bond_atom_site_label_1
_geom_bond_atom_site_label_2
_geom_bond_site_symmetry_1
_geom_bond_site_symmetry_2
Co1 O2 1_555 1_555
O1 C6 1_555 1_555
O2 C4 1_555 1_555
O3 H1 1_555 1_555
C1 C3 1_555 1_555
C2 C4 1_555 1_555
O4 Co1 1_555 1_555
C3 H2 1_555 1_555
C4 C3 1_555 1_555
C5 C1 1_555 1_555
H3 C5 1_555 1_555
C6 O3 1_555 1_555
N1 C7 1_555 1_555
C7 O4 1_555 1_555
H4 C7 1_555 1_555
C8 C2 1_555 1_555
H5 C8 1_555 1_555
C9 N1 1_555 1_555
H6 C9 1_555 1_555
H7 C9 1_555 1_555
H8 C9 1_555 1_555
C10 N1 1_555 1_555
H9 C10 1_555 1_555
H10 C10 1_555 1_555
H11 C10 1_555 1_555
O1E C6E 1_555 1_555
O2E Co1 1_555 1_555
O3E H1E 1_555 1_555
C1E C3E 1_555 1_555
C2E C2 1_555 1_555
C3E H2E 1_555 1_555
C4E O2E 1_555 1_555
C5E C1E 1_555 1_555
H3E C5E 1_555 1_555
C6E O3E 1_555 1_555
C8E C2E 1_555 1_555
H5E C8E 1_555 1_555
O4E Co1 1_555 1_555
N1E C7E 1_555 1_555
C7E O4E 1_555 1_555
H4E C7E 1_555 1_555
C9E N1E 1_555 1_555
H6E C9E 1_555 1_555
H7E C9E 1_555 1_555
H8E C9E 1_555 1_555
C10E N1E 1_555 1_555
H9E C10E 1_555 1_555
H10E C10E 1_555 1_555
H11E C10E 1_555 1_555
Co1A O1 1_555 1_555
Co1B O1E 1_555 1_555
O1B Co1 1_555 1_555
O1D Co1 1_555 1_555
C1 C6 1_555 1_555
C5 C8 1_555 1_555
C1E C6E 1_555 1_555
C2E C4E 1_555 1_555
C3E C4E 1_555 1_555
C5E C8E 1_555 1_555

#END
