
#######################################################################
#
#                 Cambridge Crystallographic Data Centre
#                                CCDC 
#
#######################################################################
#
# If this CIF has been generated from an entry in the Cambridge 
# Structural Database, then it will include bibliographic, chemical, 
# crystal, experimental, refinement or atomic coordinate data resulting 
# from the CCDC's data processing and validation procedures.
#
#######################################################################

data_WOMXED
_chemical_name_common            gea-MOF-2
_chemical_formula_moiety         '(C144 H82 Cu6 N2 O30)n'
_chemical_name_systematic        
"catena-[bis(\m-9-[4-((3,5-bis[(4,4''-dicarboxylato-1,1':3',1''-terphenyl-5'-yl)ethynyl]phenyl)ethynyl)phenyl]-9H-carbazole-3,6-dicarboxylato)-hexa-aqua-hexa-copper(ii) unknown solvate]"
_symmetry_cell_setting           hexagonal
_symmetry_space_group_name_H-M   'P 63/m m c'
_symmetry_Int_Tables_number      194
_space_group_name_Hall           '-P 6c 2c'
loop_
_symmetry_equiv_pos_site_id
_symmetry_equiv_pos_as_xyz
1 x,y,z
2 -y,x-y,z
3 -x+y,-x,z
4 -x,-y,1/2+z
5 y,-x+y,1/2+z
6 x-y,x,1/2+z
7 y,x,-z
8 x-y,-y,-z
9 -x,-x+y,-z
10 -y,-x,1/2-z
11 -x+y,y,1/2-z
12 x,x-y,1/2-z
13 -x,-y,-z
14 y,-x+y,-z
15 x-y,x,-z
16 x,y,1/2-z
17 -y,x-y,1/2-z
18 -x+y,-x,1/2-z
19 -y,-x,z
20 -x+y,y,z
21 x,x-y,z
22 y,x,1/2+z
23 x-y,-y,1/2+z
24 -x,-x+y,1/2+z
_cell_length_a                   37.1384(13)
_cell_length_b                   37.1384(13)
_cell_length_c                   74.478(4)
_cell_angle_alpha                90
_cell_angle_beta                 90
_cell_angle_gamma                120
_cell_volume                     88962.1
_exptl_crystal_colour            blue
_cell_formula_units_Z            6
loop_
_atom_site_label
_atom_site_type_symbol
_atom_site_fract_x
_atom_site_fract_y
_atom_site_fract_z
Cu1 Cu 0.45344(2) 0.54656(2) 0.55818(2)
O1 O 0.48481(13) 0.51519(13) 0.54342(8)
O2 O 0.47688(14) 0.59632(17) 0.54387(6)
O3 O 0.49892(14) 0.57449(16) 0.57524(7)
C1 C 0.4673(5) 0.6234(5) 0.5468(2)
O4 O 0.44745(14) 0.62632(13) 0.56011(6)
C2 C 0.4784(4) 0.6591(4) 0.53401(17)
Cu2 Cu 0.41934(2) 0.58066(2) 0.57717(2)
C3 C 0.4743(4) 0.6938(5) 0.53718(16)
C4 C 0.4988(4) 0.6573(4) 0.5187(2)
O5 O 0.39014(10) 0.60986(10) 0.59334(10)
O6 O 0.46974(16) 0.60381(14) 0.59171(6)
H1 H 0.4604 0.6950 0.5477
C5 C 0.4905(4) 0.7265(4) 0.5250(2)
C6 C 0.5150(4) 0.6900(5) 0.50651(15)
H2 H 0.5016 0.6336 0.5165
C7 C 0.5108(4) 0.7247(4) 0.50968(18)
H3 H 0.5289 0.6888 0.4960
N1 N 0.5199(5) 0.7599(3) 0.5006(2)
C8 C 0.5387(5) 0.7693(2) 0.4834(2)
C9 C 0.5744(5) 0.8073(2) 0.4803(2)
H4 H 0.5865 0.8270 0.4897
C10 C 0.5925(5) 0.8164(5) 0.4633(3)
H5 H 0.6169 0.8423 0.4612
C11 C 0.5749(6) 0.7875(7) 0.4495(2)
C12 C 0.5893(10) 0.7946(5) 0.4310(3)
C13 C 0.6085(11) 0.8042(6) 0.4171(3)
C14 C 0.6263(7) 0.8132(3) 0.3995(3)
C15 C 0.6338(5) 0.7855(5) 0.3913(3)
H6 H 0.6281 0.7609 0.3975
C16 C 0.6501(6) 0.7924(7) 0.3735(3)
C17 C 0.6581(8) 0.8290(4) 0.3647(3)
C18 C 0.6528(8) 0.7612(7) 0.3647(3)
H7 H 0.6689 0.8344 0.3528
C19 C 0.6554(8) 0.7336(6) 0.3589(3)
C20 C 0.6636(4) 0.7012(3) 0.35365(16)
C21 C 0.6824(4) 0.7001(3) 0.33770(15)
C22 C 0.6484(4) 0.6679(3) 0.36549(14)
C23 C 0.6861(4) 0.6656(4) 0.33359(12)
H8 H 0.6927 0.7229 0.3296
H9 H 0.6355 0.6687 0.3764
C24 C 0.6521(4) 0.6334(3) 0.36138(13)
C25 C 0.7109(4) 0.6696(5) 0.31752(15)
C26 C 0.6710(4) 0.6322(3) 0.34543(13)
C27 C 0.6344(3) 0.5953(3) 0.37420(13)
C28 C 0.7430(4) 0.7076(4) 0.31147(16)
C29 C 0.7016(4) 0.6332(4) 0.30848(18)
H10 H 0.6735 0.6086 0.3426
C30 C 0.6063(3) 0.5917(3) 0.38741(15)
C31 C 0.6461(3) 0.5653(3) 0.37266(12)
C32 C 0.7658(3) 0.7092(3) 0.29638(16)
H11 H 0.7494 0.7325 0.3177
H12 H 0.6797 0.6073 0.3126
C33 C 0.7244(4) 0.6348(3) 0.29338(16)
C34 C 0.5899(3) 0.5579(3) 0.39908(13)
H13 H 0.5983 0.6122 0.3885
H14 H 0.6653 0.5678 0.3636
C35 C 0.6297(4) 0.5315(3) 0.38433(13)
C36 C 0.7565(4) 0.6728(4) 0.28734(12)
H15 H 0.7877 0.7352 0.2922
H16 H 0.7180 0.6100 0.2872
C37 C 0.6016(3) 0.5279(3) 0.39754(12)
H17 H 0.5707 0.5554 0.4081
H18 H 0.6377 0.5110 0.3833
C38 C 0.7883(6) 0.6780(5) 0.2730(3)
C39 C 0.5920(6) 0.4953(5) 0.4114(2)
O7 O 0.81938(18) 0.71268(17) 0.26848(6)
O8 O 0.78376(15) 0.64242(18) 0.26872(6)
Cu3 Cu 0.85880(3) 0.71760(7) 0.2500
Cu4 Cu 0.81790(3) 0.63580(6) 0.2500
O9 O 0.89471(19) 0.7894(4) 0.2500
O10 O 0.78232(15) 0.5646(3) 0.2500
O3R O 0.42551(16) 0.50108(14) 0.57524(7)
O2R O 0.40368(17) 0.52312(14) 0.54387(6)
O4R O 0.37368(13) 0.55255(14) 0.56011(6)
O6R O 0.39619(14) 0.53026(16) 0.59171(6)
C5T C 0.4905(4) 0.7640(6) 0.5250(2)
C3T C 0.4743(4) 0.7805(6) 0.53718(16)
C7T C 0.5108(4) 0.7861(6) 0.50968(18)
C2T C 0.4784(4) 0.8193(6) 0.53401(17)
H1T H 0.4604 0.7654 0.5477
C6T C 0.5150(4) 0.8250(6) 0.50651(15)
C9T C 0.5744(5) 0.7671(5) 0.4803(2)
C1T C 0.4673(5) 0.8439(7) 0.5468(2)
C4T C 0.4988(4) 0.8415(6) 0.5187(2)
H3T H 0.5289 0.8401 0.4960
H4T H 0.5865 0.7595 0.4897
C10T C 0.5925(5) 0.7761(7) 0.4633(3)
O4T O 0.44745(14) 0.82113(19) 0.56011(6)
O2T O 0.47688(14) 0.88056(22) 0.54387(6)
H2T H 0.5016 0.8680 0.5165
H5T H 0.6169 0.7746 0.4612
Cu2A Cu 0.41934(2) 0.83868(3) 0.57717(2)
Cu1A Cu 0.45344(2) 0.90688(3) 0.55818(2)
O4A O 0.37368(13) 0.82113(19) 0.56011(6)
O5A O 0.39014(10) 0.78028(14) 0.59334(10)
O6A O 0.39619(14) 0.86593(21) 0.59171(6)
O6T O 0.46974(16) 0.86593(21) 0.59171(6)
O1A O 0.48481(13) 0.96962(18) 0.54342(8)
O2A O 0.40368(17) 0.88056(22) 0.54387(6)
O3A O 0.42551(16) 0.92443(21) 0.57524(7)
O3T O 0.49892(14) 0.92443(21) 0.57524(7)
C1A C 0.3766(5) 0.8439(7) 0.5468(2)
C2A C 0.3409(4) 0.8193(6) 0.53401(17)
C15T C 0.6338(5) 0.8483(7) 0.3913(3)
C3A C 0.3062(5) 0.7805(6) 0.53718(16)
C4A C 0.3427(4) 0.8415(6) 0.5187(2)
H6T H 0.6281 0.8672 0.3975
C16T C 0.6501(6) 0.8577(9) 0.3735(3)
H1A H 0.3050 0.7654 0.5477
C5A C 0.2735(4) 0.7640(6) 0.5250(2)
C6A C 0.3100(5) 0.8250(6) 0.50651(15)
H2A H 0.3664 0.8680 0.5165
C18T C 0.6528(8) 0.8916(11) 0.3647(3)
C7A C 0.2753(4) 0.7861(6) 0.50968(18)
C5S C 0.2360(6) 0.7265(4) 0.5250(2)
H3A H 0.3112 0.8401 0.4960
C19T C 0.6554(8) 0.9218(10) 0.3589(3)
N1A N 0.2401(3) 0.7600(6) 0.5006(2)
C3S C 0.2195(6) 0.6938(5) 0.53718(16)
C7S C 0.2139(6) 0.7247(4) 0.50968(18)
C20T C 0.6636(4) 0.9624(5) 0.35365(16)
C8A C 0.2307(2) 0.7694(5) 0.4834(2)
C2S C 0.1807(6) 0.6591(4) 0.53401(17)
H1S H 0.2346 0.6950 0.5477
C6S C 0.1750(6) 0.6900(5) 0.50651(15)
C21T C 0.6824(4) 0.9823(5) 0.33770(15)
C22T C 0.6484(4) 0.9805(5) 0.36549(14)
C9A C 0.1927(2) 0.7671(5) 0.4803(2)
C9S C 0.2329(5) 0.8073(2) 0.4803(2)
C1S C 0.1561(7) 0.6234(5) 0.5468(2)
C4S C 0.1585(6) 0.6573(4) 0.5187(2)
H3S H 0.1599 0.6888 0.4960
C23T C 0.6861(4) 1.0205(6) 0.33359(12)
H8T H 0.6927 0.9698 0.3296
H9T H 0.6355 0.9668 0.3764
C24T C 0.6521(4) 1.0187(5) 0.36138(13)
H4A H 0.1730 0.7595 0.4897
C10A C 0.1836(5) 0.7761(7) 0.4633(3)
H4S H 0.2405 0.8270 0.4897
C10S C 0.2239(7) 0.8164(5) 0.4633(3)
O4S O 0.17887(19) 0.62632(13) 0.56011(6)
O2S O 0.11944(22) 0.59632(17) 0.54387(6)
H2S H 0.1320 0.6336 0.5165
C25T C 0.7109(4) 1.0413(6) 0.31752(15)
C26T C 0.6710(4) 1.0388(5) 0.34543(13)
C27T C 0.6344(3) 1.0391(4) 0.37420(13)
H5A H 0.1577 0.7746 0.4612
C11A C 0.2125(7) 0.7874(9) 0.4495(2)
H5S H 0.2254 0.8423 0.4612
Cu2B Cu 0.16132(3) 0.58066(2) 0.57717(2)
Cu1B Cu 0.09312(3) 0.54656(2) 0.55818(2)
C28T C 0.7430(4) 1.0354(6) 0.31147(16)
C29T C 0.7016(4) 1.0684(6) 0.30848(18)
H10T H 0.6735 1.0649 0.3426
C30T C 0.6063(3) 1.0146(4) 0.38741(15)
C31T C 0.6461(3) 1.0808(4) 0.37266(12)
C12A C 0.2054(5) 0.7947(11) 0.4310(3)
C32T C 0.7658(3) 1.0566(4) 0.29638(16)
H11T H 0.7494 1.0169 0.3177
H12T H 0.6797 1.0724 0.3126
C33T C 0.7244(4) 1.0896(5) 0.29338(16)
C34T C 0.5899(3) 1.0320(4) 0.39908(13)
H13T H 0.5983 0.9861 0.3885
H14T H 0.6653 1.0975 0.3636
C35T C 0.6297(4) 1.0982(5) 0.38433(13)
C13A C 0.1958(6) 0.8043(13) 0.4171(3)
C36T C 0.7565(4) 1.0837(6) 0.28734(12)
H15T H 0.7877 1.0525 0.2922
H16T H 0.7180 1.1080 0.2872
C37T C 0.6016(3) 1.0737(4) 0.39754(12)
H17T H 0.5707 1.0153 0.4081
H18T H 0.6377 1.1267 0.3833
C14A C 0.1868(3) 0.8131(8) 0.3995(3)
C38T C 0.7883(6) 1.1103(8) 0.2730(3)
C39T C 0.5920(6) 1.0967(8) 0.4114(2)
C15A C 0.2145(5) 0.8483(7) 0.3913(3)
C15S C 0.1517(7) 0.7855(5) 0.3913(3)
O3F O 0.57449(16) 0.49892(14) 0.42476(7)
O6F O 0.60381(14) 0.46974(16) 0.40829(6)
O7T O 0.81938(18) 1.10670(25) 0.26848(6)
O8T O 0.78376(15) 1.14134(23) 0.26872(6)
O3M O 0.57449(16) 1.07557(21) 0.42476(7)
O6M O 0.60381(14) 1.13407(21) 0.40829(6)
H6A H 0.2391 0.8672 0.3975
C16A C 0.2076(7) 0.8577(9) 0.3735(3)
H6S H 0.1328 0.7609 0.3975
C16S C 0.1423(9) 0.7924(7) 0.3735(3)
Cu1F Cu 0.54656(2) 0.45344(2) 0.44182(2)
Cu2F Cu 0.58066(2) 0.41934(2) 0.42283(2)
Cu3B Cu 0.85880(8) 1.14120(3) 0.2500
Cu4B Cu 0.81790(7) 1.18210(3) 0.2500
Cu1H Cu 0.54656(2) 1.09312(3) 0.44182(2)
Cu2H Cu 0.58066(2) 1.16132(3) 0.42283(2)
C17A C 0.1710(4) 0.8291(9) 0.3647(3)
C18A C 0.2388(7) 0.8916(11) 0.3647(3)
C18S C 0.1084(11) 0.7612(7) 0.3647(3)
O7J O 0.89330(25) 0.71268(17) 0.23152(6)
O7O O 0.81938(18) 0.71268(17) 0.23152(6)
O7S O 0.89330(25) 0.71268(17) 0.26848(6)
O8J O 0.85866(23) 0.64242(18) 0.23128(6)
O8O O 0.78376(15) 0.64242(18) 0.23128(6)
O8S O 0.85866(23) 0.64242(18) 0.26872(6)
O3H O 0.50108(14) 1.07557(21) 0.42476(7)
O6H O 0.53026(16) 1.13407(21) 0.40829(6)
H7A H 0.1656 0.8345 0.3528
C19A C 0.2664(6) 0.9218(10) 0.3589(3)
C19S C 0.0782(10) 0.7336(6) 0.3589(3)
C39A C 0.5047(5) 1.0967(8) 0.4114(2)
C20A C 0.2988(3) 0.9624(5) 0.35365(16)
C20S C 0.0376(5) 0.7012(3) 0.35365(16)
C37A C 0.4721(3) 1.0737(4) 0.39754(12)
C21A C 0.2999(3) 0.9823(5) 0.33770(15)
C22A C 0.3321(3) 0.9805(5) 0.36549(14)
C21S C 0.0177(5) 0.7001(3) 0.33770(15)
C22S C 0.0195(5) 0.6679(3) 0.36549(14)
C34A C 0.4421(3) 1.0320(4) 0.39908(13)
C35A C 0.4685(3) 1.0982(5) 0.38433(13)
C23A C 0.3344(4) 1.0205(6) 0.33359(12)
H8A H 0.2771 0.9698 0.3296
H9A H 0.3313 0.9668 0.3764
C24A C 0.3666(3) 1.0187(5) 0.36138(13)
C23S C -0.0205(6) 0.6656(4) 0.33359(12)
H8S H 0.0302 0.7229 0.3296
H9S H 0.0332 0.6687 0.3764
C24S C -0.0187(5) 0.6334(3) 0.36138(13)
H17A H 0.4446 1.0153 0.4081
C30A C 0.4083(3) 1.0146(4) 0.38741(15)
C31A C 0.4347(3) 1.0808(4) 0.37266(12)
H18A H 0.4890 1.1267 0.3833
C25A C 0.3304(5) 1.0413(6) 0.31752(15)
C26A C 0.3678(3) 1.0388(5) 0.34543(13)
C27A C 0.4047(3) 1.0391(4) 0.37420(13)
C25S C -0.0413(6) 0.6696(5) 0.31752(15)
C26S C -0.0388(5) 0.6322(3) 0.34543(13)
C27S C -0.0391(4) 0.5953(3) 0.37420(13)
H13A H 0.3878 0.9861 0.3885
H14A H 0.4322 1.0975 0.3636
C28A C 0.2924(4) 1.0354(6) 0.31147(16)
C29A C 0.3668(4) 1.0684(6) 0.30848(18)
H10A H 0.3914 1.0649 0.3426
C28S C -0.0354(6) 0.7076(4) 0.31147(16)
C29S C -0.0684(6) 0.6332(4) 0.30848(18)
H10S H -0.0649 0.6086 0.3426
C30S C -0.0146(4) 0.5917(3) 0.38741(15)
C31S C -0.0808(4) 0.5653(3) 0.37266(12)
C32A C 0.2908(3) 1.0566(4) 0.29638(16)
H11A H 0.2675 1.0169 0.3177
H12A H 0.3927 1.0724 0.3126
C33A C 0.3652(3) 1.0896(5) 0.29338(16)
C32S C -0.0566(4) 0.7092(3) 0.29638(16)
H11S H -0.0169 0.7325 0.3177
H12S H -0.0724 0.6073 0.3126
C33S C -0.0896(5) 0.6348(3) 0.29338(16)
C34S C -0.0320(4) 0.5579(3) 0.39908(13)
H13S H 0.0139 0.6122 0.3885
H14S H -0.0975 0.5678 0.3636
C35S C -0.0982(5) 0.5315(3) 0.38433(13)
C36A C 0.3272(4) 1.0837(6) 0.28734(12)
H15A H 0.2648 1.0525 0.2922
H16A H 0.3900 1.1080 0.2872
C36S C -0.0837(6) 0.6728(4) 0.28734(12)
H15S H -0.0525 0.7352 0.2922
H16S H -0.1080 0.6100 0.2872
C37S C -0.0737(4) 0.5279(3) 0.39754(12)
H17S H -0.0153 0.5554 0.4081
H18S H -0.1267 0.5110 0.3833
C38A C 0.3220(5) 1.1103(8) 0.2730(3)
C38S C -0.1103(8) 0.6780(5) 0.2730(3)
C39S C -0.0967(8) 0.4953(5) 0.4114(2)
O7A O 0.28732(17) 1.10670(25) 0.26848(6)
O8A O 0.35758(18) 1.14134(23) 0.26872(6)
O7S_2 O -0.10670(25) 0.71268(17) 0.26848(6)
O8S_2 O -0.14134(23) 0.64242(18) 0.26872(6)
O3N O -0.07557(21) 0.49892(14) 0.42476(7)
O6N O -0.13407(21) 0.46974(16) 0.40829(6)
Cu3A Cu 0.28240(7) 1.14120(8) 0.2500
Cu4A Cu 0.36420(6) 1.18210(7) 0.2500
Cu3_2 Cu -0.14120(3) 0.71760(7) 0.2500
Cu4_2 Cu -0.18210(3) 0.63580(6) 0.2500
Cu1G Cu -0.09312(3) 0.45344(2) 0.44182(2)
Cu2G Cu -0.16132(3) 0.41934(2) 0.42283(2)
C40? C 0.7156(4) 0.6826(5) 0.34048(14)
C41? C 0.7164(4) 0.7186(4) 0.34627(17)
H19? H 0.7292 0.7429 0.3391
C42? C 0.6985(5) 0.7189(4) 0.36261(19)
C43? C 0.6797(5) 0.6833(4) 0.37316(15)
H20? H 0.6675 0.6836 0.3843
C44? C 0.6789(4) 0.6473(4) 0.36738(16)
C45? C 0.6968(4) 0.6470(4) 0.35104(17)
H21? H 0.6963 0.6224 0.3471
C46? C 0.6957(9) 0.7550(6) 0.3688(3)
C47? C 0.6997(7) 0.7852(7) 0.3763(3)
C48? C 0.6945(5) 0.8170(7) 0.3846(3)
C49? C 0.7019(7) 0.8509(3) 0.3763(3)
H22? H 0.7124 0.8562 0.3643
C50? C 0.6789(5) 0.8057(5) 0.4022(3)
H23? H 0.6740 0.7807 0.4078
C51? C 0.6711(6) 0.8355(3) 0.4109(3)
C52? C 0.6558(9) 0.8279(5) 0.4286(3)
C53? C 0.6341(9) 0.8170(5) 0.4412(3)
C54? C 0.5715(5) 0.7857(3) 0.4910(2)
C55? C 0.6092(5) 0.8221(2) 0.4892(2)
H24? H 0.6204 0.8408 0.4991
C56? C 0.6306(4) 0.8315(5) 0.4730(3)
H25? H 0.6571 0.8560 0.4721
C57? C 0.6144(6) 0.8063(7) 0.4587(2)
C58? C 0.5767(7) 0.7672(7) 0.4605(2)
H26? H 0.5666 0.7480 0.4508
C59? C 0.5553(6) 0.7579(3) 0.4767(2)
H27? H 0.5296 0.7326 0.4780
N2? N 0.5493(5) 0.7746(3) 0.5073(2)
C60? C 0.7980(6) 0.6783(5) 0.2752(2)
C61? C 0.7763(4) 0.6802(4) 0.29215(13)
C62? C 0.7907(3) 0.7176(4) 0.30128(17)
H28? H 0.8140 0.7422 0.2969
C63? C 0.7709(4) 0.7189(4) 0.31690(17)
H29? H 0.7807 0.7445 0.3231
C64? C 0.7368(5) 0.6829(6) 0.32338(15)
C65? C 0.7224(4) 0.6456(4) 0.31425(18)
H30? H 0.6991 0.6210 0.3187
C66? C 0.7422(4) 0.6442(3) 0.29863(17)
H31? H 0.7325 0.6187 0.2924
C67? C 0.6272(3) 0.5402(3) 0.40202(13)
C68? C 0.6156(3) 0.5702(3) 0.40448(13)
H32? H 0.5956 0.5663 0.4134
C69? C 0.6333(4) 0.6058(3) 0.39394(17)
H33? H 0.6254 0.6263 0.3956
C70? C 0.6625(4) 0.6116(3) 0.38092(16)
C71? C 0.6741(3) 0.5816(4) 0.37846(15)
H34? H 0.6940 0.5855 0.3696
C72? C 0.6564(4) 0.5460(4) 0.38900(16)
H35? H 0.6643 0.5255 0.3873
C73? C 0.5992(8) 0.5009(6) 0.4125(3)
C74? C 0.4965(4) 0.6664(3) 0.53720(15)
C75? C 0.4908(3) 0.6997(4) 0.54140(14)
H36? H 0.4739 0.6978 0.5513
C76? C 0.5099(4) 0.7357(3) 0.5311(2)
C77? C 0.5347(4) 0.7384(3) 0.51657(19)
C78? C 0.5404(3) 0.7051(5) 0.51237(15)
H37? H 0.5573 0.7070 0.5025
C79? C 0.5213(4) 0.6691(4) 0.52269(17)
H38? H 0.5252 0.6464 0.5198
C80? C 0.4724(5) 0.6266(5) 0.5480(2)
C81? C 0.5391(6) 0.7496(6) 0.4527(2)
C82? C 0.5210(5) 0.7405(3) 0.4696(2)
H39? H 0.5270 0.7299 0.4433
H40? H 0.4966 0.7146 0.4718
loop_
_geom_bond_atom_site_label_1
_geom_bond_atom_site_label_2
_geom_bond_site_symmetry_1
_geom_bond_site_symmetry_2
Cu1 O1 1_555 1_555
O2 Cu1 1_555 1_555
O3 Cu1 1_555 1_555
C1 O2 1_555 1_555
O4 C1 1_555 1_555
C2 C1 1_555 1_555
Cu2 O4 1_555 1_555
C3 C2 1_555 1_555
C4 C2 1_555 1_555
O5 Cu2 1_555 1_555
O6 Cu2 1_555 1_555
H1 C3 1_555 1_555
C5 C3 1_555 1_555
C6 C4 1_555 1_555
H2 C4 1_555 1_555
C7 C5 1_555 1_555
H3 C6 1_555 1_555
N1 C7 1_555 1_555
C8 N1 1_555 1_555
C9 C8 1_555 1_555
H4 C9 1_555 1_555
C10 C9 1_555 1_555
H5 C10 1_555 1_555
C11 C10 1_555 1_555
C12 C11 1_555 1_555
C13 C12 1_555 1_555
C14 C13 1_555 1_555
C15 C14 1_555 1_555
H6 C15 1_555 1_555
C16 C15 1_555 1_555
C17 C16 1_555 1_555
C18 C16 1_555 1_555
H7 C17 1_555 1_555
C19 C18 1_555 1_555
C20 C19 1_555 1_555
C21 C20 1_555 1_555
C22 C20 1_555 1_555
C23 C21 1_555 1_555
H8 C21 1_555 1_555
H9 C22 1_555 1_555
C24 C22 1_555 1_555
C25 C23 1_555 1_555
C26 C23 1_555 1_555
C27 C24 1_555 1_555
C28 C25 1_555 1_555
C29 C25 1_555 1_555
H10 C26 1_555 1_555
C30 C27 1_555 1_555
C31 C27 1_555 1_555
C32 C28 1_555 1_555
H11 C28 1_555 1_555
H12 C29 1_555 1_555
C33 C29 1_555 1_555
C34 C30 1_555 1_555
H13 C30 1_555 1_555
H14 C31 1_555 1_555
C35 C31 1_555 1_555
C36 C32 1_555 1_555
H15 C32 1_555 1_555
H16 C33 1_555 1_555
C37 C34 1_555 1_555
H17 C34 1_555 1_555
H18 C35 1_555 1_555
C38 C36 1_555 1_555
C39 C37 1_555 1_555
O7 C38 1_555 1_555
O8 C38 1_555 1_555
Cu3 O7 1_555 1_555
Cu4 O8 1_555 1_555
O9 Cu3 1_555 1_555
O10 Cu4 1_555 1_555
O3R Cu1 1_555 1_555
O2R Cu1 1_555 1_555
O4R Cu2 1_555 1_555
O6R Cu2 1_555 1_555
C5T C5 1_555 1_555
C3T C5T 1_555 1_555
C7T N1 1_555 1_555
C2T C3T 1_555 1_555
H1T C3T 1_555 1_555
C6T C7T 1_555 1_555
C9T C8 1_555 1_555
C1T C2T 1_555 1_555
C4T C2T 1_555 1_555
H3T C6T 1_555 1_555
H4T C9T 1_555 1_555
C10T C11 1_555 1_555
O4T C1T 1_555 1_555
O2T C1T 1_555 1_555
H2T C4T 1_555 1_555
H5T C10T 1_555 1_555
Cu2A O4T 1_555 1_555
Cu1A O2T 1_555 1_555
O4A Cu2A 1_555 1_555
O5A Cu2A 1_555 1_555
O6A Cu2A 1_555 1_555
O6T Cu2A 1_555 1_555
O1A Cu1A 1_555 1_555
O2A Cu1A 1_555 1_555
O3A Cu1A 1_555 1_555
O3T Cu1A 1_555 1_555
C1A O4A 1_555 1_555
C2A C1A 1_555 1_555
C15T C14 1_555 1_555
C3A C2A 1_555 1_555
C4A C2A 1_555 1_555
H6T C15T 1_555 1_555
C16T C17 1_555 1_555
H1A C3A 1_555 1_555
C5A C3A 1_555 1_555
C6A C4A 1_555 1_555
H2A C4A 1_555 1_555
C18T C16T 1_555 1_555
C7A C5A 1_555 1_555
C5S C5A 1_555 1_555
H3A C6A 1_555 1_555
C19T C18T 1_555 1_555
N1A C7A 1_555 1_555
C3S C5S 1_555 1_555
C7S C5S 1_555 1_555
C20T C19T 1_555 1_555
C8A N1A 1_555 1_555
C2S C3S 1_555 1_555
H1S C3S 1_555 1_555
C6S C7S 1_555 1_555
C21T C20T 1_555 1_555
C22T C20T 1_555 1_555
C9A C8A 1_555 1_555
C9S C8A 1_555 1_555
C1S C2S 1_555 1_555
C4S C2S 1_555 1_555
H3S C6S 1_555 1_555
C23T C21T 1_555 1_555
H8T C21T 1_555 1_555
H9T C22T 1_555 1_555
C24T C22T 1_555 1_555
H4A C9A 1_555 1_555
C10A C9A 1_555 1_555
H4S C9S 1_555 1_555
C10S C9S 1_555 1_555
O4S C1S 1_555 1_555
O2S C1S 1_555 1_555
H2S C4S 1_555 1_555
C25T C23T 1_555 1_555
C26T C23T 1_555 1_555
C27T C24T 1_555 1_555
H5A C10A 1_555 1_555
C11A C10A 1_555 1_555
H5S C10S 1_555 1_555
Cu2B O4S 1_555 1_555
Cu1B O2S 1_555 1_555
C28T C25T 1_555 1_555
C29T C25T 1_555 1_555
H10T C26T 1_555 1_555
C30T C27T 1_555 1_555
C31T C27T 1_555 1_555
C12A C11A 1_555 1_555
C32T C28T 1_555 1_555
H11T C28T 1_555 1_555
H12T C29T 1_555 1_555
C33T C29T 1_555 1_555
C34T C30T 1_555 1_555
H13T C30T 1_555 1_555
H14T C31T 1_555 1_555
C35T C31T 1_555 1_555
C13A C12A 1_555 1_555
C36T C32T 1_555 1_555
H15T C32T 1_555 1_555
H16T C33T 1_555 1_555
C37T C34T 1_555 1_555
H17T C34T 1_555 1_555
H18T C35T 1_555 1_555
C14A C13A 1_555 1_555
C38T C36T 1_555 1_555
C39T C37T 1_555 1_555
C15A C14A 1_555 1_555
C15S C14A 1_555 1_555
O3F C39 1_555 1_555
O6F C39 1_555 1_555
O7T C38T 1_555 1_555
O8T C38T 1_555 1_555
O3M C39T 1_555 1_555
O6M C39T 1_555 1_555
H6A C15A 1_555 1_555
C16A C15A 1_555 1_555
H6S C15S 1_555 1_555
C16S C15S 1_555 1_555
Cu1F O3F 1_555 1_555
Cu2F O6F 1_555 1_555
Cu3B O7T 1_555 1_555
Cu4B O8T 1_555 1_555
Cu1H O3M 1_555 1_555
Cu2H O6M 1_555 1_555
C17A C16A 1_555 1_555
C18A C16A 1_555 1_555
C18S C16S 1_555 1_555
O7J Cu3 1_555 1_555
O7O Cu3 1_555 1_555
O7S Cu3 1_555 1_555
O8J Cu4 1_555 1_555
O8O Cu4 1_555 1_555
O8S Cu4 1_555 1_555
O3H Cu1H 1_555 1_555
O6H Cu2H 1_555 1_555
H7A C17A 1_555 1_555
C19A C18A 1_555 1_555
C19S C18S 1_555 1_555
C39A O3H 1_555 1_555
C20A C19A 1_555 1_555
C20S C19S 1_555 1_555
C37A C39A 1_555 1_555
C21A C20A 1_555 1_555
C22A C20A 1_555 1_555
C21S C20S 1_555 1_555
C22S C20S 1_555 1_555
C34A C37A 1_555 1_555
C35A C37A 1_555 1_555
C23A C21A 1_555 1_555
H8A C21A 1_555 1_555
H9A C22A 1_555 1_555
C24A C22A 1_555 1_555
C23S C21S 1_555 1_555
H8S C21S 1_555 1_555
H9S C22S 1_555 1_555
C24S C22S 1_555 1_555
H17A C34A 1_555 1_555
C30A C34A 1_555 1_555
C31A C35A 1_555 1_555
H18A C35A 1_555 1_555
C25A C23A 1_555 1_555
C26A C23A 1_555 1_555
C27A C24A 1_555 1_555
C25S C23S 1_555 1_555
C26S C23S 1_555 1_555
C27S C24S 1_555 1_555
H13A C30A 1_555 1_555
H14A C31A 1_555 1_555
C28A C25A 1_555 1_555
C29A C25A 1_555 1_555
H10A C26A 1_555 1_555
C28S C25S 1_555 1_555
C29S C25S 1_555 1_555
H10S C26S 1_555 1_555
C30S C27S 1_555 1_555
C31S C27S 1_555 1_555
C32A C28A 1_555 1_555
H11A C28A 1_555 1_555
H12A C29A 1_555 1_555
C33A C29A 1_555 1_555
C32S C28S 1_555 1_555
H11S C28S 1_555 1_555
H12S C29S 1_555 1_555
C33S C29S 1_555 1_555
C34S C30S 1_555 1_555
H13S C30S 1_555 1_555
H14S C31S 1_555 1_555
C35S C31S 1_555 1_555
C36A C32A 1_555 1_555
H15A C32A 1_555 1_555
H16A C33A 1_555 1_555
C36S C32S 1_555 1_555
H15S C32S 1_555 1_555
H16S C33S 1_555 1_555
C37S C34S 1_555 1_555
H17S C34S 1_555 1_555
H18S C35S 1_555 1_555
C38A C36A 1_555 1_555
C38S C36S 1_555 1_555
C39S C37S 1_555 1_555
O7A C38A 1_555 1_555
O8A C38A 1_555 1_555
O7S_2 C38S 1_555 1_555
O8S_2 C38S 1_555 1_555
O3N C39S 1_555 1_555
O6N C39S 1_555 1_555
Cu3A O7A 1_555 1_555
Cu4A O8A 1_555 1_555
Cu3_2 O7S_2 1_555 1_555
Cu4_2 O8S_2 1_555 1_555
Cu1G O3N 1_555 1_555
Cu2G O6N 1_555 1_555
C6 C7 1_555 1_555
C24 C26 1_555 1_555
C33 C36 1_555 1_555
C35 C37 1_555 1_555
C5T C7T 1_555 1_555
C6T C4T 1_555 1_555
C9T C10T 1_555 1_555
O2A C1A 1_555 1_555
C15T C16T 1_555 1_555
C6A C7A 1_555 1_555
N1A C7S 1_555 1_555
C6S C4S 1_555 1_555
C24T C26T 1_555 1_555
C10S C11A 1_555 1_555
C33T C36T 1_555 1_555
C35T C37T 1_555 1_555
C16S C17A 1_555 1_555
O6H C39A 1_555 1_555
C24A C26A 1_555 1_555
C24S C26S 1_555 1_555
C30A C27A 1_555 1_555
C31A C27A 1_555 1_555
C33A C36A 1_555 1_555
C33S C36S 1_555 1_555
C35S C37S 1_555 1_555

#END
