
#######################################################################
#
#                 Cambridge Crystallographic Data Centre
#                                CCDC 
#
#######################################################################
#
# If this CIF has been generated from an entry in the Cambridge 
# Structural Database, then it will include bibliographic, chemical, 
# crystal, experimental, refinement or atomic coordinate data resulting 
# from the CCDC's data processing and validation procedures.
#
#######################################################################

data_POBMOJ
_chemical_formula_moiety         
'(C192 H102 N24 O75 S6 Yb12)n,6n(H2 O1),12n(C2 H6 O1 S1)'
_chemical_name_systematic        
"catena-(octakis(\m~6~-4,4',4''-(1,3,5-Triazine-2,4,6-triyl)tribenzoato)-tris(\m~4~-aqua)-hexakis(\m~2~-sulfato)-dodeca-ytterbium dimethyl sulfoxide solvate hexahydrate)"
_symmetry_cell_setting           cubic
_symmetry_space_group_name_H-M   'I m -3 m'
_symmetry_Int_Tables_number      229
_space_group_name_Hall           '-I 4 2 3'
loop_
_symmetry_equiv_pos_site_id
_symmetry_equiv_pos_as_xyz
1 x,y,z
2 -y,x,z
3 y,-x,z
4 y,x,-z
5 z,x,y
6 -x,z,y
7 x,-z,y
8 x,z,-y
9 y,z,x
10 -z,y,x
11 z,y,-x
12 z,-y,x
13 1/2+x,1/2+y,1/2+z
14 1/2-y,1/2+x,1/2+z
15 1/2+y,1/2-x,1/2+z
16 1/2+y,1/2+x,1/2-z
17 1/2+z,1/2+x,1/2+y
18 1/2-x,1/2+z,1/2+y
19 1/2+x,1/2-z,1/2+y
20 1/2+x,1/2+z,1/2-y
21 1/2+y,1/2+z,1/2+x
22 1/2-z,1/2+y,1/2+x
23 1/2+z,1/2+y,1/2-x
24 1/2+z,1/2-y,1/2+x
25 -x,-y,z
26 x,-y,-z
27 -x,y,-z
28 -y,-x,-z
29 -z,-x,y
30 z,-x,-y
31 -z,x,-y
32 -x,-z,-y
33 -z,-y,-x
34 y,-z,-x
35 -y,-z,x
36 -y,z,-x
37 1/2-x,1/2-y,1/2+z
38 1/2+x,1/2-y,1/2-z
39 1/2-x,1/2+y,1/2-z
40 1/2-y,1/2-x,1/2-z
41 1/2-z,1/2-x,1/2+y
42 1/2+z,1/2-x,1/2-y
43 1/2-z,1/2+x,1/2-y
44 1/2-x,1/2-z,1/2-y
45 1/2-z,1/2-y,1/2-x
46 1/2+y,1/2-z,1/2-x
47 1/2-y,1/2-z,1/2+x
48 1/2-y,1/2+z,1/2-x
49 -x,-y,-z
50 y,-x,-z
51 -y,x,-z
52 -y,-x,z
53 -z,-x,-y
54 x,-z,-y
55 -x,z,-y
56 -x,-z,y
57 -y,-z,-x
58 z,-y,-x
59 -z,-y,x
60 -z,y,-x
61 1/2-x,1/2-y,1/2-z
62 1/2+y,1/2-x,1/2-z
63 1/2-y,1/2+x,1/2-z
64 1/2-y,1/2-x,1/2+z
65 1/2-z,1/2-x,1/2-y
66 1/2+x,1/2-z,1/2-y
67 1/2-x,1/2+z,1/2-y
68 1/2-x,1/2-z,1/2+y
69 1/2-y,1/2-z,1/2-x
70 1/2+z,1/2-y,1/2-x
71 1/2-z,1/2-y,1/2+x
72 1/2-z,1/2+y,1/2-x
73 x,y,-z
74 -x,y,z
75 x,-y,z
76 y,x,z
77 z,x,-y
78 -z,x,y
79 z,-x,y
80 x,z,y
81 z,y,x
82 -y,z,x
83 y,z,-x
84 y,-z,x
85 1/2+x,1/2+y,1/2-z
86 1/2-x,1/2+y,1/2+z
87 1/2+x,1/2-y,1/2+z
88 1/2+y,1/2+x,1/2+z
89 1/2+z,1/2+x,1/2-y
90 1/2-z,1/2+x,1/2+y
91 1/2+z,1/2-x,1/2+y
92 1/2+x,1/2+z,1/2+y
93 1/2+z,1/2+y,1/2+x
94 1/2-y,1/2+z,1/2+x
95 1/2+y,1/2+z,1/2-x
96 1/2+y,1/2-z,1/2+x
_cell_length_a                   26.2253(19)
_cell_length_b                   26.2253(19)
_cell_length_c                   26.2253(19)
_cell_angle_alpha                90
_cell_angle_beta                 90
_cell_angle_gamma                90
_cell_volume                     18036.9
_exptl_crystal_colour            colorless
_exptl_crystal_description       Block
_cell_formula_units_Z            2
_exptl_crystal_preparation       photoluminescent
loop_
_atom_site_label
_atom_site_type_symbol
_atom_site_fract_x
_atom_site_fract_y
_atom_site_fract_z
O2 O -0.2504(9) 0.0000 0.2504(9)
S1 S -0.2873(5) 0.0000 0.2873(5)
C1 C -0.2746(17) 0.0000 0.3552(14)
H1 H -0.3066 0.0000 0.3738
H2 H -0.2552 0.0302 0.3642
C1FA C -0.3552(14) 0.0000 0.2746(17)
H1FA H -0.3738 0.0000 0.3066
H2FA H -0.3642 -0.0302 0.2552
H2GB H -0.3642 0.0302 0.2552
H2VB H -0.2552 -0.0302 0.3642
O3 O -0.1627(6) 0.0000 0.0000
Yb1 Yb -0.5000 0.13844(8) 0.0000
S2 S -0.5000 0.2500 0.0000
O4 O -0.4617 0.2130(11) 0.0000(10)
O5 O -0.4446(4) 0.1219(5) 0.0602(5)
N1 N -0.2330(6) 0.2330(6) 0.1684(8)
C2 C -0.3608(6) 0.1655(7) 0.1019(6)
H3 H -0.3758 0.1808 0.0732
C3 C -0.2973(9) 0.1673(9) 0.1673(9)
C4 C -0.2523(8) 0.1932(7) 0.1932(7)
C5 C -0.3183(7) 0.1875(7) 0.1245(7)
H4 H -0.3038 0.2169 0.1100
C6 C -0.4268(8) 0.1003(6) 0.1003(6)
C7 C -0.3808(7) 0.1216(7) 0.1216(7)
O4W O -0.5000(10) 0.2870(11) 0.0383
O4Z O -0.5383 0.2130(11) 0.0000(10)
O4RA O -0.5000(10) 0.2870(11) -0.0383
O5BA O -0.0602(5) 0.4446(4) 0.1219(5)
N1BA N -0.1684(8) 0.2330(6) 0.2330(6)
C2BA C -0.1019(6) 0.3608(6) 0.1655(7)
H3BA H -0.0732 0.3758 0.1808
C3BA C -0.1673(9) 0.2973(9) 0.1673(9)
C4BA C -0.1932(7) 0.2523(8) 0.1932(7)
C5BA C -0.1245(7) 0.3183(7) 0.1875(7)
H4BA H -0.1100 0.3038 0.2169
C6BA C -0.1003(6) 0.4268(8) 0.1003(6)
C7BA C -0.1216(7) 0.3808(7) 0.1216(7)
O5IA O -0.1219(5) 0.0602(5) 0.4446(4)
N1IA N -0.2330(6) 0.1684(8) 0.2330(6)
C2IA C -0.1655(7) 0.1019(6) 0.3608(6)
H3IA H -0.1808 0.0732 0.3758
C3IA C -0.1673(9) 0.1673(9) 0.2973(9)
C4IA C -0.1932(7) 0.1932(7) 0.2523(8)
C5IA C -0.1875(7) 0.1245(7) 0.3183(7)
H4IA H -0.2169 0.1100 0.3038
C6IA C -0.1003(6) 0.1003(6) 0.4268(8)
C7IA C -0.1216(7) 0.1216(7) 0.3808(7)
O5YA O -0.1219(5) 0.4446(4) 0.0602(5)
C2YA C -0.1655(7) 0.3608(6) 0.1019(6)
H3YA H -0.1808 0.3758 0.0732
C5YA C -0.1875(7) 0.3183(7) 0.1245(7)
H4YA H -0.2169 0.3038 0.1100
O5GB O -0.0602(5) 0.1219(5) 0.4446(4)
C2GB C -0.1019(6) 0.1655(7) 0.3608(6)
H3GB H -0.0732 0.1808 0.3758
C5GB C -0.1245(7) 0.1875(7) 0.3183(7)
H4GB H -0.1100 0.2169 0.3038
O5AC O -0.4446(4) 0.0602(5) 0.1219(5)
C2AC C -0.3608(6) 0.1019(6) 0.1655(7)
H3AC H -0.3758 0.0732 0.1808
C5AC C -0.3183(7) 0.1245(7) 0.1875(7)
H4AC H -0.3038 0.1100 0.2169
Yb1A Yb -0.13844(8) 0.5000 0.0000
S2A S -0.2500 0.5000 0.0000
O4A O -0.2130(11) 0.5383 0.0000(10)
O5A O -0.1219(5) 0.5554(4) 0.0602(5)
N1A N -0.2330(6) 0.7670(6) 0.1684(8)
C2A C -0.1655(7) 0.6392(6) 0.1019(6)
H3A H -0.1808 0.6242 0.0732
C3A C -0.1673(9) 0.7027(9) 0.1673(9)
C4A C -0.1932(7) 0.7477(8) 0.1932(7)
C5A C -0.1875(7) 0.6817(7) 0.1245(7)
H4A H -0.2169 0.6962 0.1100
C6A C -0.1003(6) 0.5732(8) 0.1003(6)
C7A C -0.1216(7) 0.6192(7) 0.1216(7)
O4T O -0.2870(11) 0.5000(10) 0.0383
O4AA O -0.2130(11) 0.4617 0.0000(10)
O4SA O -0.2870(11) 0.5000(10) -0.0383
O5F O -0.4446(4) 0.9398(5) 0.1219(5)
N1F N -0.2330(6) 0.8316(8) 0.2330(6)
C2F C -0.3608(6) 0.8981(6) 0.1655(7)
H3F H -0.3758 0.9268 0.1808
C3F C -0.2973(9) 0.8327(9) 0.1673(9)
C4F C -0.2523(8) 0.8068(7) 0.1932(7)
C5F C -0.3183(7) 0.8755(7) 0.1875(7)
H4F H -0.3038 0.8900 0.2169
C6F C -0.4268(8) 0.8997(6) 0.1003(6)
C7F C -0.3808(7) 0.8784(7) 0.1216(7)
O5FA O -0.0602(5) 0.8781(5) 0.4446(4)
N1FA N -0.1684(8) 0.7670(6) 0.2330(6)
C2FA C -0.1019(6) 0.8345(7) 0.3608(6)
H3FA H -0.0732 0.8192 0.3758
C3FA C -0.1673(9) 0.8327(9) 0.2973(9)
C4FA C -0.1932(7) 0.8068(7) 0.2523(8)
C5FA C -0.1245(7) 0.8125(7) 0.3183(7)
H4FA H -0.1100 0.7831 0.3038
C6FA C -0.1003(6) 0.8997(6) 0.4268(8)
C7FA C -0.1216(7) 0.8784(7) 0.3808(7)
O5VB O -0.4446(4) 0.8781(5) 0.0602(5)
C2VB C -0.3608(6) 0.8345(7) 0.1019(6)
H3VB H -0.3758 0.8192 0.0732
C5VB C -0.3183(7) 0.8125(7) 0.1245(7)
H4VB H -0.3038 0.7831 0.1100
O5DB O -0.1219(5) 0.9398(5) 0.4446(4)
C2DB C -0.1655(7) 0.8981(6) 0.3608(6)
H3DB H -0.1808 0.9268 0.3758
C5DB C -0.1875(7) 0.8755(7) 0.3183(7)
H4DB H -0.2169 0.8900 0.3038
O5YB O -0.0602(5) 0.5554(4) 0.1219(5)
C2YB C -0.1019(6) 0.6392(6) 0.1655(7)
H3YB H -0.0732 0.6242 0.1808
C5YB C -0.1245(7) 0.6817(7) 0.1875(7)
H4YB H -0.1100 0.6962 0.2169
Yb1B Yb -0.86156(8) 0.5000 0.0000
S2B S -0.7500 0.5000 0.0000
O4B O -0.7870(11) 0.4617 0.0000(10)
O5B O -0.8781(5) 0.4446(4) 0.0602(5)
N1B N -0.7670(6) 0.2330(6) 0.1684(8)
C2B C -0.8345(7) 0.3608(6) 0.1019(6)
H3B H -0.8192 0.3758 0.0732
C3B C -0.8327(9) 0.2973(9) 0.1673(9)
C4B C -0.8068(7) 0.2523(8) 0.1932(7)
C5B C -0.8125(7) 0.3183(7) 0.1245(7)
H4B H -0.7831 0.3038 0.1100
C6B C -0.8997(6) 0.4268(8) 0.1003(6)
C7B C -0.8784(7) 0.3808(7) 0.1216(7)
O4TA O -0.7130(11) 0.5000(10) 0.0383
O4C O -0.7870(11) 0.5383 0.0000(10)
O4UA O -0.7130(11) 0.5000(10) -0.0383
O5E O -0.5554(4) 0.0602(5) 0.1219(5)
N1E N -0.7670(6) 0.1684(8) 0.2330(6)
C2E C -0.6392(6) 0.1019(6) 0.1655(7)
H3E H -0.6242 0.0732 0.1808
C3E C -0.7027(9) 0.1673(9) 0.1673(9)
C4E C -0.7477(8) 0.1932(7) 0.1932(7)
C5E C -0.6817(7) 0.1245(7) 0.1875(7)
H4E H -0.6962 0.1100 0.2169
C6E C -0.5732(8) 0.1003(6) 0.1003(6)
C7E C -0.6192(7) 0.1216(7) 0.1216(7)
O5J O -0.9398(5) 0.1219(5) 0.4446(4)
N1J N -0.8316(8) 0.2330(6) 0.2330(6)
C2J C -0.8981(6) 0.1655(7) 0.3608(6)
H3J H -0.9268 0.1808 0.3758
C3J C -0.8327(9) 0.1673(9) 0.2973(9)
C4J C -0.8068(7) 0.1932(7) 0.2523(8)
C5J C -0.8755(7) 0.1875(7) 0.3183(7)
H4J H -0.8900 0.2169 0.3038
C6J C -0.8997(6) 0.1003(6) 0.4268(8)
C7J C -0.8784(7) 0.1216(7) 0.3808(7)
O5UB O -0.5554(4) 0.1219(5) 0.0602(5)
C2UB C -0.6392(6) 0.1655(7) 0.1019(6)
H3UB H -0.6242 0.1808 0.0732
C5UB C -0.6817(7) 0.1875(7) 0.1245(7)
H4UB H -0.6962 0.2169 0.1100
O5DC O -0.8781(5) 0.0602(5) 0.4446(4)
C2DC C -0.8345(7) 0.1019(6) 0.3608(6)
H3DC H -0.8192 0.0732 0.3758
C5DC C -0.8125(7) 0.1245(7) 0.3183(7)
H4DC H -0.7831 0.1100 0.3038
O5ZB O -0.9398(5) 0.4446(4) 0.1219(5)
C2ZB C -0.8981(6) 0.3608(6) 0.1655(7)
H3ZB H -0.9268 0.3758 0.1808
C5ZB C -0.8755(7) 0.3183(7) 0.1875(7)
H4ZB H -0.8900 0.3038 0.2169
Yb1E Yb -0.5000 0.0000 0.13844(8)
Yb1X Yb -0.5000 0.86156(8) 0.0000
O5Z O -0.5554(4) 0.1219(5) -0.0602(5)
N1Z N -0.7670(6) 0.2330(6) -0.1684(8)
C2Z C -0.6392(6) 0.1655(7) -0.1019(6)
H3Z H -0.6242 0.1808 -0.0732
C3Z C -0.7027(9) 0.1673(9) -0.1673(9)
C4Z C -0.7477(8) 0.1932(7) -0.1932(7)
C5Z C -0.6817(7) 0.1875(7) -0.1245(7)
H4Z H -0.6962 0.2169 -0.1100
C6Z C -0.5732(8) 0.1003(6) -0.1003(6)
C7Z C -0.6192(7) 0.1216(7) -0.1216(7)
O5CA O -0.9398(5) 0.4446(4) -0.1219(5)
N1CA N -0.8316(8) 0.2330(6) -0.2330(6)
C2CA C -0.8981(6) 0.3608(6) -0.1655(7)
H3CA H -0.9268 0.3758 -0.1808
C3CA C -0.8327(9) 0.2973(9) -0.1673(9)
C4CA C -0.8068(7) 0.2523(8) -0.1932(7)
C5CA C -0.8755(7) 0.3183(7) -0.1875(7)
H4CA H -0.8900 0.3038 -0.2169
C6CA C -0.8997(6) 0.4268(8) -0.1003(6)
C7CA C -0.8784(7) 0.3808(7) -0.1216(7)
O5H O -0.8781(5) 0.0602(5) -0.4446(4)
N1H N -0.7670(6) 0.1684(8) -0.2330(6)
C2H C -0.8345(7) 0.1019(6) -0.3608(6)
H3H H -0.8192 0.0732 -0.3758
C3H C -0.8327(9) 0.1673(9) -0.2973(9)
C4H C -0.8068(7) 0.1932(7) -0.2523(8)
C5H C -0.8125(7) 0.1245(7) -0.3183(7)
H4H H -0.7831 0.1100 -0.3038
C6H C -0.8997(6) 0.1003(6) -0.4268(8)
C7H C -0.8784(7) 0.1216(7) -0.3808(7)
O5WA O -0.8781(5) 0.4446(4) -0.0602(5)
C2WA C -0.8345(7) 0.3608(6) -0.1019(6)
H3WA H -0.8192 0.3758 -0.0732
C5WA C -0.8125(7) 0.3183(7) -0.1245(7)
H4WA H -0.7831 0.3038 -0.1100
O5BC O -0.9398(5) 0.1219(5) -0.4446(4)
C2BC C -0.8981(6) 0.1655(7) -0.3608(6)
H3BC H -0.9268 0.1808 -0.3758
C5BC C -0.8755(7) 0.1875(7) -0.3183(7)
H4BC H -0.8900 0.2169 -0.3038
O5BB O -0.5554(4) 0.0602(5) -0.1219(5)
C2BB C -0.6392(6) 0.1019(6) -0.1655(7)
H3BB H -0.6242 0.0732 -0.1808
C5BB C -0.6817(7) 0.1245(7) -0.1875(7)
H4BB H -0.6962 0.1100 -0.2169
Yb1W Yb -0.5000 0.36156(8) 0.0000
Yb1D Yb -1.0000 0.5000 0.13844(8)
Yb1D_2 Yb 0.0000 0.5000 0.13844(8)
Yb1E_2 Yb -0.5000 1.0000 0.13844(8)
Yb1G Yb -0.5000 0.0000 -0.13844(8)
Yb1H Yb -0.86156(8) 0.0000 -0.5000
Yb1H_2 Yb -0.86156(8) 0.0000 0.5000
Yb1I Yb -1.0000 0.13844(8) -0.5000
Yb1I_2 Yb -1.0000 0.13844(8) 0.5000
Yb1I_3 Yb 0.0000 0.13844(8) 0.5000
Yb1K Yb 0.0000 0.86156(8) 0.5000
Yb1T Yb -0.36156(8) 0.5000 0.0000
Yb1CA Yb -1.0000 0.5000 -0.13844(8)
Yb1HA Yb -0.13844(8) 0.0000 0.5000
Yb1HA_2 Yb -0.13844(8) 1.0000 0.5000
Yb1TA Yb -0.63844(8) 0.5000 0.0000
O4E O -0.5383 0.0000(10) 0.2130(11)
O4F O -0.4617 0.0000(10) 0.2130(11)
O4X O -0.5383 0.7870(11) 0.0000(10)
O4Y O -0.4617 0.7870(11) 0.0000(10)
O5C O -0.8781(5) 0.5554(4) -0.0602(5)
O5F_2 O -0.4446(4) -0.0602(5) 0.1219(5)
O5W O -0.4398(5) 0.3781(5) 0.0554(4)
O5X O -0.5554(4) 0.8781(5) 0.0602(5)
O5Y O -0.4446(4) 0.8781(5) -0.0602(5)
O5AA O -0.1219(5) 0.4446(4) -0.0602(5)
O5RA O -0.5602(5) 0.3781(5) -0.0554(4)
O5VA O -0.5554(4) 0.8781(5) -0.0602(5)
O5XA O -0.1219(5) 0.5554(4) -0.0602(5)
O5CB O -0.5554(4) -0.0602(5) 0.1219(5)
O5QB O -0.4398(5) 0.3781(5) -0.0554(4)
O5RB O -0.5602(5) 0.3781(5) 0.0554(4)
O5TB O -0.4446(4) 0.1219(5) -0.0602(5)
O5WB O -0.8781(5) 0.5554(4) 0.0602(5)
O1 O -0.5000 0.0000 0.0000
Yb2? Yb -0.5000 0.1029(3) 0.0000
loop_
_geom_bond_atom_site_label_1
_geom_bond_atom_site_label_2
_geom_bond_site_symmetry_1
_geom_bond_site_symmetry_2
O2 S1 1_555 1_555
S1 C1 1_555 1_555
C1 H1 1_555 1_555
H2 C1 1_555 1_555
Yb1 O4 1_555 1_555
S2 O4 1_555 1_555
O5 Yb1 1_555 1_555
N1 C4 1_555 1_555
C2 H3 1_555 1_555
C3 C4 1_555 1_555
C4 N1IA 1_555 1_555
C5 C2 1_555 1_555
H4 C5 1_555 1_555
C6 O5 1_555 1_555
C7 C2 1_555 1_555
C1FA S1 1_555 1_555
H1FA C1FA 1_555 1_555
H2FA C1FA 1_555 1_555
H2GB C1FA 1_555 1_555
H2VB C1 1_555 1_555
O4W S2 1_555 1_555
O4Z Yb1 1_555 1_555
O4RA S2 1_555 1_555
O5BA C6BA 1_555 1_555
N1BA C4BA 1_555 1_555
C2BA H3BA 1_555 1_555
C3BA C4BA 1_555 1_555
C4BA N1 1_555 1_555
C5BA C2BA 1_555 1_555
H4BA C5BA 1_555 1_555
C6BA C7BA 1_555 1_555
C7BA C2BA 1_555 1_555
O5IA C6IA 1_555 1_555
N1IA C4IA 1_555 1_555
C2IA H3IA 1_555 1_555
C3IA C4IA 1_555 1_555
C4IA N1BA 1_555 1_555
C5IA C2IA 1_555 1_555
H4IA C5IA 1_555 1_555
C6IA C7IA 1_555 1_555
C7IA C2IA 1_555 1_555
O5YA C6BA 1_555 1_555
C2YA C7BA 1_555 1_555
H3YA C2YA 1_555 1_555
C5YA C3BA 1_555 1_555
H4YA C5YA 1_555 1_555
O5GB C6IA 1_555 1_555
C2GB C7IA 1_555 1_555
H3GB C2GB 1_555 1_555
C5GB C3IA 1_555 1_555
H4GB C5GB 1_555 1_555
O5AC C6 1_555 1_555
C2AC C7 1_555 1_555
H3AC C2AC 1_555 1_555
C5AC C3 1_555 1_555
H4AC C5AC 1_555 1_555
Yb1A O5YA 1_555 1_555
S2A O4A 1_555 1_555
O4A Yb1A 1_555 1_555
O5A Yb1A 1_555 1_555
N1A C4A 1_555 1_555
C2A H3A 1_555 1_555
C3A C4A 1_555 1_555
C4A N1FA 1_555 1_555
C5A C2A 1_555 1_555
H4A C5A 1_555 1_555
C6A O5A 1_555 1_555
C7A C2A 1_555 1_555
O4T S2A 1_555 1_555
O4AA Yb1A 1_555 1_555
O4SA S2A 1_555 1_555
O5F C6F 1_555 1_555
N1F C4F 1_555 1_555
C2F H3F 1_555 1_555
C3F C4F 1_555 1_555
C4F N1A 1_555 1_555
C5F C2F 1_555 1_555
H4F C5F 1_555 1_555
C6F C7F 1_555 1_555
C7F C2F 1_555 1_555
O5FA C6FA 1_555 1_555
N1FA C4FA 1_555 1_555
C2FA H3FA 1_555 1_555
C3FA C4FA 1_555 1_555
C4FA N1F 1_555 1_555
C5FA C2FA 1_555 1_555
H4FA C5FA 1_555 1_555
C6FA C7FA 1_555 1_555
C7FA C2FA 1_555 1_555
O5VB C6F 1_555 1_555
C2VB C7F 1_555 1_555
H3VB C2VB 1_555 1_555
C5VB C3F 1_555 1_555
H4VB C5VB 1_555 1_555
O5DB C6FA 1_555 1_555
C2DB C7FA 1_555 1_555
H3DB C2DB 1_555 1_555
C5DB C3FA 1_555 1_555
H4DB C5DB 1_555 1_555
O5YB C6A 1_555 1_555
C2YB C7A 1_555 1_555
H3YB C2YB 1_555 1_555
C5YB C3A 1_555 1_555
H4YB C5YB 1_555 1_555
Yb1B O4B 1_555 1_555
S2B O4B 1_555 1_555
O5B Yb1B 1_555 1_555
N1B C4B 1_555 1_555
C2B H3B 1_555 1_555
C3B C4B 1_555 1_555
C4B N1J 1_555 1_555
C5B C2B 1_555 1_555
H4B C5B 1_555 1_555
C6B O5B 1_555 1_555
C7B C2B 1_555 1_555
O4TA S2B 1_555 1_555
O4C Yb1B 1_555 1_555
O4UA S2B 1_555 1_555
O5E C6E 1_555 1_555
N1E C4E 1_555 1_555
C2E H3E 1_555 1_555
C3E C4E 1_555 1_555
C4E N1B 1_555 1_555
C5E C2E 1_555 1_555
H4E C5E 1_555 1_555
C6E C7E 1_555 1_555
C7E C2E 1_555 1_555
O5J C6J 1_555 1_555
N1J C4J 1_555 1_555
C2J H3J 1_555 1_555
C3J C4J 1_555 1_555
C4J N1E 1_555 1_555
C5J C2J 1_555 1_555
H4J C5J 1_555 1_555
C6J C7J 1_555 1_555
C7J C2J 1_555 1_555
O5UB Yb1 1_555 1_555
C2UB C7E 1_555 1_555
H3UB C2UB 1_555 1_555
C5UB C3E 1_555 1_555
H4UB C5UB 1_555 1_555
O5DC C6J 1_555 1_555
C2DC C7J 1_555 1_555
H3DC C2DC 1_555 1_555
C5DC C3J 1_555 1_555
H4DC C5DC 1_555 1_555
O5ZB C6B 1_555 1_555
C2ZB C7B 1_555 1_555
H3ZB C2ZB 1_555 1_555
C5ZB C3B 1_555 1_555
H4ZB C5ZB 1_555 1_555
Yb1E O5AC 1_555 1_555
Yb1X O5VB 1_555 1_555
O5Z Yb1 1_555 1_555
N1Z C4Z 1_555 1_555
C2Z H3Z 1_555 1_555
C3Z C4Z 1_555 1_555
C4Z N1H 1_555 1_555
C5Z C2Z 1_555 1_555
H4Z C5Z 1_555 1_555
C6Z O5Z 1_555 1_555
C7Z C2Z 1_555 1_555
O5CA C6CA 1_555 1_555
N1CA C4CA 1_555 1_555
C2CA H3CA 1_555 1_555
C3CA C4CA 1_555 1_555
C4CA N1Z 1_555 1_555
C5CA C2CA 1_555 1_555
H4CA C5CA 1_555 1_555
C6CA C7CA 1_555 1_555
C7CA C2CA 1_555 1_555
O5H C6H 1_555 1_555
N1H C4H 1_555 1_555
C2H H3H 1_555 1_555
C3H C4H 1_555 1_555
C4H N1CA 1_555 1_555
C5H C2H 1_555 1_555
H4H C5H 1_555 1_555
C6H C7H 1_555 1_555
C7H C2H 1_555 1_555
O5WA Yb1B 1_555 1_555
C2WA C7CA 1_555 1_555
H3WA C2WA 1_555 1_555
C5WA C3CA 1_555 1_555
H4WA C5WA 1_555 1_555
O5BC C6H 1_555 1_555
C2BC C7H 1_555 1_555
H3BC C2BC 1_555 1_555
C5BC C3H 1_555 1_555
H4BC C5BC 1_555 1_555
O5BB C6Z 1_555 1_555
C2BB C7Z 1_555 1_555
H3BB C2BB 1_555 1_555
C5BB C3Z 1_555 1_555
H4BB C5BB 1_555 1_555
Yb1W O4W 1_555 1_555
Yb1D O5ZB 1_555 1_555
Yb1D_2 O5BA 1_555 1_555
Yb1E_2 O5F 1_555 1_555
Yb1G O5BB 1_555 1_555
Yb1H O5H 1_555 1_555
Yb1H_2 O5DC 1_555 1_555
Yb1I O5BC 1_555 1_555
Yb1I_2 O5J 1_555 1_555
Yb1I_3 O5GB 1_555 1_555
Yb1K O5FA 1_555 1_555
Yb1T O4T 1_555 1_555
Yb1CA O5CA 1_555 1_555
Yb1HA O5IA 1_555 1_555
Yb1HA_2 O5DB 1_555 1_555
Yb1TA O4TA 1_555 1_555
O4E Yb1E 1_555 1_555
O4F Yb1E 1_555 1_555
O4X Yb1X 1_555 1_555
O4Y Yb1X 1_555 1_555
O5C Yb1B 1_555 1_555
O5F_2 Yb1E 1_555 1_555
O5W Yb1W 1_555 1_555
O5X Yb1X 1_555 1_555
O5Y Yb1X 1_555 1_555
O5AA Yb1A 1_555 1_555
O5RA Yb1W 1_555 1_555
O5VA Yb1X 1_555 1_555
O5XA Yb1A 1_555 1_555
O5CB Yb1E 1_555 1_555
O5QB Yb1W 1_555 1_555
O5RB Yb1W 1_555 1_555
O5TB Yb1 1_555 1_555
O5WB Yb1B 1_555 1_555
S2 O4Z 1_555 1_555
C3 C5 1_555 1_555
C6 C7 1_555 1_555
O4RA Yb1W 1_555 1_555
C3BA C5BA 1_555 1_555
C3IA C5IA 1_555 1_555
C2YA C5YA 1_555 1_555
C2GB C5GB 1_555 1_555
C2AC C5AC 1_555 1_555
S2A O4AA 1_555 1_555
C3A C5A 1_555 1_555
C6A C7A 1_555 1_555
O4SA Yb1T 1_555 1_555
C3F C5F 1_555 1_555
C3FA C5FA 1_555 1_555
C2VB C5VB 1_555 1_555
C2DB C5DB 1_555 1_555
O5YB Yb1D_2 1_555 1_555
C2YB C5YB 1_555 1_555
S2B O4C 1_555 1_555
C3B C5B 1_555 1_555
C6B C7B 1_555 1_555
O4UA Yb1TA 1_555 1_555
O5E Yb1E 1_555 1_555
C3E C5E 1_555 1_555
C6E O5UB 1_555 1_555
C3J C5J 1_555 1_555
C2UB C5UB 1_555 1_555
C2DC C5DC 1_555 1_555
C2ZB C5ZB 1_555 1_555
C3Z C5Z 1_555 1_555
C6Z C7Z 1_555 1_555
C3CA C5CA 1_555 1_555
C6CA O5WA 1_555 1_555
C3H C5H 1_555 1_555
C2WA C5WA 1_555 1_555
C2BC C5BC 1_555 1_555
C2BB C5BB 1_555 1_555

#END
