
#######################################################################
#
#                 Cambridge Crystallographic Data Centre
#                                CCDC 
#
#######################################################################
#
# If this CIF has been generated from an entry in the Cambridge 
# Structural Database, then it will include bibliographic, chemical, 
# crystal, experimental, refinement or atomic coordinate data resulting 
# from the CCDC's data processing and validation procedures.
#
#######################################################################

data_YOZBUL
_chemical_formula_moiety         '(C12 H6 Cl4 N10 O4 Zn2)n,0.5n(H2 O1)'
_chemical_name_systematic        
'catena-(bis((\m~2~-4,5-Dichloroimidazolato)-(\m~2~-2-nitroimidazolato))-di-zinc(ii) unknown solvate hemihydrate)'
_symmetry_cell_setting           hexagonal
_symmetry_space_group_name_H-M   'P 63/m m c'
_symmetry_Int_Tables_number      194
_space_group_name_Hall           '-P 6c 2c'
loop_
_symmetry_equiv_pos_site_id
_symmetry_equiv_pos_as_xyz
1 x,y,z
2 -y,x-y,z
3 -x+y,-x,z
4 -x,-y,1/2+z
5 y,-x+y,1/2+z
6 x-y,x,1/2+z
7 y,x,-z
8 x-y,-y,-z
9 -x,-x+y,-z
10 -y,-x,1/2-z
11 -x+y,y,1/2-z
12 x,x-y,1/2-z
13 -x,-y,-z
14 y,-x+y,-z
15 x-y,x,-z
16 x,y,1/2-z
17 -y,x-y,1/2-z
18 -x+y,-x,1/2-z
19 -y,-x,z
20 -x+y,y,z
21 x,x-y,z
22 y,x,1/2+z
23 x-y,-y,1/2+z
24 -x,-x+y,1/2+z
_cell_length_a                   26.307(4)
_cell_length_b                   26.307(4)
_cell_length_c                   19.361(4)
_cell_angle_alpha                90
_cell_angle_beta                 90
_cell_angle_gamma                120
_cell_volume                     11603.8
_exptl_crystal_colour            yellow
_exptl_crystal_description       prism
_cell_formula_units_Z            12
loop_
_atom_site_label
_atom_site_type_symbol
_atom_site_fract_x
_atom_site_fract_y
_atom_site_fract_z
_atom_site_U_iso_or_equiv
_atom_site_thermal_displace_type
Zn1 Zn 0.89586(15) 0.33205(13) 0.4057(2) 0.1182 Uani
N1 N 0.8262(9) 0.2592(10) 0.4437(12) 0.1240 Uiso
C1 C 0.7823(4) 0.2177(4) 0.402(2) 0.1170 Uiso
H1 H 0.7810 0.2190 0.3536 0.1400 Uiso
C2 C 0.8100(11) 0.2401(10) 0.5109(17) 0.1590 Uiso
Cl1 Cl 0.8527(4) 0.2789(4) 0.5789(4) 0.2180 Uani
N2 N 0.9634(9) 0.3392(9) 0.4633(10) 0.1240 Uiso
C3 C 1.0000 0.3900(15) 0.5000 0.1310 Uiso
H2 H 1.0000 0.4253 0.5000 0.1570 Uiso
C4 C 0.9791(11) 0.2966(12) 0.4768(14) 0.1000 Uiso
Cl2 Cl 0.9424(4) 0.2280(3) 0.4420(5) 0.2161 Uani
N3 N 0.8868(9) 0.4003(11) 0.4323(11) 0.1360 Uiso
C5 C 0.907(2) 0.4533(12) 0.413(2) 0.1480 Uiso
C6 C 0.8409(16) 0.3938(14) 0.4738(17) 0.2350 Uiso
H3 H 0.8147 0.3599 0.4975 0.2820 Uiso
N4 N 0.963(3) 0.4813(13) 0.377(2) 0.1940 Uiso
O1 O 0.9852(12) 0.5402(12) 0.3699(17) 0.3133 Uani
N5 N 0.9164(10) 0.3251(8) 0.3101(13) 0.1330 Uiso
C7 C 0.8898(19) 0.3238(13) 0.2500 0.1110 Uiso
C8 C 0.9645(13) 0.3229(10) 0.2852(12) 0.1610 Uiso
H4 H 0.9929 0.3215 0.3126 0.1930 Uiso
N6 N 0.8337(17) 0.3258(12) 0.2500 0.0990 Uiso
O2 O 0.8148(7) 0.3263(6) 0.3098(10) 0.1444 Uani
Zn1R Zn 0.66795(13) 0.10414(15) 0.4057(2) 0.1182 Uani
Zn1H Zn 1.10414(15) 0.43619(20) 0.5943(2) 0.1182 Uani
Zn1T Zn 0.89586(15) 0.56381(20) 0.4057(2) 0.1182 Uani
Zn1O Zn 0.89586(15) 0.33205(13) 0.0943(2) 0.1182 Uani
N1R N 0.7408(10) 0.1738(9) 0.4437(12) 0.1240 Uiso
C2R C 0.7599(10) 0.1900(11) 0.5109(17) 0.1590 Uiso
Cl1R Cl 0.7211(4) 0.1473(4) 0.5789(4) 0.2180 Uani
N2H N 1.0366(9) 0.3758(13) 0.5367(10) 0.1240 Uiso
N2R N 0.6608(9) 0.0366(9) 0.4633(10) 0.1240 Uiso
C4H C 1.0209(11) 0.3175(16) 0.5232(14) 0.1000 Uiso
Cl2H Cl 1.0576(4) 0.2856(5) 0.5580(5) 0.2161 Uani
N3T N 0.8868(9) 0.4865(14) 0.4323(11) 0.1360 Uiso
N3R N 0.5997(11) 0.1132(9) 0.4323(11) 0.1360 Uiso
C6T C 0.8409(16) 0.4471(21) 0.4738(17) 0.2350 Uiso
H3T H 0.8147 0.4548 0.4975 0.2820 Uiso
O1T O 0.9852(12) 0.4450(17) 0.3699(17) 0.3133 Uani
N5O N 0.9164(10) 0.3251(8) 0.1899(13) 0.1330 Uiso
N5R N 0.6749(8) 0.0836(10) 0.3101(13) 0.1330 Uiso
C8O C 0.9645(13) 0.3229(10) 0.2148(12) 0.1610 Uiso
H4O H 0.9929 0.3215 0.1874 0.1930 Uiso
O2O O 0.8148(7) 0.3263(6) 0.1902(10) 0.1444 Uani
O3 O 0.192(2) 0.383(5) 0.7500 0.2500 Uiso
C9? C 0.817(4) 0.183(4) 0.2500 0.2500 Uiso
C10? C 0.8592(12) 0.1408(12) 0.274(3) 0.2900 Uiso
C11? C 0.6667 0.3333 0.400(6) 0.3200 Uiso
C12? C 0.6667 0.3333 0.2500 0.3500 Uiso
loop_
_atom_site_aniso_label
_atom_site_aniso_U_11
_atom_site_aniso_U_22
_atom_site_aniso_U_33
_atom_site_aniso_U_23
_atom_site_aniso_U_13
_atom_site_aniso_U_12
Zn1 0.099(5) 0.097(5) 0.144(6) -0.010(2) -0.024(2) 0.038(3)
Cl1 0.237(10) 0.235(11) 0.126(9) -0.038(7) -0.063(7) 0.076(9)
Cl2 0.244(12) 0.119(8) 0.295(13) -0.073(7) -0.127(9) 0.098(7)
O1 0.27(3) 0.18(2) 0.50(5) 0.10(3) 0.14(3) 0.12(2)
O2 0.137(17) 0.163(18) 0.116(17) -0.027(13) 0.002(13) 0.062(13)
Zn1R 0.097 0.099 0.144 0.024 0.01 0.038
Zn1H 0.099 0.12 0.144 -0.014 -0.024 0.061
Zn1T 0.099 0.12 0.144 -0.014 -0.024 0.061
Zn1O 0.099 0.097 0.144 0.01 0.024 0.038
Cl1R 0.235 0.237 0.126 0.063 0.038 0.076
Cl2H 0.244 0.167 0.295 -0.054 -0.127 0.146
O1T 0.27 0.21 0.5 0.04 0.14 0.15
O2O 0.137 0.163 0.116 0.027 -0.002 0.062
loop_
_geom_bond_atom_site_label_1
_geom_bond_atom_site_label_2
_geom_bond_site_symmetry_1
_geom_bond_site_symmetry_2
Zn1 N1 1_555 1_555
N1 C1 1_555 1_555
C1 H1 1_555 1_555
C2 N1 1_555 1_555
Cl1 C2 1_555 1_555
N2 Zn1 1_555 1_555
C3 N2 1_555 1_555
H2 C3 1_555 1_555
C4 N2 1_555 1_555
Cl2 C4 1_555 1_555
N3 Zn1 1_555 1_555
C5 N3 1_555 1_555
C6 N3 1_555 1_555
H3 C6 1_555 1_555
N4 C5 1_555 1_555
O1 N4 1_555 1_555
N5 Zn1 1_555 1_555
C7 N5 1_555 1_555
C8 N5 1_555 1_555
H4 C8 1_555 1_555
N6 C7 1_555 1_555
O2 N6 1_555 1_555
Zn1R N1R 1_555 1_555
Zn1H N2H 1_555 1_555
Zn1T N3T 1_555 1_555
Zn1O N5O 1_555 1_555
N1R C1 1_555 1_555
C2R C2 1_555 1_555
Cl1R C2R 1_555 1_555
N2H C3 1_555 1_555
N2R Zn1R 1_555 1_555
C4H C4 1_555 1_555
Cl2H C4H 1_555 1_555
N3T C5 1_555 1_555
N3R Zn1R 1_555 1_555
C6T C6 1_555 1_555
H3T C6T 1_555 1_555
O1T N4 1_555 1_555
N5O C7 1_555 1_555
N5R Zn1R 1_555 1_555
C8O C8 1_555 1_555
H4O C8O 1_555 1_555
O2O N6 1_555 1_555
N1R C2R 1_555 1_555
N2H C4H 1_555 1_555
N3T C6T 1_555 1_555
N5O C8O 1_555 1_555

#END
