
#######################################################################
#
#                 Cambridge Crystallographic Data Centre
#                                CCDC 
#
#######################################################################
#
# If this CIF has been generated from an entry in the Cambridge 
# Structural Database, then it will include bibliographic, chemical, 
# crystal, experimental, refinement or atomic coordinate data resulting 
# from the CCDC's data processing and validation procedures.
#
#######################################################################

data_YOZCAS
_chemical_formula_moiety         '(C20 H12 Br2 N10 O4 Zn2)n'
_chemical_name_systematic        
'catena-(bis((\m~2~-5-Bromobenzimidazolato)-(\m~2~-2-nitroimidazolato))-di-zinc(ii) unknown solvate)'
_symmetry_cell_setting           hexagonal
_symmetry_space_group_name_H-M   'P 63/m m c'
_symmetry_Int_Tables_number      194
_space_group_name_Hall           '-P 6c 2c'
loop_
_symmetry_equiv_pos_site_id
_symmetry_equiv_pos_as_xyz
1 x,y,z
2 -y,x-y,z
3 -x+y,-x,z
4 -x,-y,1/2+z
5 y,-x+y,1/2+z
6 x-y,x,1/2+z
7 y,x,-z
8 x-y,-y,-z
9 -x,-x+y,-z
10 -y,-x,1/2-z
11 -x+y,y,1/2-z
12 x,x-y,1/2-z
13 -x,-y,-z
14 y,-x+y,-z
15 x-y,x,-z
16 x,y,1/2-z
17 -y,x-y,1/2-z
18 -x+y,-x,1/2-z
19 -y,-x,z
20 -x+y,y,z
21 x,x-y,z
22 y,x,1/2+z
23 x-y,-y,1/2+z
24 -x,-x+y,1/2+z
_cell_length_a                   25.9929(12)
_cell_length_b                   25.9929(12)
_cell_length_c                   19.6997(19)
_cell_angle_alpha                90
_cell_angle_beta                 90
_cell_angle_gamma                120
_cell_volume                     11526.6
_exptl_crystal_colour            yellow
_exptl_crystal_description       prism
_cell_formula_units_Z            12
loop_
_atom_site_label
_atom_site_type_symbol
_atom_site_fract_x
_atom_site_fract_y
_atom_site_fract_z
_atom_site_U_iso_or_equiv
_atom_site_thermal_displace_type
Zn1 Zn 0.10178(7) 0.43387(8) 0.40287(8) 0.0694 Uani
C1 C 0.2162(4) 0.4325(7) 0.4014(9) 0.0620 Uiso
H1 H 0.2176 0.4351 0.3543 0.0740 Uiso
N1 N 0.1716(4) 0.4305(4) 0.4359(5) 0.0570 Uiso
C2 C 0.1880(6) 0.4279(6) 0.5020(8) 0.0870 Uiso
C3 C 0.1569(9) 0.4255(9) 0.5652(11) 0.1460 Uiso
H2 H 0.1226 0.4283 0.5669 0.1750 Uiso
C4 C 0.1843(11) 0.4188(16) 0.6213(10) 0.2579 Uani
Br1 Br 0.1324(3) 0.4160(5) 0.7011(2) 0.3349 Uani
C5 C 0.1092(9) 0.4318(8) 0.2500 0.0610 Uiso
N2 N 0.0822(5) 0.4065(5) 0.3083(5) 0.0690 Uiso
C6 C 0.0337(7) 0.3564(7) 0.2851(6) 0.0960 Uiso
H3 H 0.0050 0.3267 0.3122 0.1150 Uiso
N3 N 0.1635(6) 0.4873(7) 0.2500 0.0550 Uani
O1 O 0.1857(4) 0.5107(4) 0.3044(4) 0.0719 Uani
C7 C 0.0000 0.3846(8) 0.5000 0.0820 Uiso
H4 H 0.0000 0.4204 0.5000 0.0980 Uiso
N4 N 0.0365(5) 0.3744(5) 0.4579(5) 0.0780 Uiso
C8 C 0.0216(6) 0.3164(7) 0.4739(7) 0.0930 Uiso
C9 C 0.0465(10) 0.2837(8) 0.4452(12) 0.1709 Uani
H5 H 0.0781 0.2990 0.4148 0.2050 Uiso
C10 C 0.0163(3) 0.2247(2) 0.4694(3) 0.2733 Uani
Br2 Br 0.0371(3) 0.1684(2) 0.4459(3) 0.3098 Uani
C11 C 0.0910(3) 0.5455(2) 0.4073(3) 0.0660 Uiso
N5 N 0.1144(3) 0.5138(2) 0.4262(3) 0.0890 Uiso
C12 C 0.1661(3) 0.5541(2) 0.4624(3) 0.1420 Uiso
H6 H 0.1941 0.5464 0.4821 0.1710 Uiso
N6 N 0.0392(10) 0.5196(5) 0.3727(15) 0.1549 Uani
O2 O 0.0150(8) 0.4657(6) 0.3602(10) 0.2131 Uani
Zn1S Zn 0.33209(11) 0.43387(8) 0.40287(8) 0.0694 Uani
Zn1O Zn 0.10178(7) 0.43387(8) 0.09713(8) 0.0694 Uani
Zn1H Zn -0.10178(7) 0.33209(11) 0.59713(8) 0.0694 Uani
Zn1T Zn 0.10178(7) 0.66791(11) 0.40287(8) 0.0694 Uani
N1S N 0.2589(6) 0.4305(4) 0.4359(5) 0.0570 Uiso
C2S C 0.2399(8) 0.4279(6) 0.5020(8) 0.0870 Uiso
C3S C 0.2686(13) 0.4255(9) 0.5652(11) 0.1460 Uiso
H2S H 0.3057 0.4283 0.5669 0.1750 Uiso
C4S C 0.2345(19) 0.4188(16) 0.6213(10) 0.2579 Uani
Br1S Br 0.2836(6) 0.4160(5) 0.7011(2) 0.3349 Uani
N2O N 0.0822(5) 0.4065(5) 0.1917(5) 0.0690 Uiso
N2S N 0.3243(7) 0.4065(5) 0.3083(5) 0.0690 Uiso
C6O C 0.0337(7) 0.3564(7) 0.2149(6) 0.0960 Uiso
H3O H 0.0050 0.3267 0.1878 0.1150 Uiso
O1O O 0.1857(4) 0.5107(4) 0.1956(4) 0.0719 Uani
N4H N -0.0365(5) 0.3379(7) 0.5421(5) 0.0780 Uiso
N4S N 0.3379(7) 0.3744(5) 0.4579(5) 0.0780 Uiso
C8H C -0.0216(6) 0.2948(9) 0.5261(7) 0.0930 Uiso
C9H C -0.0465(10) 0.2372(13) 0.5548(12) 0.1709 Uani
H5H H -0.0781 0.2209 0.5852 0.2050 Uiso
C10H C -0.0163(3) 0.2084(4) 0.5306(3) 0.2733 Uani
Br2H Br -0.0371(3) 0.1313(4) 0.5541(3) 0.3098 Uani
N5T N 0.1144(3) 0.6006(4) 0.4262(3) 0.0890 Uiso
N5S N 0.3994(4) 0.5138(2) 0.4262(3) 0.0890 Uiso
C12T C 0.1661(3) 0.6120(4) 0.4624(3) 0.1420 Uiso
H6T H 0.1941 0.6477 0.4821 0.1710 Uiso
O2T O 0.0150(8) 0.5493(10) 0.3602(10) 0.2131 Uani
H7? H 0.1654 0.4139 0.6629 0.3070 Uiso
H8? H 0.0181 0.1954 0.4441 0.3330 Uiso
C13? C -0.0345(18) 0.4827(9) 0.450(2) 0.0910 Uiso
loop_
_atom_site_aniso_label
_atom_site_aniso_U_11
_atom_site_aniso_U_22
_atom_site_aniso_U_33
_atom_site_aniso_U_23
_atom_site_aniso_U_13
_atom_site_aniso_U_12
Zn1 0.0630(15) 0.0860(16) 0.0656(15) 0.0126(10) 0.0217(10) 0.0421(12)
C4 0.23(3) 0.56(6) 0.067(11) 0.01(2) 0.013(15) 0.26(3)
Br1 0.180(5) 0.76(2) 0.046(3) 0.006(6) 0.023(3) 0.221(9)
N3 0.040(11) 0.052(12) 0.073(14) 0.000 0.000 0.023(10)
O1 0.071(6) 0.080(7) 0.057(7) -0.016(6) -0.020(5) 0.032(6)
C9 0.19(2) 0.108(15) 0.25(3) 0.033(16) 0.112(19) 0.101(16)
C10 0.40(5) 0.14(2) 0.38(5) 0.08(2) 0.23(4) 0.21(3)
Br2 0.312(9) 0.143(5) 0.532(15) 0.082(7) 0.234(10) 0.157(6)
N6 0.116(19) 0.103(14) 0.25(3) -0.053(10) -0.106(19) 0.058(9)
O2 0.195(16) 0.111(11) 0.35(2) -0.075(14) -0.128(17) 0.089(12)
Zn1S 0.0648 0.086 0.0656 0.0126 -0.0091 0.0439
Zn1O 0.063 0.086 0.0656 -0.0126 -0.0217 0.0421
Zn1H 0.063 0.0648 0.0656 0.0091 0.0217 0.0209
Zn1T 0.063 0.0648 0.0656 0.0091 0.0217 0.0209
C4S 0.27 0.56 0.067 0.01 -0.003 0.3
Br1S 0.498 0.76 0.046 0.006 -0.017 0.539
O1O 0.071 0.08 0.057 0.016 0.02 0.032
C9H 0.19 0.096 0.25 0.079 0.112 0.089
C10H 0.4 0.12 0.38 0.15 0.23 0.19
Br2H 0.312 0.141 0.532 0.152 0.234 0.155
O2T 0.195 0.128 0.35 -0.053 -0.128 0.106
loop_
_geom_bond_atom_site_label_1
_geom_bond_atom_site_label_2
_geom_bond_site_symmetry_1
_geom_bond_site_symmetry_2
Zn1 N1 1_555 1_555
C1 H1 1_555 1_555
N1 C1 1_555 1_555
C2 N1 1_555 1_555
C3 C2 1_555 1_555
H2 C3 1_555 1_555
C4 C3 1_555 1_555
Br1 C4 1_555 1_555
C5 N2 1_555 1_555
N2 Zn1 1_555 1_555
C6 N2 1_555 1_555
H3 C6 1_555 1_555
N3 C5 1_555 1_555
O1 N3 1_555 1_555
C7 H4 1_555 1_555
N4 Zn1 1_555 1_555
C8 N4 1_555 1_555
C9 C8 1_555 1_555
H5 C9 1_555 1_555
C10 C9 1_555 1_555
Br2 C10 1_555 1_555
C11 N5 1_555 1_555
N5 Zn1 1_555 1_555
C12 N5 1_555 1_555
H6 C12 1_555 1_555
N6 C11 1_555 1_555
O2 N6 1_555 1_555
Zn1S N1S 1_555 1_555
Zn1O N2O 1_555 1_555
Zn1H N4H 1_555 1_555
Zn1T N5T 1_555 1_555
N1S C1 1_555 1_555
C2S C2 1_555 1_555
C3S C2S 1_555 1_555
H2S C3S 1_555 1_555
C4S C4 1_555 1_555
Br1S C4S 1_555 1_555
N2O C5 1_555 1_555
N2S Zn1S 1_555 1_555
C6O C6 1_555 1_555
H3O C6O 1_555 1_555
O1O N3 1_555 1_555
N4H C7 1_555 1_555
N4S Zn1S 1_555 1_555
C8H C8 1_555 1_555
C9H C8H 1_555 1_555
H5H C9H 1_555 1_555
C10H C10 1_555 1_555
Br2H C10H 1_555 1_555
N5T C11 1_555 1_555
N5S Zn1S 1_555 1_555
C12T C12 1_555 1_555
H6T C12T 1_555 1_555
O2T N6 1_555 1_555
C7 N4 1_555 1_555
N1S C2S 1_555 1_555
C3S C4S 1_555 1_555
N2O C6O 1_555 1_555
N4H C8H 1_555 1_555
C9H C10H 1_555 1_555
N5T C12T 1_555 1_555

#END
