
#######################################################################
#
#                 Cambridge Crystallographic Data Centre
#                                CCDC 
#
#######################################################################
#
# If this CIF has been generated from an entry in the Cambridge 
# Structural Database, then it will include bibliographic, chemical, 
# crystal, experimental, refinement or atomic coordinate data resulting 
# from the CCDC's data processing and validation procedures.
#
#######################################################################

data_JOFCEO01
_chemical_name_common            eea-MOF-4
_chemical_formula_moiety         '(C14 H8 Cu1 N2 O5)n'
_chemical_name_systematic        
'catena-[(\m-5-((pyridin-3-ylcarbonyl)amino)isophthalato)-copper unknown solvate]'
_symmetry_cell_setting           rhombohedral
_symmetry_space_group_name_H-M   'R -3 c'
_symmetry_Int_Tables_number      167
_space_group_name_Hall           '-R 3 2"c'
loop_
_symmetry_equiv_pos_site_id
_symmetry_equiv_pos_as_xyz
1 x,y,z
2 -y,x-y,z
3 -x+y,-x,z
4 y,x,1/2-z
5 x-y,-y,1/2-z
6 -x,-x+y,1/2-z
7 2/3+x,1/3+y,1/3+z
8 2/3-y,1/3+x-y,1/3+z
9 2/3-x+y,1/3-x,1/3+z
10 2/3+y,1/3+x,5/6-z
11 2/3+x-y,1/3-y,5/6-z
12 2/3-x,1/3-x+y,5/6-z
13 1/3+x,2/3+y,2/3+z
14 1/3-y,2/3+x-y,2/3+z
15 1/3-x+y,2/3-x,2/3+z
16 1/3+y,2/3+x,1/6-z
17 1/3+x-y,2/3-y,1/6-z
18 1/3-x,2/3-x+y,1/6-z
19 -x,-y,-z
20 y,-x+y,-z
21 x-y,x,-z
22 -y,-x,1/2+z
23 -x+y,y,1/2+z
24 x,x-y,1/2+z
25 1/3-x,2/3-y,2/3-z
26 1/3+y,2/3-x+y,2/3-z
27 1/3+x-y,2/3+x,2/3-z
28 1/3-y,2/3-x,1/6+z
29 1/3-x+y,2/3+y,1/6+z
30 1/3+x,2/3+x-y,1/6+z
31 2/3-x,1/3-y,1/3-z
32 2/3+y,1/3-x+y,1/3-z
33 2/3+x-y,1/3+x,1/3-z
34 2/3-y,1/3-x,5/6+z
35 2/3-x+y,1/3+y,5/6+z
36 2/3+x,1/3+x-y,5/6+z
_cell_length_a                   18.295(5)
_cell_length_b                   18.295(5)
_cell_length_c                   69.430(18)
_cell_angle_alpha                90
_cell_angle_beta                 90
_cell_angle_gamma                120
_cell_volume                     20125.3
_exptl_crystal_colour            blue
_cell_formula_units_Z            36
loop_
_atom_site_label
_atom_site_type_symbol
_atom_site_fract_x
_atom_site_fract_y
_atom_site_fract_z
Cu1 Cu 0.17208(4) 0.78837(4) 0.068098(10)
O1 O 0.1281(3) 0.6832(2) 0.08181(5)
O2 O 0.1213(3) 0.3549(4) 0.10899(6)
O3 O 0.1661(3) 0.4421(4) 0.08334(6)
O4 O 0.0883(3) 0.7239(2) 0.10841(5)
C1 C 0.1305(4) 0.4174(6) 0.09978(9)
C2 C 0.0962(4) 0.4683(4) 0.10848(9)
C3 C 0.1114(4) 0.5437(4) 0.09977(9)
H1 H 0.1426 0.5619 0.0885
C4 C 0.0798(4) 0.5906(4) 0.10806(8)
C5 C 0.1003(3) 0.6725(3) 0.09872(7)
C6 C 0.0330(4) 0.5638(4) 0.12495(9)
H2 H 0.0126 0.5964 0.1305
C7 C 0.0165(5) 0.4888(4) 0.13346(10)
C8 C 0.0496(5) 0.4424(4) 0.12531(10)
H3 H 0.0404 0.3929 0.1313
N1 N -0.0336(5) 0.4590(4) 0.15041(10)
C9 C -0.0798(9) 0.3834(11) 0.15698(19)
O5 O -0.0880(10) 0.3132(9) 0.14862(16)
C10 C -0.2081(16) 0.2965(11) 0.1779(2)
H4 H -0.2327 0.2560 0.1683
C11 C -0.1295(11) 0.3703(8) 0.17592(15)
C12 C -0.2396(8) 0.2911(6) 0.19298(11)
H5 H -0.2847 0.2359 0.1930
C13 C -0.2021(6) 0.3360(4) 0.20919(8)
H6 H -0.2300 0.3162 0.2209
N2 N -0.1283(4) 0.4062(3) 0.20920(6)
C14 C -0.0926(8) 0.4336(6) 0.19242(9)
H7 H -0.0341 0.4669 0.1930
Cu1A Cu 0.21163(4) 0.38371(6) 0.068098(10)
Cu1O Cu 0.12170(4) 0.83875(4) 0.098569(10)
Cu1Q Cu 0.16125(4) 0.28296(6) 0.098569(10)
Cu1BA Cu -0.05038(6) 0.45504(4) 0.234765(10)
O2Q O 0.2120(3) 0.9003(5) 0.05768(6)
O3B O 0.2760(5) 0.8339(3) 0.08334(6)
O4O O 0.0572(2) 0.7550(3) 0.05826(5)
N2HA N 0.2012(5) 0.7395(3) 0.04253(6)
C15? C -0.0711(10) 0.4808(11) 0.1592(2)
O6? O -0.0466(10) 0.5605(10) 0.15978(16)
C16? C -0.1972(16) 0.3443(11) 0.1740(2)
H8? H -0.2214 0.3233 0.1621
C17? C -0.1228(12) 0.4233(9) 0.17539(16)
loop_
_geom_bond_atom_site_label_1
_geom_bond_atom_site_label_2
_geom_bond_site_symmetry_1
_geom_bond_site_symmetry_2
Cu1 O1 1_555 1_555
O1 C5 1_555 1_555
O2 C1 1_555 1_555
O3 C1 1_555 1_555
O4 C5 1_555 1_555
C1 C2 1_555 1_555
C2 C3 1_555 1_555
C3 H1 1_555 1_555
C4 C3 1_555 1_555
C5 C4 1_555 1_555
C6 C4 1_555 1_555
H2 C6 1_555 1_555
C7 C6 1_555 1_555
C8 C2 1_555 1_555
H3 C8 1_555 1_555
N1 C7 1_555 1_555
C9 N1 1_555 1_555
O5 C9 1_555 1_555
C10 H4 1_555 1_555
C11 C9 1_555 1_555
C12 C10 1_555 1_555
H5 C12 1_555 1_555
C13 C12 1_555 1_555
H6 C13 1_555 1_555
N2 C13 1_555 1_555
C14 C11 1_555 1_555
H7 C14 1_555 1_555
Cu1A O3 1_555 1_555
Cu1O Cu1 1_555 1_555
Cu1Q O2 1_555 1_555
Cu1BA N2 1_555 1_555
O2Q Cu1 1_555 1_555
O3B Cu1 1_555 1_555
O4O Cu1 1_555 1_555
N2HA Cu1 1_555 1_555
O4 Cu1O 1_555 1_555
C7 C8 1_555 1_555
C10 C11 1_555 1_555
N2 C14 1_555 1_555
Cu1A Cu1Q 1_555 1_555

#END
