
#######################################################################
#
#                 Cambridge Crystallographic Data Centre
#                                CCDC 
#
#######################################################################
#
# If this CIF has been generated from an entry in the Cambridge 
# Structural Database, then it will include bibliographic, chemical, 
# crystal, experimental, refinement or atomic coordinate data resulting 
# from the CCDC's data processing and validation procedures.
#
#######################################################################

data_WENDIE
_chemical_formula_moiety         '(C19 H15 N9 O5 Zn2)n'
_chemical_name_systematic        
'catena-(bis(\m~4~-4-(Tetrazol-5-yl)benzoato)-(N,N-dimethylformamide)-di-zinc(ii) unknown solvate)'
_symmetry_cell_setting           monoclinic
_symmetry_space_group_name_H-M   'C 2'
_symmetry_Int_Tables_number      5
_space_group_name_Hall           'C 2y'
loop_
_symmetry_equiv_pos_site_id
_symmetry_equiv_pos_as_xyz
1 x,y,z
2 -x,y,-z
3 1/2+x,1/2+y,z
4 1/2-x,1/2+y,-z
_cell_length_a                   18.1435(18)
_cell_length_b                   7.9332(8)
_cell_length_c                   17.2163(17)
_cell_angle_alpha                90
_cell_angle_beta                 105.387(2)
_cell_angle_gamma                90
_cell_volume                     2389.22
_exptl_crystal_colour            colorless
_exptl_crystal_description       prism
_cell_formula_units_Z            4
loop_
_atom_site_label
_atom_site_type_symbol
_atom_site_fract_x
_atom_site_fract_y
_atom_site_fract_z
_atom_site_U_iso_or_equiv
_atom_site_thermal_displace_type
Zn1 Zn 0.08366(7) 0.27051(17) 0.24428(6) 0.0364 Uani
Zn2 Zn 0.24954(7) -0.41675(15) 0.24340(5) 0.0293 Uani
N1 N 0.1828(5) -0.2126(13) 0.2306(5) 0.0368 Uani
N2 N 0.1380(6) -0.1809(14) 0.1557(5) 0.0436 Uani
N3 N 0.1000(6) -0.0425(15) 0.1578(5) 0.0465 Uani
N4 N 0.1202(6) 0.0177(13) 0.2349(5) 0.0408 Uani
N5 N -0.1387(5) 0.1442(10) 0.2656(4) 0.0254 Uani
N6 N -0.0897(6) 0.1097(13) 0.3396(4) 0.0372 Uani
N7 N -0.0203(6) 0.1326(13) 0.3379(5) 0.0424 Uani
N8 N -0.0200(5) 0.1886(11) 0.2616(4) 0.0297 Uani
N9 N -0.0613(6) 0.6765(12) 0.1167(5) 0.0783 Uani
O1 O 0.3596(5) -0.1497(12) 0.6484(4) 0.0453 Uani
O2 O 0.2514(5) -0.0478(12) 0.6638(4) 0.0496 Uani
O3 O -0.1361(5) 0.3284(10) -0.1547(4) 0.0644 Uani
O4 O -0.2346(5) 0.4677(11) -0.1411(4) 0.0488 Uani
O5 O 0.0186(5) 0.5100(9) 0.2084(4) 0.0676 Uani
C1 C 0.1704(7) -0.0886(16) 0.2784(6) 0.0396 Uani
C2 C 0.2039(7) -0.0816(15) 0.3655(5) 0.0376 Uani
C3 C 0.1581(7) -0.0431(17) 0.4156(6) 0.0428 Uani
H1 H 0.1069 -0.0164 0.3937 0.0510 Uiso
C4 C 0.1884(7) -0.0440(17) 0.4989(6) 0.0478 Uani
H2 H 0.1575 -0.0176 0.5326 0.0570 Uiso
C5 C 0.2640(7) -0.0839(14) 0.5312(5) 0.0355 Uani
C6 C 0.3089(7) -0.1282(17) 0.4822(6) 0.0443 Uani
H3 H 0.3589 -0.1632 0.5050 0.0530 Uiso
C7 C 0.2814(7) -0.122(2) 0.3994(6) 0.0513 Uani
H4 H 0.3136 -0.1439 0.3665 0.0610 Uiso
C8 C 0.2968(7) -0.0960(13) 0.6234(5) 0.0317 Uani
C9 C -0.0937(6) 0.1900(12) 0.2206(5) 0.0241 Uani
C10 C -0.1211(6) 0.2320(11) 0.1327(5) 0.0222 Uani
C11 C -0.0773(7) 0.1767(14) 0.0823(5) 0.0335 Uani
H5 H -0.0333 0.1132 0.1028 0.0400 Uiso
C12 C -0.0998(6) 0.2172(13) 0.0017(5) 0.0339 Uani
H6 H -0.0724 0.1740 -0.0325 0.0410 Uiso
C13 C -0.1601(7) 0.3173(12) -0.0289(5) 0.0297 Uani
C14 C -0.2048(6) 0.3743(14) 0.0222(5) 0.0329 Uani
H7 H -0.2482 0.4396 0.0018 0.0400 Uiso
C15 C -0.1829(6) 0.3314(13) 0.1020(5) 0.0319 Uani
H8 H -0.2110 0.3714 0.1361 0.0380 Uiso
C16 C -0.1809(8) 0.3732(15) -0.1169(6) 0.0435 Uani
C17 C -0.0067(7) 0.5612(16) 0.1402(6) 0.0736 Uani
H9 H 0.0139 0.5158 0.1007 0.0880 Uiso
C18 C -0.0914(8) 0.7384(16) 0.1805(7) 0.0891 Uani
H10 H -0.0667 0.6816 0.2298 0.1340 Uiso
H11 H -0.1454 0.7174 0.1675 0.1340 Uiso
H12 H -0.0821 0.8574 0.1869 0.1340 Uiso
C19 C -0.0829(8) 0.7242(16) 0.0340(6) 0.0851 Uani
H13 H -0.0555 0.6568 0.0047 0.1280 Uiso
H14 H -0.0711 0.8411 0.0293 0.1280 Uiso
H15 H -0.1369 0.7069 0.0123 0.1280 Uiso
Zn1C Zn 0.41634(7) -0.22949(17) 0.75572(6) 0.0364 Uani
Zn1A Zn -0.08366(7) 0.27051(17) -0.24428(6) 0.0364 Uani
Zn2B Zn -0.25046(7) 0.08325(15) 0.24340(5) 0.0293 Uani
Zn2C Zn 0.25046(7) 0.08325(15) 0.75660(5) 0.0293 Uani
Zn2A Zn -0.24954(7) 0.58325(15) -0.24340(5) 0.0293 Uani
N5B N 0.3613(5) -0.3558(10) 0.2656(4) 0.0254 Uani
O1C O 0.1404(5) 0.3503(12) 0.3516(4) 0.0453 Uani
O2C O 0.2486(5) -0.5478(12) 0.3362(4) 0.0496 Uani
O3A O 0.1361(5) 0.3284(10) 0.1547(4) 0.0644 Uani
O4A O 0.2346(5) -0.5323(11) 0.1411(4) 0.0488 Uani
loop_
_atom_site_aniso_label
_atom_site_aniso_U_11
_atom_site_aniso_U_22
_atom_site_aniso_U_33
_atom_site_aniso_U_23
_atom_site_aniso_U_13
_atom_site_aniso_U_12
Zn1 0.0268(8) 0.0615(8) 0.0175(5) 0.0034(5) -0.0003(5) -0.0131(6)
Zn2 0.0263 0.0474 0.0146 -0.0031 0.0059 -0.007
N1 0.032 0.054 0.022 -0.002 0.003 -0.005
N2 0.029 0.079 0.017 0.002 -0.004 0.009
N3 0.036 0.082 0.017 -0.002 -0.001 0.003
N4 0.027 0.078 0.016 -0.004 0.003 0.009
N5 0.019 0.038 0.016 0.005 -0.001 -0.002
N6 0.03 0.062 0.016 0.002 0 -0.008
N7 0.045 0.064 0.019 0.007 0.01 -0.005
N8 0.028 0.041 0.021 0.003 0.008 0.001
N9 0.065(6) 0.062(5) 0.100(5) 0.002(4) 0.008(4) 0.000(4)
O1 0.027 0.084 0.016 -0.004 -0.01 0.021
O2 0.033 0.09 0.021 -0.011 -0.001 0.016
O3 0.09 0.077 0.036 0.011 0.034 0.039
O4 0.06 0.066 0.021 0.02 0.012 0.021
O5 0.072(6) 0.065(4) 0.056(4) 0.019(3) 0.000(4) -0.024(4)
C1 0.029 0.072 0.022 -0.001 0.014 0.013
C2 0.027 0.067 0.016 -0.002 0.001 0.007
C3 0.018 0.086 0.021 -0.003 -0.001 0.016
C4 0.044 0.081 0.021 0.005 0.013 0.03
C5 0.034 0.055 0.015 0 0.002 0.015
C6 0.024 0.084 0.021 -0.01 -0.001 0.005
C7 0.028 0.1 0.027 -0.011 0.009 0.006
C8 0.043 0.042 0.01 0.001 0.007 0.005
C9 0.022 0.027 0.019 0.008 -0.002 0.001
C10 0.025 0.028 0.012 0.002 0.002 -0.002
C11 0.03 0.041 0.027 0.002 0.003 0.011
C12 0.035 0.046 0.022 0 0.01 0.007
C13 0.035 0.039 0.017 -0.005 0.01 -0.001
C14 0.027 0.049 0.024 0.014 0.009 0.008
C15 0.028 0.052 0.018 0.006 0.01 0.007
C16 0.065 0.048 0.024 0.012 0.023 0.015
C17 0.066(6) 0.069(5) 0.081(5) 0.016(4) 0.011(5) -0.012(4)
C18 0.078(8) 0.073(7) 0.109(6) -0.003(6) 0.012(6) -0.009(5)
C19 0.068(8) 0.078(7) 0.101(6) 0.003(5) 0.008(6) -0.001(6)
Zn1C 0.0268 0.0615 0.0175 -0.0034 -0.0003 0.0131
Zn1A 0.0268 0.0615 0.0175 -0.0034 -0.0003 0.0131
Zn2B 0.0263 0.0474 0.0146 -0.0031 0.0059 -0.007
Zn2C 0.0263 0.0474 0.0146 0.0031 0.0059 0.007
Zn2A 0.0263 0.0474 0.0146 0.0031 0.0059 0.007
N5B 0.019 0.038 0.016 0.005 -0.001 -0.002
O1C 0.027(6) 0.084(6) 0.016(3) 0.004(3) -0.010(3) -0.021(4)
O2C 0.033 0.09 0.021 0.011 -0.001 -0.016
O3A 0.090(6) 0.077(4) 0.036(4) -0.011(3) 0.034(4) -0.039(4)
O4A 0.06 0.066 0.021 -0.02 0.012 -0.021
loop_
_geom_bond_atom_site_label_1
_geom_bond_atom_site_label_2
_geom_bond_site_symmetry_1
_geom_bond_site_symmetry_2
Zn1 N4 1_555 1_555
Zn2 N1 1_555 1_555
N1 N2 1_555 1_555
N2 N3 1_555 1_555
N3 N4 1_555 1_555
N4 C1 1_555 1_555
N5 N6 1_555 1_555
N6 N7 1_555 1_555
N7 N8 1_555 1_555
N8 Zn1 1_555 1_555
N9 C17 1_555 1_555
O1 C8 1_555 1_555
O2 C8 1_555 1_555
O3 C16 1_555 1_555
O4 C16 1_555 1_555
O5 Zn1 1_555 1_555
C1 N1 1_555 1_555
C2 C1 1_555 1_555
C3 C2 1_555 1_555
H1 C3 1_555 1_555
C4 C3 1_555 1_555
H2 C4 1_555 1_555
C5 C4 1_555 1_555
C6 C5 1_555 1_555
H3 C6 1_555 1_555
C7 C2 1_555 1_555
H4 C7 1_555 1_555
C8 C5 1_555 1_555
C9 N5 1_555 1_555
C10 C9 1_555 1_555
C11 C10 1_555 1_555
H5 C11 1_555 1_555
C12 C11 1_555 1_555
H6 C12 1_555 1_555
C13 C12 1_555 1_555
C14 C13 1_555 1_555
H7 C14 1_555 1_555
C15 C10 1_555 1_555
H8 C15 1_555 1_555
C16 C13 1_555 1_555
C17 O5 1_555 1_555
H9 C17 1_555 1_555
C18 N9 1_555 1_555
H10 C18 1_555 1_555
H11 C18 1_555 1_555
H12 C18 1_555 1_555
C19 N9 1_555 1_555
H13 C19 1_555 1_555
H14 C19 1_555 1_555
H15 C19 1_555 1_555
Zn1C O1 1_555 1_555
Zn1A O3 1_555 1_555
Zn2B N5 1_555 1_555
Zn2C O2 1_555 1_555
Zn2A O4 1_555 1_555
N5B Zn2 1_555 1_555
O1C Zn1 1_555 1_555
O2C Zn2 1_555 1_555
O3A Zn1 1_555 1_555
O4A Zn2 1_555 1_555
N8 C9 1_555 1_555
C6 C7 1_555 1_555
C14 C15 1_555 1_555

#END
