
#######################################################################
#
#                 Cambridge Crystallographic Data Centre
#                                CCDC 
#
#######################################################################
#
# If this CIF has been generated from an entry in the Cambridge 
# Structural Database, then it will include bibliographic, chemical, 
# crystal, experimental, refinement or atomic coordinate data resulting 
# from the CCDC's data processing and validation procedures.
#
#######################################################################

data_YONNUL
_chemical_formula_moiety         
'(C43 H32 N2 O12 Zn2)n,1.5n(C3 H7 N1 O1),n(H2 O1)'
_chemical_name_systematic        
"catena-((\m~8~-tetrakis((4-carboxylatophenyl)oxymethyl)methane)-(\m~2~-4,4'-bipyridine)-di-zinc(ii) dimethylformamide solvate monohydrate)"
_symmetry_cell_setting           monoclinic
_symmetry_space_group_name_H-M   'C 2/c'
_symmetry_Int_Tables_number      15
_space_group_name_Hall           '-C 2yc'
loop_
_symmetry_equiv_pos_site_id
_symmetry_equiv_pos_as_xyz
1 x,y,z
2 -x,y,1/2-z
3 1/2+x,1/2+y,z
4 1/2-x,1/2+y,1/2-z
5 -x,-y,-z
6 x,-y,1/2+z
7 1/2-x,1/2-y,-z
8 1/2+x,1/2-y,1/2+z
_cell_length_a                   20.048(3)
_cell_length_b                   19.537(2)
_cell_length_c                   30.521(4)
_cell_angle_alpha                90
_cell_angle_beta                 96.874(2)
_cell_angle_gamma                90
_cell_volume                     11868.5
_exptl_crystal_colour            colorless
_exptl_crystal_description       needle
_cell_formula_units_Z            8
loop_
_atom_site_label
_atom_site_type_symbol
_atom_site_fract_x
_atom_site_fract_y
_atom_site_fract_z
Zn1 Zn 0.60155(3) 0.20342(3) 0.53120(2)
Zn2 Zn 0.49638(3) 0.30791(3) 0.51458(2)
O1 O 0.7791(2) 0.4793(3) 0.71106(13)
O2 O 0.6429(3) 0.2839(2) 0.56455(15)
O3 O 0.5603(3) 0.3592(2) 0.56273(14)
O4 O 0.7136(2) 0.5844(2) 0.81216(14)
O5 O 0.6182(2) 0.7469(2) 0.97312(13)
O6 O 0.5517(2) 0.6549(2) 0.96989(13)
O7 O 0.8657(3) 0.5114(2) 0.84100(13)
O8 O 0.9578(2) 0.2651(2) 0.97008(14)
O9 O 1.0281(2) 0.3484(2) 0.99505(13)
O10 O 0.8520(2) 0.6307(2) 0.72786(14)
O11 O 0.9727(2) 0.7480(2) 0.56392(13)
O12 O 1.0584(2) 0.6778(2) 0.58685(13)
N1 N 0.6772(3) 0.1338(2) 0.52984(15)
N2 N 0.9208(3) -0.1221(2) 0.51179(16)
C1 C 0.8041(3) 0.5512(3) 0.77423(18)
C2 C 0.7512(3) 0.5318(4) 0.73592(19)
H1 H 0.7395 0.5714 0.7174
H2 H 0.7109 0.5153 0.7471
C3 C 0.7376(3) 0.4494(3) 0.67761(19)
C4 C 0.7621(4) 0.3898(4) 0.6599(2)
H3 H 0.8042 0.3729 0.6707
C5 C 0.7241(4) 0.3571(4) 0.6271(2)
H4 H 0.7414 0.3181 0.6151
C6 C 0.6602(3) 0.3790(3) 0.61037(18)
C7 C 0.6373(4) 0.4398(3) 0.6275(2)
H5 H 0.5956 0.4572 0.6160
C8 C 0.6751(4) 0.4742(3) 0.6610(2)
H6 H 0.6587 0.5141 0.6724
C9 C 0.6181(3) 0.3375(3) 0.57694(19)
C10 C 0.7754(3) 0.6096(3) 0.7993(2)
H7 H 0.8061 0.6220 0.8250
H8 H 0.7673 0.6495 0.7805
C11 C 0.6877(3) 0.6139(3) 0.84605(19)
C12 C 0.7117(4) 0.6744(3) 0.8675(2)
H9 H 0.7471 0.6984 0.8575
C13 C 0.6828(4) 0.6977(3) 0.9031(2)
H10 H 0.6999 0.7368 0.9177
C14 C 0.6287(3) 0.6647(3) 0.91775(18)
C15 C 0.6046(3) 0.6050(3) 0.8962(2)
H11 H 0.5690 0.5814 0.9061
C16 C 0.6333(3) 0.5806(3) 0.8603(2)
H12 H 0.6161 0.5415 0.8457
C17 C 0.5979(3) 0.6910(3) 0.95655(19)
C18 C 0.8181(3) 0.4889(3) 0.80380(19)
H13 H 0.7770 0.4726 0.8140
H14 H 0.8373 0.4523 0.7879
C19 C 0.8889(3) 0.4640(3) 0.87134(19)
C20 C 0.8687(4) 0.3963(3) 0.8711(2)
H15 H 0.8364 0.3809 0.8489
C21 C 0.8956(4) 0.3514(3) 0.9032(2)
H16 H 0.8809 0.3063 0.9029
C22 C 0.9455(3) 0.3742(3) 0.93667(19)
C23 C 0.9657(3) 0.4422(3) 0.9369(2)
H17 H 0.9988 0.4576 0.9586
C24 C 0.9367(4) 0.4873(3) 0.9049(2)
H18 H 0.9492 0.5331 0.9059
C25 C 0.9800(3) 0.3253(3) 0.96948(18)
C26 C 0.8683(3) 0.5734(3) 0.75618(19)
H19 H 0.8857 0.5363 0.7398
H20 H 0.9022 0.5861 0.7802
C27 C 0.8925(3) 0.6460(3) 0.69648(19)
C28 C 0.8705(4) 0.7001(4) 0.6689(2)
H21 H 0.8314 0.7235 0.6731
C29 C 0.9067(4) 0.7190(4) 0.6351(2)
H22 H 0.8921 0.7555 0.6169
C30 C 0.9645(3) 0.6841(3) 0.62815(19)
C31 C 0.9882(3) 0.6319(3) 0.65688(18)
H23 H 1.0283 0.6101 0.6531
C32 C 0.9527(3) 0.6120(3) 0.69104(18)
H24 H 0.9685 0.5767 0.7100
C33 C 1.0021(3) 0.7047(3) 0.59041(19)
C34 C 0.7147(4) 0.1340(3) 0.4961(2)
H25 H 0.7083 0.1687 0.4751
C35 C 0.7624(3) 0.0842(3) 0.4917(2)
H26 H 0.7873 0.0856 0.4679
C36 C 0.7734(3) 0.0324(3) 0.52249(19)
C37 C 0.7338(3) 0.0325(3) 0.55765(19)
H27 H 0.7390 -0.0015 0.5791
C38 C 0.6877(3) 0.0835(3) 0.55963(19)
H28 H 0.6621 0.0833 0.5831
C39 C 0.8645(4) -0.1361(4) 0.5303(3)
H29 H 0.8583 -0.1800 0.5410
C40 C 0.8162(4) -0.0872(4) 0.5338(3)
H30 H 0.7776 -0.0987 0.5464
C41 C 0.8240(3) -0.0212(3) 0.5188(2)
C42 C 0.8808(4) -0.0085(3) 0.4986(2)
H31 H 0.8878 0.0346 0.4870
C43 C 0.9276(4) -0.0611(3) 0.4955(2)
H32 H 0.9652 -0.0520 0.4813
Zn1E Zn 0.60155(3) 0.79658(3) 1.03120(2)
Zn1G Zn 1.10155(3) 0.29658(3) 1.03120(2)
Zn1B Zn 1.10155(3) 0.70342(3) 0.53120(2)
Zn2E Zn 0.49638(3) 0.69209(3) 1.01458(2)
Zn2G Zn 0.99638(3) 0.19209(3) 1.01458(2)
Zn2B Zn 0.99638(3) 0.80791(3) 0.51458(2)
Zn2B_2 Zn 0.99638(3) -0.19209(3) 0.51458(2)
O5E O 0.6182(2) 0.2531(2) 0.47312(13)
O6E O 0.5517(2) 0.3451(2) 0.46989(13)
O8G O 0.4578(2) 0.2349(2) 0.47008(14)
O9G O 0.5281(2) 0.1516(2) 0.49505(13)
O11B O 0.4727(2) 0.2480(2) 0.56392(13)
O12B O 0.5584(2) 0.1778(2) 0.58685(13)
N2B N 0.4208(3) 0.3779(2) 0.51179(16)
O13 O 0.616(2) 0.223(2) 0.2608(17)
N3 N 0.5565(12) 0.1602(10) 0.3107(7)
C44 C 0.539(2) 0.0883(13) 0.3134(13)
H33 H 0.5422 0.0665 0.2856
H34 H 0.4932 0.0846 0.3203
H35 H 0.5683 0.0665 0.3361
C45 C 0.541(2) 0.2135(16) 0.3399(11)
H36 H 0.5770 0.2467 0.3425
H37 H 0.5373 0.1944 0.3685
H38 H 0.5000 0.2351 0.3285
C46 C 0.5830(17) 0.1796(17) 0.2719(9)
O14 O 0.1641(16) 0.1288(15) 0.2645(9)
N4 N 0.0874(9) 0.1686(9) 0.2148(6)
C47 C 0.1158(12) 0.2326(10) 0.2018(7)
H39 H 0.0950 0.2700 0.2154
H40 H 0.1078 0.2372 0.1703
H41 H 0.1633 0.2329 0.2110
C48 C 0.0244(14) 0.1529(18) 0.1893(10)
H42 H 0.0148 0.1050 0.1920
H43 H 0.0269 0.1638 0.1588
H44 H -0.0107 0.1793 0.1999
C49 C 0.113(2) 0.120(3) 0.2435(16)
H45 H 0.0888 0.0797 0.2464
O15 O -0.2398(15) 0.1256(14) -0.0812(8)
N5 N -0.3248(7) 0.0926(7) -0.0574(4)
C50 C -0.3819(12) 0.0529(11) -0.0502(7)
H46 H -0.3872 0.0160 -0.0711
H47 H -0.4213 0.0813 -0.0538
H48 H -0.3758 0.0346 -0.0207
C51 C -0.2813(10) 0.0842(10) -0.0849(6)
H49 H -0.2831 0.0489 -0.1054
C52 C -0.3276(12) 0.1512(11) -0.0282(7)
O16 O -0.233(2) 0.294(2) -0.2120(13)
O17 O -0.2500(12) 0.2213(12) 0.0798(8)
O18 O -0.1726(10) 0.1041(9) 0.1407(6)
O19 O -0.0355(11) 0.0564(10) 0.1115(6)
O20? O 0.5191(16) 0.0432(15) 0.2680(8)
O21? O 0.605(2) 0.171(2) 0.2488(15)
C53? C 0.0821(12) -0.1452(11) 0.1173(5)
C54? C 0.0605(18) -0.1263(18) 0.1973(10)
C55? C 0.1561(10) -0.1935(11) 0.1815(8)
C56? C 0.0938(18) 0.2162(18) 0.2014(10)
C57? C 0.2039(14) 0.1846(19) 0.2502(12)
C58? C 0.112(4) 0.134(4) 0.241(2)
H50? H 0.1209 -0.1500 0.1019
H51? H 0.0632 -0.1004 0.1120
H52? H 0.0494 -0.1791 0.1069
H53? H 0.0310 -0.0920 0.1833
H54? H 0.0889 -0.1062 0.2215
H55? H 0.0343 -0.1623 0.2082
H56? H 0.1618 -0.2064 0.2110
H57? H 0.0917 0.2619 0.2126
H58? H 0.0492 0.1976 0.1963
H59? H 0.1133 0.2170 0.1742
H60? H 0.2318 0.1756 0.2274
H61? H 0.2156 0.1540 0.2745
H62? H 0.2104 0.2310 0.2602
H63? H 0.0684 0.1263 0.2287
H64? H -0.3603 0.1532 -0.0091
N6? N 0.1021(8) -0.1545(8) 0.1653(5)
N7? N 0.1341(12) 0.1745(13) 0.2329(8)
O22? O 0.1943(15) -0.2104(15) 0.1585(9)
O23? O 0.1367(13) 0.0908(12) 0.2672(8)
O24? O -0.2868(14) 0.1980(12) -0.0288(8)
O25? O -0.2419(11) 0.2055(10) 0.1036(8)
loop_
_geom_bond_atom_site_label_1
_geom_bond_atom_site_label_2
_geom_bond_site_symmetry_1
_geom_bond_site_symmetry_2
Zn1 O2 1_555 1_555
Zn2 O3 1_555 1_555
O1 C2 1_555 1_555
O2 C9 1_555 1_555
O3 C9 1_555 1_555
O4 C10 1_555 1_555
O5 C17 1_555 1_555
O6 C17 1_555 1_555
O7 C18 1_555 1_555
O8 C25 1_555 1_555
O9 C25 1_555 1_555
O10 C26 1_555 1_555
O11 C33 1_555 1_555
O12 C33 1_555 1_555
N1 Zn1 1_555 1_555
N2 C39 1_555 1_555
C1 C2 1_555 1_555
C2 H1 1_555 1_555
H2 C2 1_555 1_555
C3 O1 1_555 1_555
C4 C3 1_555 1_555
H3 C4 1_555 1_555
C5 C4 1_555 1_555
H4 C5 1_555 1_555
C6 C5 1_555 1_555
C7 C6 1_555 1_555
H5 C7 1_555 1_555
C8 C3 1_555 1_555
H6 C8 1_555 1_555
C9 C6 1_555 1_555
C10 C1 1_555 1_555
H7 C10 1_555 1_555
H8 C10 1_555 1_555
C11 O4 1_555 1_555
C12 C11 1_555 1_555
H9 C12 1_555 1_555
C13 C12 1_555 1_555
H10 C13 1_555 1_555
C14 C13 1_555 1_555
C15 C14 1_555 1_555
H11 C15 1_555 1_555
C16 C11 1_555 1_555
H12 C16 1_555 1_555
C17 C14 1_555 1_555
C18 C1 1_555 1_555
H13 C18 1_555 1_555
H14 C18 1_555 1_555
C19 O7 1_555 1_555
C20 C19 1_555 1_555
H15 C20 1_555 1_555
C21 C20 1_555 1_555
H16 C21 1_555 1_555
C22 C21 1_555 1_555
C23 C22 1_555 1_555
H17 C23 1_555 1_555
C24 C19 1_555 1_555
H18 C24 1_555 1_555
C25 C22 1_555 1_555
C26 C1 1_555 1_555
H19 C26 1_555 1_555
H20 C26 1_555 1_555
C27 O10 1_555 1_555
C28 C27 1_555 1_555
H21 C28 1_555 1_555
C29 C28 1_555 1_555
H22 C29 1_555 1_555
C30 C29 1_555 1_555
C31 C30 1_555 1_555
H23 C31 1_555 1_555
C32 C27 1_555 1_555
H24 C32 1_555 1_555
C33 C30 1_555 1_555
C34 N1 1_555 1_555
H25 C34 1_555 1_555
C35 C34 1_555 1_555
H26 C35 1_555 1_555
C36 C35 1_555 1_555
C37 C36 1_555 1_555
H27 C37 1_555 1_555
C38 N1 1_555 1_555
H28 C38 1_555 1_555
C39 H29 1_555 1_555
C40 C39 1_555 1_555
H30 C40 1_555 1_555
C41 C36 1_555 1_555
C42 C41 1_555 1_555
H31 C42 1_555 1_555
C43 N2 1_555 1_555
H32 C43 1_555 1_555
O13 C46 1_555 1_555
N3 C44 1_555 1_555
C44 H33 1_555 1_555
H34 C44 1_555 1_555
H35 C44 1_555 1_555
C45 N3 1_555 1_555
H36 C45 1_555 1_555
H37 C45 1_555 1_555
H38 C45 1_555 1_555
C46 N3 1_555 1_555
O14 C49 1_555 1_555
N4 C47 1_555 1_555
C47 H39 1_555 1_555
H40 C47 1_555 1_555
H41 C47 1_555 1_555
C48 N4 1_555 1_555
H42 C48 1_555 1_555
H43 C48 1_555 1_555
H44 C48 1_555 1_555
C49 N4 1_555 1_555
H45 C49 1_555 1_555
O15 C51 1_555 1_555
N5 C50 1_555 1_555
C50 H46 1_555 1_555
H47 C50 1_555 1_555
H48 C50 1_555 1_555
C51 N5 1_555 1_555
H49 C51 1_555 1_555
C52 N5 1_555 1_555
Zn1E O5 1_555 1_555
Zn1G O9 1_555 1_555
Zn1B O12 1_555 1_555
Zn2E O6 1_555 1_555
Zn2G O8 1_555 1_555
Zn2B O11 1_555 1_555
Zn2B_2 N2 1_555 1_555
O5E Zn1 1_555 1_555
O6E Zn2 1_555 1_555
O8G Zn2 1_555 1_555
O9G Zn1 1_555 1_555
O11B Zn2 1_555 1_555
O12B Zn1 1_555 1_555
N2B Zn2 1_555 1_555
C7 C8 1_555 1_555
C15 C16 1_555 1_555
C23 C24 1_555 1_555
C31 C32 1_555 1_555
C37 C38 1_555 1_555
C40 C41 1_555 1_555
C42 C43 1_555 1_555

#END
