
#######################################################################
#
#                 Cambridge Crystallographic Data Centre
#                                CCDC 
#
#######################################################################
#
# If this CIF has been generated from an entry in the Cambridge 
# Structural Database, then it will include bibliographic, chemical, 
# crystal, experimental, refinement or atomic coordinate data resulting 
# from the CCDC's data processing and validation procedures.
#
#######################################################################

data_UTOWEG
_chemical_formula_moiety         
'(C88 H54 N6 O20 Ru1 Zn4)n,18n(C3 H7 N1 O1),18n(H2 O1)'
_chemical_name_systematic        
"catena-[tris(\m~4~-4,4'-Biphenyldicarboxylato-O,O',O'',O''')-(\m~3~-2,2'-bipyridine-5,5'-dicarboxylate-N,N',O,O',O'',O''')-(\m~2~-4,4'-biphenyldicarboxylato-O,O',O'',O''')-bis(2,2'-bipyridine-N,N')-ruthenium-tetra-zinc dimethylformamide solvate octadecahydrate]"
_symmetry_cell_setting           orthorhombic
_symmetry_space_group_name_H-M   'C 2 2 21'
_symmetry_Int_Tables_number      20
_space_group_name_Hall           'C 2c 2'
loop_
_symmetry_equiv_pos_site_id
_symmetry_equiv_pos_as_xyz
1 x,y,z
2 -x,-y,1/2+z
3 -x,y,1/2-z
4 x,-y,-z
5 1/2+x,1/2+y,z
6 1/2-x,1/2-y,1/2+z
7 1/2-x,1/2+y,1/2-z
8 1/2+x,1/2-y,-z
_cell_length_a                   18.4918(14)
_cell_length_b                   26.861(2)
_cell_length_c                   41.776(3)
_cell_angle_alpha                90
_cell_angle_beta                 90
_cell_angle_gamma                90
_cell_volume                     20750.5
_exptl_crystal_colour            red
_exptl_crystal_description       plate
_cell_formula_units_Z            4
loop_
_atom_site_label
_atom_site_type_symbol
_atom_site_fract_x
_atom_site_fract_y
_atom_site_fract_z
C1 C 0.7505(14) 0.1103(6) 0.3001(3)
C2 C 0.7512(14) 0.1637(5) 0.2874(4)
C3 C 0.6837(11) 0.1842(7) 0.2812(4)
N1 N 0.6784(11) 0.2313(7) 0.2676(4)
C4 C 0.7407(15) 0.2579(4) 0.2603(3)
N2 N 0.8083(11) 0.2374(7) 0.2666(4)
C5 C 0.8135(10) 0.1903(8) 0.2801(5)
O1 O 0.8101(11) 0.0856(6) 0.3041(5)
C6 C 0.7488(14) 0.3999(4) 0.2164(3)
C7 C 0.6815(11) 0.3788(7) 0.2226(3)
N3 N 0.6769(11) 0.3321(7) 0.2367(3)
C8 C 0.7395(15) 0.3064(4) 0.2447(2)
N4 N 0.8068(12) 0.3274(7) 0.2386(3)
C9 C 0.8114(11) 0.3741(7) 0.2245(4)
C10 C 1.5266(9) 0.0261(4) 0.3134(5)
C11 C 1.4417(7) 0.0281(6) 0.3138(5)
C12 C 1.4008(10) 0.0244(6) 0.3417(3)
N5 N 1.3258(10) 0.0223(5) 0.3399(4)
C13 C 1.2917(7) 0.0239(5) 0.3103(5)
C14 C 1.3325(10) 0.0276(5) 0.2824(3)
C15 C 1.4075(9) 0.0297(5) 0.2842(3)
O2 O 1.5574(9) 0.0376(6) 0.2857(4)
C16 C 0.9806(11) 0.0250(5) 0.3156(5)
C17 C 1.0631(8) 0.0243(6) 0.3128(6)
C18 C 1.1036(11) 0.0196(6) 0.3407(4)
N6 N 1.1787(11) 0.0194(4) 0.3391(4)
C19 C 1.2132(8) 0.0240(3) 0.3097(5)
C20 C 1.1727(11) 0.0288(5) 0.2819(4)
C21 C 1.0976(11) 0.0289(6) 0.2834(4)
O3 O 0.9492(11) 0.0421(7) 0.3404(5)
O4 O 0.9343(11) 0.0091(7) 0.2935(5)
C22 C 0.7525(13) 0.0209(4) 0.3808(4)
C23 C 0.7520(15) 0.0157(3) 0.4165(3)
C24 C 0.8166(10) 0.0146(7) 0.4335(6)
C25 C 0.8157(15) 0.0097(8) 0.4667(6)
C26 C 0.750(2) 0.0059(5) 0.4828(3)
C27 C 0.6855(15) 0.0070(8) 0.4658(7)
C28 C 0.6865(10) 0.0119(7) 0.4326(7)
Zn1 Zn 0.84306(18) 0.02839(16) 0.32324(9)
C29 C 1.245(3) 0.082(2) 0.3871(16)
C30 C 1.202(3) 0.086(2) 0.4143(16)
C31 C 1.189(4) 0.133(3) 0.428(2)
C32 C 1.218(6) 0.175(2) 0.414(3)
C33 C 1.261(6) 0.171(2) 0.387(3)
C34 C 1.274(4) 0.125(3) 0.373(2)
O5 O 0.6874(11) 0.0138(7) 0.3680(5)
N7 N 1.182(4) -0.005(3) 0.4157(15)
C35 C 1.169(4) 0.042(3) 0.4286(16)
C36 C 1.128(5) 0.047(4) 0.4561(18)
C37 C 1.099(5) 0.005(5) 0.4708(19)
C38 C 1.112(6) -0.042(4) 0.458(2)
C39 C 1.154(5) -0.047(3) 0.430(2)
O6 O 0.8110(10) 0.0298(6) 0.3648(4)
N8 N 1.304(4) -0.057(2) 0.3593(16)
C40 C 1.375(4) -0.056(3) 0.3700(17)
C41 C 1.421(5) -0.095(3) 0.363(2)
C42 C 1.396(6) -0.136(3) 0.346(3)
C43 C 1.325(7) -0.137(3) 0.335(2)
C44 C 1.279(5) -0.097(3) 0.3417(19)
C45 C 1.356(4) 0.027(3) 0.3951(14)
C46 C 1.402(4) -0.013(3) 0.3880(16)
C47 C 1.474(4) -0.011(4) 0.398(2)
C48 C 1.499(4) 0.029(5) 0.416(3)
C49 C 1.452(6) 0.069(4) 0.423(2)
C50 C 1.381(5) 0.067(3) 0.4125(19)
Ru3 Ru 1.2531(18) 0.0074(6) 0.3746(5)
Zn2 Zn 1.65471(19) 0.02746(16) 0.32355(9)
C51 C 0.7565(13) 0.4523(6) 0.2024(3)
O7 O 0.6831(13) 0.0952(8) 0.3056(6)
O8 O 0.8036(12) -0.0212(7) 0.2980(5)
O9 O 1.6781(11) -0.0348(7) 0.3079(4)
O10 O 1.5532(10) 0.0131(6) 0.3399(4)
C1F C 0.7495(14) -0.3897(6) 0.1999(3)
C2F C 0.7488(14) -0.3363(5) 0.2126(4)
C3F C 0.8163(11) -0.3158(7) 0.2188(4)
N1F N 0.8216(11) -0.2687(7) 0.2324(4)
C4F C 0.7593(15) -0.2421(4) 0.2397(3)
N2F N 0.6917(11) -0.2626(7) 0.2334(4)
C5F C 0.6865(10) -0.3097(8) 0.2199(5)
O1F O 0.6899(11) -0.4144(6) 0.1959(5)
C6F C 0.7512(14) -0.1001(4) 0.2836(3)
C7F C 0.8185(11) -0.1212(7) 0.2774(3)
N3F N 0.8231(11) -0.1679(7) 0.2633(3)
C8F C 0.7605(15) -0.1936(4) 0.2553(2)
N4F N 0.6932(12) -0.1726(7) 0.2614(3)
C9F C 0.6886(11) -0.1259(7) 0.2755(4)
C10_2 C 0.5266(9) 0.0261(4) 0.3134(5)
C11_2 C 0.4417(7) 0.0281(6) 0.3138(5)
C12_2 C 0.4008(10) 0.0244(6) 0.3417(3)
N5_2 N 0.3258(10) 0.0223(5) 0.3399(4)
C13_2 C 0.2917(7) 0.0239(5) 0.3103(5)
C14_2 C 0.3325(10) 0.0276(5) 0.2824(3)
C15_2 C 0.4075(9) 0.0297(5) 0.2842(3)
O2_2 O 0.5574(9) 0.0376(6) 0.2857(4)
O2C O 0.5574(9) -0.0376(6) 0.7143(4)
C16_2 C -0.0194(11) 0.0250(5) 0.3156(5)
C17_2 C 0.0631(8) 0.0243(6) 0.3128(6)
C18_2 C 0.1036(11) 0.0196(6) 0.3407(4)
N6_2 N 0.1787(11) 0.0194(4) 0.3391(4)
C19_2 C 0.2132(8) 0.0240(3) 0.3097(5)
C20_2 C 0.1727(11) 0.0288(5) 0.2819(4)
C21_2 C 0.0976(11) 0.0289(6) 0.2834(4)
O3_2 O -0.0508(11) 0.0421(7) 0.3404(5)
O4_2 O -0.0657(11) 0.0091(7) 0.2935(5)
C22C C 0.7525(13) -0.0209(4) 0.6192(4)
C23C C 0.7520(15) -0.0157(3) 0.5835(3)
C24C C 0.8166(10) -0.0146(7) 0.5665(6)
C25C C 0.8157(15) -0.0097(8) 0.5333(6)
C26C C 0.750(2) -0.0059(5) 0.5172(3)
C27C C 0.6855(15) -0.0070(8) 0.5342(7)
C28C C 0.6865(10) -0.0119(7) 0.5674(7)
Zn1C Zn 0.84306(18) -0.02839(16) 0.67676(9)
Zn1F Zn 0.65694(18) -0.47161(16) 0.17676(9)
Zn1_2 Zn -0.15694(18) 0.02839(16) 0.32324(9)
Zn1F_2 Zn 0.65694(18) 0.52839(16) 0.17676(9)
O5_2 O 1.6874(11) 0.0138(7) 0.3680(5)
O5C O 0.6874(11) -0.0138(7) 0.6320(5)
O6C O 0.8110(10) -0.0298(6) 0.6352(4)
Zn2_2 Zn 0.65471(19) 0.02746(16) 0.32355(9)
Zn2C Zn 0.65471(19) -0.02746(16) 0.67645(9)
Zn2F Zn 0.84529(19) -0.47254(16) 0.17645(9)
Zn2F_2 Zn 0.84529(19) 0.52746(16) 0.17645(9)
C51F C 0.7435(13) -0.0477(6) 0.2976(3)
C51F_2 C 1.7435(13) -0.0477(6) 0.2976(3)
O7_2 O 1.6831(13) 0.0952(8) 0.3056(6)
O7F O 0.8169(13) -0.4048(8) 0.1944(6)
O7C O 0.6831(13) -0.0952(8) 0.6944(6)
O8F O 0.6964(12) 0.4788(7) 0.2020(5)
O9F O 0.8219(11) 0.4652(7) 0.1921(4)
O9_2 O 0.6781(11) -0.0348(7) 0.3079(4)
O9C O 0.6781(11) 0.0348(7) 0.6921(4)
O10_2 O 0.5532(10) 0.0131(6) 0.3399(4)
O10C O 0.5532(10) -0.0131(6) 0.6601(4)
Ru1? Ru 0.6110(11) 0.2798(6) 0.2518(4)
Ru2? Ru 0.8877(11) 0.2793(6) 0.2526(4)
C52? C 0.9459 0.2185 0.2590
C53? C 1.0113 0.2341 0.2720
C54? C 1.0629 0.1992 0.2810
C55? C 1.0493 0.1487 0.2770
C56? C 0.9840 0.1331 0.2639
C57? C 0.9323 0.1680 0.2549
N9? N 0.9770 0.3231 0.2661
C58? C 1.0271 0.2874 0.2755
C59? C 1.0916 0.3019 0.2898
C60? C 1.1060 0.3521 0.2947
C61? C 1.0559 0.3878 0.2854
C62? C 0.9914 0.3733 0.2711
C63? C 0.9432 0.2367 0.2196
C64? C 0.9959 0.2661 0.2052
C65? C 1.0379 0.2468 0.1806
C66? C 1.0272 0.1982 0.1703
C67? C 0.9745 0.1688 0.1846
C68? C 0.9325 0.1881 0.2093
N10? N 0.9665 0.3333 0.2430
C69? C 1.0078 0.3172 0.2172
C70? C 1.0561 0.3496 0.2025
C71? C 1.0630 0.3981 0.2136
C72? C 1.0217 0.4143 0.2394
C73? C 0.9734 0.3819 0.2541
C74? C 0.5830 0.3264 0.2902
C75? C 0.5329 0.3618 0.2802
C76? C 0.5053 0.3960 0.3020
C77? C 0.5278 0.3948 0.3338
C78? C 0.5780 0.3595 0.3437
C79? C 0.6056 0.3253 0.3219
N11? N 0.5389 0.3274 0.2259
C80? C 0.5106 0.3628 0.2467
C81? C 0.4609 0.3975 0.2356
C82? C 0.4395 0.3969 0.2037
C83? C 0.4677 0.3614 0.1829
C84? C 0.5175 0.3267 0.1940
N12? N 0.5254 0.2350 0.2736
C85? C 0.5138 0.1965 0.2519
C86? C 0.4651 0.1588 0.2591
C87? C 0.4278 0.1595 0.2880
C88? C 0.4394 0.1979 0.3097
C89? C 0.4881 0.2356 0.3025
C90? C 0.6023 0.2331 0.2139
C91? C 0.5528 0.1959 0.2213
C92? C 0.5398 0.1576 0.1996
C93? C 0.5764 0.1566 0.1706
C94? C 0.6259 0.1938 0.1632
C95? C 0.6389 0.2320 0.1849
loop_
_geom_bond_atom_site_label_1
_geom_bond_atom_site_label_2
_geom_bond_site_symmetry_1
_geom_bond_site_symmetry_2
C1 C2 1_555 1_555
C2 C3 1_555 1_555
C3 N1 1_555 1_555
N1 C4 1_555 1_555
C4 N2 1_555 1_555
N2 C5 1_555 1_555
C5 C2 1_555 1_555
O1 C1 1_555 1_555
C6 C7 1_555 1_555
C7 N3 1_555 1_555
N3 C8 1_555 1_555
C8 C4 1_555 1_555
N4 C8 1_555 1_555
C9 C6 1_555 1_555
C10 C11 1_555 1_555
C11 C12 1_555 1_555
C12 N5 1_555 1_555
N5 C13 1_555 1_555
C13 C14 1_555 1_555
C14 C15 1_555 1_555
C15 C11 1_555 1_555
O2 C10 1_555 1_555
C16 C17 1_555 1_555
C17 C18 1_555 1_555
C18 N6 1_555 1_555
N6 C19 1_555 1_555
C19 C13 1_555 1_555
C20 C19 1_555 1_555
C21 C17 1_555 1_555
O3 C16 1_555 1_555
O4 C16 1_555 1_555
C22 C23 1_555 1_555
C23 C24 1_555 1_555
C24 C25 1_555 1_555
C25 C26 1_555 1_555
C26 C27 1_555 1_555
C27 C28 1_555 1_555
C28 C23 1_555 1_555
Zn1 O1 1_555 1_555
C29 C30 1_555 1_555
C30 C31 1_555 1_555
C31 C32 1_555 1_555
C32 C33 1_555 1_555
C33 C34 1_555 1_555
C34 C29 1_555 1_555
O5 C22 1_555 1_555
N7 C35 1_555 1_555
C35 C30 1_555 1_555
C36 C35 1_555 1_555
C37 C36 1_555 1_555
C38 C37 1_555 1_555
C39 N7 1_555 1_555
O6 C22 1_555 1_555
N8 C40 1_555 1_555
C40 C41 1_555 1_555
C41 C42 1_555 1_555
C42 C43 1_555 1_555
C43 C44 1_555 1_555
C44 N8 1_555 1_555
C45 C46 1_555 1_555
C46 C40 1_555 1_555
C47 C46 1_555 1_555
C48 C47 1_555 1_555
C49 C48 1_555 1_555
C50 C45 1_555 1_555
Ru3 N5 1_555 1_555
Zn2 O2 1_555 1_555
C51 C6 1_555 1_555
O7 C1 1_555 1_555
O8 Zn1 1_555 1_555
O9 Zn2 1_555 1_555
O10 C10 1_555 1_555
C1F C2F 1_555 1_555
C2F C3F 1_555 1_555
C3F N1F 1_555 1_555
N1F C4F 1_555 1_555
C4F N2F 1_555 1_555
N2F C5F 1_555 1_555
C5F C2F 1_555 1_555
O1F C1F 1_555 1_555
C6F C7F 1_555 1_555
C7F N3F 1_555 1_555
N3F C8F 1_555 1_555
C8F C4F 1_555 1_555
N4F C8F 1_555 1_555
C9F C6F 1_555 1_555
C10_2 C11_2 1_555 1_555
C11_2 C12_2 1_555 1_555
C12_2 N5_2 1_555 1_555
N5_2 C13_2 1_555 1_555
C13_2 C14_2 1_555 1_555
C14_2 C15_2 1_555 1_555
C15_2 C11_2 1_555 1_555
O2_2 C10_2 1_555 1_555
O2C Zn2C 1_555 1_555
C16_2 C17_2 1_555 1_555
C17_2 C18_2 1_555 1_555
C18_2 N6_2 1_555 1_555
N6_2 C19_2 1_555 1_555
C19_2 C13_2 1_555 1_555
C20_2 C19_2 1_555 1_555
C21_2 C17_2 1_555 1_555
O3_2 C16_2 1_555 1_555
O4_2 C16_2 1_555 1_555
C22C C23C 1_555 1_555
C23C C24C 1_555 1_555
C24C C25C 1_555 1_555
C25C C26C 1_555 1_555
C26C C26 1_555 1_555
C27C C26C 1_555 1_555
C28C C23C 1_555 1_555
Zn1C O6C 1_555 1_555
Zn1F O1F 1_555 1_555
Zn1_2 O3_2 1_555 1_555
Zn1F_2 O8F 1_555 1_555
O5_2 Zn2 1_555 1_555
O5C C22C 1_555 1_555
O6C C22C 1_555 1_555
Zn2_2 O5 1_555 1_555
Zn2C O5C 1_555 1_555
Zn2F O7F 1_555 1_555
Zn2F_2 O9F 1_555 1_555
C51F O8 1_555 1_555
C51F_2 O9 1_555 1_555
O7_2 Zn2 1_555 1_555
O7F C1F 1_555 1_555
O7C Zn2C 1_555 1_555
O8F C51 1_555 1_555
O9F C51 1_555 1_555
O9_2 Zn2_2 1_555 1_555
O9C Zn2C 1_555 1_555
O10_2 C10_2 1_555 1_555
O10C Zn2C 1_555 1_555
N4 C9 1_555 1_555
N6 Ru3 1_555 1_555
C20 C21 1_555 1_555
O3 Zn1 1_555 1_555
O4 Zn1 1_555 1_555
Zn1 O6 1_555 1_555
C29 Ru3 1_555 1_555
N7 Ru3 1_555 1_555
C38 C39 1_555 1_555
N8 Ru3 1_555 1_555
C45 Ru3 1_555 1_555
C49 C50 1_555 1_555
Zn2 O10 1_555 1_555
O7 Zn2_2 1_555 1_555
C6F C51F 1_555 1_555
N4F C9F 1_555 1_555
O2_2 Zn2_2 1_555 1_555
C20_2 C21_2 1_555 1_555
O4_2 Zn1_2 1_555 1_555
C27C C28C 1_555 1_555
Zn2_2 O10_2 1_555 1_555
C51F O9_2 1_555 1_555

#END
