
#######################################################################
#
#                 Cambridge Crystallographic Data Centre
#                                CCDC 
#
#######################################################################
#
# If this CIF has been generated from an entry in the Cambridge 
# Structural Database, then it will include bibliographic, chemical, 
# crystal, experimental, refinement or atomic coordinate data resulting 
# from the CCDC's data processing and validation procedures.
#
#######################################################################

data_QIQZIB
_chemical_name_common            JLU-Liu-1
_chemical_formula_moiety         '(C28 H28 Cu8 N6 O32 S6)n'
_chemical_name_systematic        
catena-[bis(\m~4~-4-(pyrimidin-5-yl)benzoato)-hexakis(\m-sulfato)-bis(\m-oxo)-bis(N,N-dimethylformamide)-octa-copper]
_symmetry_cell_setting           tetragonal
_symmetry_space_group_name_H-M   'P 43 21 2'
_symmetry_Int_Tables_number      96
_space_group_name_Hall           'P 4nw 2abw'
loop_
_symmetry_equiv_pos_site_id
_symmetry_equiv_pos_as_xyz
1 x,y,z
2 -x,-y,1/2+z
3 1/2-y,1/2+x,3/4+z
4 1/2+y,1/2-x,1/4+z
5 1/2-x,1/2+y,3/4-z
6 1/2+x,1/2-y,1/4-z
7 y,x,-z
8 -y,-x,1/2-z
_cell_length_a                   13.6542(19)
_cell_length_b                   13.6542(19)
_cell_length_c                   42.160(8)
_cell_angle_alpha                90
_cell_angle_beta                 90
_cell_angle_gamma                90
_cell_volume                     7860.19
_exptl_crystal_colour            green
_exptl_crystal_description       block
_cell_formula_units_Z            4
loop_
_atom_site_label
_atom_site_type_symbol
_atom_site_fract_x
_atom_site_fract_y
_atom_site_fract_z
_atom_site_U_iso_or_equiv
_atom_site_thermal_displace_type
Cu1 Cu 0.55767(3) 0.51279(3) 0.279284(9) 0.0271 Uani
Cu2 Cu 0.72394(3) 0.42180(3) 0.236332(8) 0.0261 Uani
Cu3 Cu 0.32772(3) 0.54182(3) 0.270364(9) 0.0318 Uani
Cu4 Cu 0.63234(4) 0.84817(3) 0.253978(9) 0.0377 Uani
S1 S 0.71554(6) 0.38635(6) 0.308206(18) 0.0313 Uani
S2 S 0.46042(7) 0.69980(6) 0.30074(2) 0.0373 Uani
S3 S 0.68642(7) 0.64860(6) 0.21550(2) 0.0365 Uani
O1 O 0.2078(2) 0.5486(2) 0.29446(7) 0.0533 Uani
O2 O 0.10041(18) 0.4311(2) 0.28302(5) 0.0410 Uani
O3 O 0.59106(14) 0.40894(14) 0.2500 0.0222 Uani
O4 O 0.45389(15) 0.54611(15) 0.2500 0.0250 Uani
O5 O 0.6540(2) 0.4747(2) 0.31065(6) 0.0433 Uani
O6 O 0.77848(18) 0.3967(2) 0.28024(6) 0.0439 Uani
O7 O 0.6495(2) 0.3017(2) 0.30391(6) 0.0484 Uani
O8 O 0.7732(2) 0.3740(2) 0.33646(6) 0.0463 Uani
O9 O 0.5283(2) 0.61837(19) 0.30832(6) 0.0466 Uani
O10 O 0.3607(2) 0.6603(2) 0.29633(8) 0.0591 Uani
O11 O 0.4926(3) 0.7451(2) 0.27059(6) 0.0509 Uani
O12 O 0.4612(2) 0.7703(2) 0.32594(7) 0.0536 Uani
O13 O 0.7100(2) 0.57859(18) 0.24087(7) 0.0460 Uani
O14 O 0.6964(3) 0.7479(2) 0.22912(8) 0.0616 Uani
O15 O 0.5861(2) 0.6330(3) 0.20483(7) 0.0600 Uani
O16 O 0.7533(2) 0.6403(3) 0.18881(8) 0.0608 Uani
O17 O 0.7004(3) 0.8130(3) 0.29256(8) 0.0631 Uani
N1 N -0.06726(19) 0.63829(18) 0.46926(6) 0.0274 Uani
N2 N -0.0877(2) 0.46912(18) 0.47213(6) 0.0281 Uani
N3 N 0.7866(3) 0.7146(3) 0.32377(10) 0.0631 Uani
C1 C -0.0900(2) 0.5578(2) 0.48476(7) 0.0294 Uani
H1 H -0.1088 0.5636 0.5059 0.0800 Uiso
C2 C -0.0384(2) 0.6309(2) 0.43897(7) 0.0294 Uani
H2 H -0.0236 0.6874 0.4276 0.0800 Uiso
C3 C -0.0303(2) 0.5408(2) 0.42445(7) 0.0270 Uani
C4 C -0.0577(3) 0.4606(2) 0.44218(7) 0.0300 Uani
H3 H -0.0552 0.3988 0.4330 0.0800 Uiso
C5 C 0.0087(2) 0.5305(2) 0.39205(7) 0.0263 Uani
C6 C 0.0834(3) 0.5915(3) 0.38171(9) 0.0428 Uani
H4 H 0.1079 0.6396 0.3952 0.0800 Uiso
C7 C 0.1207(3) 0.5816(3) 0.35221(9) 0.0473 Uani
H5 H 0.1702 0.6237 0.3456 0.0800 Uiso
C8 C 0.0867(2) 0.5098(2) 0.33139(7) 0.0296 Uani
C9 C 0.0112(2) 0.4500(3) 0.34120(7) 0.0334 Uani
H6 H -0.0136 0.4024 0.3276 0.0800 Uiso
C10 C -0.0277(2) 0.4612(3) 0.37136(7) 0.0333 Uani
H7 H -0.0792 0.4213 0.3778 0.0800 Uiso
C11 C 0.1350(2) 0.4949(3) 0.30046(7) 0.0325 Uani
C12 C 0.7448(4) 0.7355(4) 0.29733(13) 0.0631 Uani
H8 H 0.7482 0.6900 0.2810 0.0800 Uiso
C13 C 0.8229(8) 0.8056(7) 0.3435(2) 0.0631 Uani
H9 H 0.8481 0.7839 0.3635 0.0800 Uiso
H10 H 0.7692 0.8497 0.3469 0.0800 Uiso
H11 H 0.8737 0.8388 0.3320 0.0800 Uiso
C14 C 0.8300(8) 0.6205(7) 0.3333(3) 0.0631 Uani
H12 H 0.8655 0.6287 0.3527 0.0800 Uiso
H13 H 0.8739 0.5983 0.3170 0.0800 Uiso
H14 H 0.7790 0.5730 0.3362 0.0800 Uiso
Cu1G Cu 0.48721(3) 0.44233(3) 0.220716(9) 0.0271 Uani
Cu2G Cu 0.57820(3) 0.27606(3) 0.263668(8) 0.0261 Uani
Cu3G Cu 0.45818(3) 0.67228(3) 0.229636(9) 0.0318 Uani
Cu4G Cu 0.15183(3) 0.36766(4) 0.246022(9) 0.0377 Uani
S1G S 0.61365(6) 0.28446(6) 0.191794(18) 0.0313 Uani
S2G S 0.30020(6) 0.53958(7) 0.19926(2) 0.0373 Uani
S3G S 0.35140(6) 0.31358(7) 0.28450(2) 0.0365 Uani
O1G O 0.4514(2) 0.7922(2) 0.20554(7) 0.0533 Uani
O2G O 0.5689(2) 0.89959(18) 0.21698(5) 0.0410 Uani
O5G O 0.5253(2) 0.3460(2) 0.18935(6) 0.0433 Uani
O6G O 0.6033(2) 0.22152(18) 0.21976(6) 0.0439 Uani
O7G O 0.6983(2) 0.3505(2) 0.19609(6) 0.0484 Uani
O8G O 0.6260(2) 0.2268(2) 0.16354(6) 0.0463 Uani
O9G O 0.38163(19) 0.4717(2) 0.19168(6) 0.0466 Uani
O10G O 0.3397(2) 0.6393(2) 0.20367(8) 0.0591 Uani
O11G O 0.2549(2) 0.5074(3) 0.22941(6) 0.0509 Uani
O12G O 0.2297(2) 0.5388(2) 0.17406(7) 0.0536 Uani
O13G O 0.42141(18) 0.2900(2) 0.25913(7) 0.0460 Uani
O14G O 0.2521(2) 0.3036(3) 0.27088(8) 0.0616 Uani
O15G O 0.3670(3) 0.4139(2) 0.29517(7) 0.0600 Uani
O16G O 0.3597(3) 0.2467(2) 0.31119(8) 0.0608 Uani
O17G O 0.1870(3) 0.2996(3) 0.20744(8) 0.0631 Uani
N1G N 0.36171(18) 1.06726(19) 0.03074(6) 0.0274 Uani
N2G N 0.53088(18) 1.0877(2) 0.02787(6) 0.0281 Uani
N3G N 0.2854(3) 0.2134(3) 0.17623(10) 0.0631 Uani
C1G C 0.4422(2) 1.0900(2) 0.01524(7) 0.0294 Uani
H1G H 0.4364 1.1088 -0.0059 0.0800 Uiso
C2G C 0.3691(2) 1.0384(2) 0.06103(7) 0.0294 Uani
H2G H 0.3126 1.0236 0.0724 0.0800 Uiso
C3G C 0.4592(2) 1.0303(2) 0.07555(7) 0.0270 Uani
C4G C 0.5394(2) 1.0577(3) 0.05782(7) 0.0300 Uani
H3G H 0.6012 1.0552 0.0670 0.0800 Uiso
C5G C 0.4695(2) 0.9913(2) 0.10795(7) 0.0263 Uani
C6G C 0.4085(3) 0.9166(3) 0.11829(9) 0.0428 Uani
H4G H 0.3604 0.8921 0.1048 0.0800 Uiso
C7G C 0.4184(3) 0.8793(3) 0.14779(9) 0.0473 Uani
H5G H 0.3763 0.8298 0.1544 0.0800 Uiso
C8G C 0.4902(2) 0.9133(2) 0.16861(7) 0.0296 Uani
C9G C 0.5500(3) 0.9888(2) 0.15880(7) 0.0334 Uani
H6G H 0.5976 1.0136 0.1724 0.0800 Uiso
C10G C 0.5388(3) 1.0277(2) 0.12864(7) 0.0333 Uani
H7G H 0.5787 1.0792 0.1222 0.0800 Uiso
C11G C 0.5051(3) 0.8650(2) 0.19954(7) 0.0325 Uani
C12G C 0.2645(4) 0.2552(4) 0.20267(13) 0.0631 Uani
H8G H 0.3100 0.2518 0.2190 0.0800 Uiso
C13G C 0.1944(7) 0.1771(8) 0.1565(2) 0.0631 Uani
H9G H 0.2161 0.1519 0.1365 0.0800 Uiso
H10G H 0.1503 0.2308 0.1531 0.0800 Uiso
H11G H 0.1612 0.1263 0.1680 0.0800 Uiso
C14G C 0.3795(7) 0.1700(8) 0.1667(3) 0.0631 Uani
H12G H 0.3713 0.1345 0.1473 0.0800 Uiso
H13G H 0.4017 0.1261 0.1830 0.0800 Uiso
H14G H 0.4270 0.2210 0.1638 0.0800 Uiso
Cu2C Cu -0.07820(3) 0.77606(3) 0.486332(8) 0.0261 Uani
Cu2E Cu 0.22394(3) 1.07820(3) 0.013668(8) 0.0261 Uani
Cu4B Cu 0.65183(3) 1.13234(4) 0.003978(9) 0.0377 Uani
Cu4D Cu -0.13234(4) 0.34817(3) 0.496022(9) 0.0377 Uani
N1B N 0.86171(18) 0.43274(19) 0.21926(6) 0.0274 Uani
N1D N 0.56726(19) 0.13829(18) 0.28074(6) 0.0274 Uani
N2B N 0.03088(18) 0.4123(2) 0.22213(6) 0.0281 Uani
N2D N 0.5877(2) 0.96912(18) 0.27787(6) 0.0281 Uani
C15? C 0.7677(8) 0.7745(8) 0.3522(2) 0.0631 Uani
H15? H 0.8040 0.7486 0.3698 0.0800 Uiso
H16? H 0.6990 0.7731 0.3570 0.0800 Uiso
H17? H 0.7877 0.8408 0.3483 0.0800 Uiso
C16? C 0.8608(8) 0.6301(8) 0.3209(3) 0.0631 Uani
H18? H 0.8991 0.6263 0.3399 0.0800 Uiso
H19? H 0.9031 0.6419 0.3031 0.0800 Uiso
H20? H 0.8263 0.5696 0.3178 0.0800 Uiso
loop_
_atom_site_aniso_label
_atom_site_aniso_U_11
_atom_site_aniso_U_22
_atom_site_aniso_U_33
_atom_site_aniso_U_23
_atom_site_aniso_U_13
_atom_site_aniso_U_12
Cu1 0.03309(19) 0.02670(18) 0.02141(17) 0.00004(13) -0.00036(14) 0.00115(15)
Cu2 0.02228(17) 0.03265(19) 0.02326(17) 0.00344(14) 0.00496(13) 0.00078(15)
Cu3 0.03052(19) 0.0348(2) 0.03016(19) 0.00278(16) 0.01170(15) -0.00068(16)
Cu4 0.0625(3) 0.0285(2) 0.02218(18) -0.00123(15) -0.00388(18) 0.01462(19)
S1 0.0321(4) 0.0403(4) 0.0215(3) 0.0064(3) -0.0032(3) -0.0042(3)
S2 0.0523(5) 0.0272(4) 0.0323(4) -0.0031(3) 0.0120(4) -0.0021(4)
S3 0.0385(4) 0.0307(4) 0.0402(4) 0.0010(3) 0.0171(4) 0.0032(3)
O1 0.0492(16) 0.0563(17) 0.0544(17) -0.0102(14) 0.0319(14) -0.0135(14)
O2 0.0360(13) 0.0633(17) 0.0236(11) -0.0079(11) 0.0023(9) -0.0040(12)
O3 0.0232(8) 0.0232(8) 0.0203(13) 0.0034(8) 0.0034(8) 0.0020(11)
O4 0.0257(8) 0.0257(8) 0.0235(13) 0.0026(8) 0.0026(8) 0.0009(11)
O5 0.0467(14) 0.0542(16) 0.0289(11) -0.0094(11) -0.0103(10) 0.0089(12)
O6 0.0280(11) 0.0769(19) 0.0268(11) 0.0138(12) 0.0017(9) -0.0009(12)
O7 0.0647(18) 0.0474(15) 0.0332(13) 0.0157(11) -0.0150(12) -0.0223(13)
O8 0.0452(14) 0.0647(18) 0.0289(12) 0.0085(12) -0.0113(11) -0.0051(13)
O9 0.0745(19) 0.0350(13) 0.0302(12) -0.0058(10) -0.0046(12) 0.0075(13)
O10 0.0559(17) 0.0473(16) 0.074(2) -0.0249(15) 0.0309(16) -0.0086(14)
O11 0.078(2) 0.0403(14) 0.0345(13) 0.0064(11) 0.0024(13) -0.0140(14)
O12 0.077(2) 0.0372(14) 0.0465(15) -0.0132(12) 0.0159(15) -0.0091(14)
O13 0.0560(16) 0.0313(12) 0.0507(15) 0.0010(11) -0.0093(13) 0.0027(11)
O14 0.090(2) 0.0287(13) 0.066(2) -0.0084(13) 0.0288(18) 0.0041(14)
O15 0.0410(15) 0.105(3) 0.0340(14) 0.0061(16) 0.0084(12) 0.0136(16)
O16 0.0600(18) 0.0638(19) 0.0586(18) -0.0101(15) 0.0330(15) -0.0096(15)
O17 0.0643(6) 0.0629(6) 0.0622(6) 0.0011(4) -0.0026(4) 0.0033(4)
N1 0.0332(13) 0.0226(12) 0.0265(12) -0.0042(10) 0.0074(10) -0.0014(10)
N2 0.0463(15) 0.0193(11) 0.0187(11) -0.0021(9) -0.0018(10) -0.0012(11)
N3 0.0643(6) 0.0629(6) 0.0622(6) 0.0011(4) -0.0026(4) 0.0033(4)
C1 0.0364(16) 0.0247(14) 0.0271(14) -0.0033(11) 0.0047(12) -0.0026(12)
C2 0.0346(16) 0.0243(14) 0.0292(14) -0.0052(11) 0.0072(12) -0.0065(13)
C3 0.0312(15) 0.0285(14) 0.0212(13) -0.0011(11) 0.0033(11) 0.0005(12)
C4 0.0468(18) 0.0244(14) 0.0187(13) 0.0000(11) 0.0033(12) 0.0006(13)
C5 0.0327(15) 0.0252(14) 0.0211(13) -0.0011(11) 0.0040(11) -0.0002(12)
C6 0.0444(19) 0.044(2) 0.0399(18) -0.0161(16) 0.0104(16) -0.0201(16)
C7 0.051(2) 0.046(2) 0.045(2) -0.0121(17) 0.0197(17) -0.0238(18)
C8 0.0289(14) 0.0364(16) 0.0234(14) -0.0032(12) 0.0080(12) 0.0018(13)
C9 0.0326(16) 0.0438(18) 0.0238(14) -0.0073(13) 0.0034(12) -0.0066(15)
C10 0.0351(17) 0.0393(18) 0.0255(14) -0.0042(12) 0.0063(12) -0.0096(14)
C11 0.0263(15) 0.0459(18) 0.0253(14) 0.0031(13) 0.0076(12) 0.0039(14)
C12 0.0643(6) 0.0629(6) 0.0622(6) 0.0011(4) -0.0026(4) 0.0033(4)
C13 0.0643(6) 0.0629(6) 0.0622(6) 0.0011(4) -0.0026(4) 0.0033(4)
C14 0.0643(6) 0.0629(6) 0.0622(6) 0.0011(4) -0.0026(4) 0.0033(4)
Cu1G 0.0267 0.03309 0.02141 -0.00036 4e-05 0.00115
Cu2G 0.03265 0.02228 0.02326 0.00496 0.00344 0.00078
Cu3G 0.0348 0.03052 0.03016 0.0117 0.00278 -0.00068
Cu4G 0.0285 0.0625 0.02218 -0.00388 -0.00123 0.01462
S1G 0.0403 0.0321 0.0215 -0.0032 0.0064 -0.0042
S2G 0.0272 0.0523 0.0323 0.012 -0.0031 -0.0021
S3G 0.0307 0.0385 0.0402 0.0171 0.001 0.0032
O1G 0.0563 0.0492 0.0544 0.0319 -0.0102 -0.0135
O2G 0.0633 0.036 0.0236 0.0023 -0.0079 -0.004
O5G 0.0542 0.0467 0.0289 -0.0103 -0.0094 0.0089
O6G 0.0769 0.028 0.0268 0.0017 0.0138 -0.0009
O7G 0.0474 0.0647 0.0332 -0.015 0.0157 -0.0223
O8G 0.0647 0.0452 0.0289 -0.0113 0.0085 -0.0051
O9G 0.035 0.0745 0.0302 -0.0046 -0.0058 0.0075
O10G 0.0473 0.0559 0.074 0.0309 -0.0249 -0.0086
O11G 0.0403 0.078 0.0345 0.0024 0.0064 -0.014
O12G 0.0372 0.077 0.0465 0.0159 -0.0132 -0.0091
O13G 0.0313 0.056 0.0507 -0.0093 0.001 0.0027
O14G 0.0287 0.09 0.066 0.0288 -0.0084 0.0041
O15G 0.105 0.041 0.034 0.0084 0.0061 0.0136
O16G 0.0638 0.06 0.0586 0.033 -0.0101 -0.0096
O17G 0.0629 0.0643 0.0622 -0.0026 0.0011 0.0033
N1G 0.0226 0.0332 0.0265 0.0074 -0.0042 -0.0014
N2G 0.0193 0.0463 0.0187 -0.0018 -0.0021 -0.0012
N3G 0.0629 0.0643 0.0622 -0.0026 0.0011 0.0033
C1G 0.0247 0.0364 0.0271 0.0047 -0.0033 -0.0026
C2G 0.0243 0.0346 0.0292 0.0072 -0.0052 -0.0065
C3G 0.0285 0.0312 0.0212 0.0033 -0.0011 0.0005
C4G 0.0244 0.0468 0.0187 0.0033 0 0.0006
C5G 0.0252 0.0327 0.0211 0.004 -0.0011 -0.0002
C6G 0.044 0.0444 0.0399 0.0104 -0.0161 -0.0201
C7G 0.046 0.051 0.045 0.0197 -0.0121 -0.0238
C8G 0.0364 0.0289 0.0234 0.008 -0.0032 0.0018
C9G 0.0438 0.0326 0.0238 0.0034 -0.0073 -0.0066
C10G 0.0393 0.0351 0.0255 0.0063 -0.0042 -0.0096
C11G 0.0459 0.0263 0.0253 0.0076 0.0031 0.0039
C12G 0.0629 0.0643 0.0622 -0.0026 0.0011 0.0033
C13G 0.0629 0.0643 0.0622 -0.0026 0.0011 0.0033
C14G 0.0629 0.0643 0.0622 -0.0026 0.0011 0.0033
Cu2C 0.03265 0.02228 0.02326 -0.00496 0.00344 -0.00078
Cu2E 0.02228 0.03265 0.02326 0.00344 -0.00496 -0.00078
Cu4B 0.0285 0.0625 0.02218 -0.00388 0.00123 -0.01462
Cu4D 0.0625 0.0285 0.02218 0.00123 -0.00388 -0.01462
N1B 0.0226 0.0332 0.0265 0.0074 0.0042 0.0014
N1D 0.0332 0.0226 0.0265 0.0042 0.0074 0.0014
N2B 0.0193 0.0463 0.0187 -0.0018 0.0021 0.0012
N2D 0.0463 0.0193 0.0187 0.0021 -0.0018 0.0012
C15? 0.0643(6) 0.0629(6) 0.0622(6) 0.0011(4) -0.0026(4) 0.0033(4)
C16? 0.0643(6) 0.0629(6) 0.0622(6) 0.0011(4) -0.0026(4) 0.0033(4)
loop_
_geom_bond_atom_site_label_1
_geom_bond_atom_site_label_2
_geom_bond_site_symmetry_1
_geom_bond_site_symmetry_2
Cu1 O3 1_555 1_555
Cu2 O3 1_555 1_555
Cu3 O1 1_555 1_555
Cu4 O11 1_555 1_555
S1 O5 1_555 1_555
S2 O9 1_555 1_555
S3 O13 1_555 1_555
O1 C11 1_555 1_555
O2 C11 1_555 1_555
O3 Cu1G 1_555 1_555
O4 Cu1 1_555 1_555
O5 Cu1 1_555 1_555
O6 Cu2 1_555 1_555
O7 S1 1_555 1_555
O8 S1 1_555 1_555
O9 Cu1 1_555 1_555
O10 Cu3 1_555 1_555
O11 S2 1_555 1_555
O12 S2 1_555 1_555
O13 Cu1 1_555 1_555
O14 Cu4 1_555 1_555
O15 S3 1_555 1_555
O16 S3 1_555 1_555
O17 Cu4 1_555 1_555
N1 C1 1_555 1_555
N2 C1 1_555 1_555
N3 C12 1_555 1_555
C1 H1 1_555 1_555
C2 N1 1_555 1_555
H2 C2 1_555 1_555
C3 C2 1_555 1_555
C4 N2 1_555 1_555
H3 C4 1_555 1_555
C5 C3 1_555 1_555
C6 C5 1_555 1_555
H4 C6 1_555 1_555
C7 C6 1_555 1_555
H5 C7 1_555 1_555
C8 C7 1_555 1_555
C9 C8 1_555 1_555
H6 C9 1_555 1_555
C10 C5 1_555 1_555
H7 C10 1_555 1_555
C11 C8 1_555 1_555
C12 O17 1_555 1_555
H8 C12 1_555 1_555
C13 N3 1_555 1_555
H9 C13 1_555 1_555
H10 C13 1_555 1_555
H11 C13 1_555 1_555
C14 N3 1_555 1_555
H12 C14 1_555 1_555
H13 C14 1_555 1_555
H14 C14 1_555 1_555
Cu1G Cu1 1_555 1_555
Cu2G O3 1_555 1_555
Cu3G O4 1_555 1_555
Cu4G O2 1_555 1_555
S1G O5G 1_555 1_555
S2G O9G 1_555 1_555
S3G O13G 1_555 1_555
O1G Cu3G 1_555 1_555
O2G Cu4 1_555 1_555
O5G Cu1G 1_555 1_555
O6G Cu2G 1_555 1_555
O7G Cu2 1_555 1_555
O8G S1G 1_555 1_555
O9G Cu1G 1_555 1_555
O10G Cu3G 1_555 1_555
O11G Cu3 1_555 1_555
O12G S2G 1_555 1_555
O13G Cu1G 1_555 1_555
O14G Cu4G 1_555 1_555
O15G Cu3 1_555 1_555
O16G S3G 1_555 1_555
O17G Cu4G 1_555 1_555
N1G C1G 1_555 1_555
N2G C1G 1_555 1_555
N3G C12G 1_555 1_555
C1G H1G 1_555 1_555
C2G N1G 1_555 1_555
H2G C2G 1_555 1_555
C3G C2G 1_555 1_555
C4G N2G 1_555 1_555
H3G C4G 1_555 1_555
C5G C3G 1_555 1_555
C6G C5G 1_555 1_555
H4G C6G 1_555 1_555
C7G C6G 1_555 1_555
H5G C7G 1_555 1_555
C8G C7G 1_555 1_555
C9G C8G 1_555 1_555
H6G C9G 1_555 1_555
C10G C5G 1_555 1_555
H7G C10G 1_555 1_555
C11G O1G 1_555 1_555
C12G O17G 1_555 1_555
H8G C12G 1_555 1_555
C13G N3G 1_555 1_555
H9G C13G 1_555 1_555
H10G C13G 1_555 1_555
H11G C13G 1_555 1_555
C14G N3G 1_555 1_555
H12G C14G 1_555 1_555
H13G C14G 1_555 1_555
H14G C14G 1_555 1_555
Cu2C N1 1_555 1_555
Cu2E N1G 1_555 1_555
Cu4B N2G 1_555 1_555
Cu4D N2 1_555 1_555
N1B Cu2 1_555 1_555
N1D Cu2G 1_555 1_555
N2B Cu4G 1_555 1_555
N2D Cu4 1_555 1_555
Cu2 O13 1_555 1_555
Cu3 O4 1_555 1_555
S1 O6 1_555 1_555
S2 O10 1_555 1_555
S3 O14 1_555 1_555
O4 Cu1G 1_555 1_555
O7 Cu2G 1_555 1_555
O11 Cu3G 1_555 1_555
O15 Cu3G 1_555 1_555
C3 C4 1_555 1_555
C9 C10 1_555 1_555
Cu2G O13G 1_555 1_555
Cu4G O11G 1_555 1_555
S1G O6G 1_555 1_555
S1G O7G 1_555 1_555
S2G O10G 1_555 1_555
S2G O11G 1_555 1_555
S3G O14G 1_555 1_555
S3G O15G 1_555 1_555
O2G C11G 1_555 1_555
C3G C4G 1_555 1_555
C8G C11G 1_555 1_555
C9G C10G 1_555 1_555

#END
