
#######################################################################
#
#                 Cambridge Crystallographic Data Centre
#                                CCDC 
#
#######################################################################
#
# If this CIF has been generated from an entry in the Cambridge 
# Structural Database, then it will include bibliographic, chemical, 
# crystal, experimental, refinement or atomic coordinate data resulting 
# from the CCDC's data processing and validation procedures.
#
#######################################################################

data_RORJIT
_chemical_name_common            LIFM-11(Cu)
_chemical_formula_moiety         '(C14 H8 Cu1 N2 O6)n,2n(C3 H7 N1 O1),3n(H2 O1)'
_chemical_name_systematic        
'catena-[(\m~5~-5-(((1-Oxidopyridin-4-yl)carbonyl)amino)benzene-1,3-dicarboxylato)-copper N,N-dimethylformamide solvate trihydrate]'
_symmetry_cell_setting           rhombohedral
_symmetry_space_group_name_H-M   'R -3'
_symmetry_Int_Tables_number      148
_space_group_name_Hall           '-R 3'
loop_
_symmetry_equiv_pos_site_id
_symmetry_equiv_pos_as_xyz
1 x,y,z
2 -y,x-y,z
3 -x+y,-x,z
4 2/3+x,1/3+y,1/3+z
5 2/3-y,1/3+x-y,1/3+z
6 2/3-x+y,1/3-x,1/3+z
7 1/3+x,2/3+y,2/3+z
8 1/3-y,2/3+x-y,2/3+z
9 1/3-x+y,2/3-x,2/3+z
10 -x,-y,-z
11 y,-x+y,-z
12 x-y,x,-z
13 1/3-x,2/3-y,2/3-z
14 1/3+y,2/3-x+y,2/3-z
15 1/3+x-y,2/3+x,2/3-z
16 2/3-x,1/3-y,1/3-z
17 2/3+y,1/3-x+y,1/3-z
18 2/3+x-y,1/3+x,1/3-z
_cell_length_a                   18.569(3)
_cell_length_b                   18.569(3)
_cell_length_c                   40.907(8)
_cell_angle_alpha                90
_cell_angle_beta                 90
_cell_angle_gamma                120
_cell_volume                     12215.3
_exptl_crystal_colour            blue
_exptl_crystal_description       block
_cell_formula_units_Z            18
loop_
_atom_site_label
_atom_site_type_symbol
_atom_site_fract_x
_atom_site_fract_y
_atom_site_fract_z
C1 C 0.6223(4) -0.1890(5) 0.08945(14)
C2 C 0.6053(4) -0.1323(6) 0.07409(13)
H1 H 0.6174 -0.0822 0.0848
C3 C 0.5700(3) -0.1496(4) 0.04263(11)
C4 C 0.5534(3) -0.2237(4) 0.02680(10)
H2 H 0.5314 -0.2346 0.0052
C5 C 0.5692(3) -0.2810(4) 0.04260(11)
C6 C 0.6056(4) -0.2626(5) 0.07403(13)
H3 H 0.6186 -0.3003 0.0846
C7 C 0.5476(3) -0.0922(4) 0.02657(10)
C8 C 0.5479(3) -0.3601(4) 0.02646(10)
O1 O 0.5603(2) -0.0286(3) 0.04245(8)
O2 O 0.5190(2) -0.1107(3) -0.00171(7)
O3 O 0.5596(2) -0.4117(3) 0.04259(8)
O4 O 0.5190(2) -0.3703(3) -0.00160(8)
Cu1 Cu 0.52412(3) 0.04827(3) 0.025927(11)
O5 O 0.7939(2) -0.1025(4) 0.26595(8)
N1 N 0.7607(3) -0.1193(5) 0.23706(11)
C9 C 0.7250(12) -0.0875(18) 0.2203(4)
H4 H 0.7239 -0.0395 0.2276
C10 C 0.6874(14) -0.1273(18) 0.1905(4)
H5 H 0.6499 -0.1142 0.1799
C11 C 0.7040(11) -0.1839(16) 0.1768(5)
C12 C 0.7242(14) -0.2310(18) 0.1946(3)
H6 H 0.7203 -0.2816 0.1876
C13 C 0.7518(10) -0.1945(15) 0.2247(4)
H7 H 0.7671 -0.2243 0.2394
O6 O 0.6251(16) -0.2984(31) 0.1400(4)
C14 C 0.6583(11) -0.2217(22) 0.1433(4)
N2 N 0.6563(4) -0.1728(5) 0.12199(12)
H8 H 0.6789 -0.1206 0.1281
O2I O 0.4810(2) 0.1107(3) 0.00171(7)
O3A O 0.4117(3) -0.0287(4) 0.04259(8)
O4J O 0.6297(3) 0.1107(4) 0.00160(8)
Cu1B Cu 0.52415(4) -0.52412(3) 0.025927(11)
Cu1I Cu 0.47588(3) -0.04827(3) -0.025927(11)
Cu1K Cu 0.47585(4) -0.47588(3) -0.025927(11)
Cu1P Cu 0.71494(3) -0.14252(4) 0.307406(11)
O5Q O 0.5631(4) 0.1272(2) 0.06738(8)
C15? C 0.4752(12) 0.0867(15) 0.1082(6)
H9? H 0.4505 0.1099 0.0946
C16? C 0.4318(12) 0.0507(12) 0.1371(5)
H10? H 0.3765 0.0376 0.1419
C17? C 0.4827(16) 0.0377(16) 0.1571(6)
C18? C 0.5392(18) 0.0177(19) 0.1455(7)
H11? H 0.5550 -0.0165 0.1571
C19? C 0.5715(19) 0.0516(16) 0.1151(6)
H12? H 0.6153 0.0442 0.1070
H13? H 0.6816 -0.2005 0.1274
O7? O 0.6094(15) -0.0914(21) 0.1432(6)
C20? C 0.6558(11) -0.1253(18) 0.1442(5)
loop_
_geom_bond_atom_site_label_1
_geom_bond_atom_site_label_2
_geom_bond_site_symmetry_1
_geom_bond_site_symmetry_2
C1 C2 1_555 1_555
C2 H1 1_555 1_555
C3 C2 1_555 1_555
C4 C3 1_555 1_555
H2 C4 1_555 1_555
C5 C4 1_555 1_555
C6 C1 1_555 1_555
H3 C6 1_555 1_555
C7 C3 1_555 1_555
C8 C5 1_555 1_555
O1 C7 1_555 1_555
O2 C7 1_555 1_555
O3 C8 1_555 1_555
O4 C8 1_555 1_555
Cu1 O1 1_555 1_555
O5 N1 1_555 1_555
N1 C9 1_555 1_555
C9 H4 1_555 1_555
C10 C9 1_555 1_555
H5 C10 1_555 1_555
C11 C10 1_555 1_555
C12 C11 1_555 1_555
H6 C12 1_555 1_555
C13 N1 1_555 1_555
H7 C13 1_555 1_555
O6 C14 1_555 1_555
C14 C11 1_555 1_555
N2 C1 1_555 1_555
H8 N2 1_555 1_555
O2I Cu1 1_555 1_555
O3A Cu1 1_555 1_555
O4J Cu1 1_555 1_555
Cu1B O3 1_555 1_555
Cu1I O2 1_555 1_555
Cu1K O4 1_555 1_555
Cu1P O5 1_555 1_555
O5Q Cu1 1_555 1_555
C5 C6 1_555 1_555
Cu1 Cu1I 1_555 1_555
C12 C13 1_555 1_555
C14 N2 1_555 1_555
Cu1B Cu1K 1_555 1_555

#END
