
#######################################################################
#
#                 Cambridge Crystallographic Data Centre
#                                CCDC 
#
#######################################################################
#
# If this CIF has been generated from an entry in the Cambridge 
# Structural Database, then it will include bibliographic, chemical, 
# crystal, experimental, refinement or atomic coordinate data resulting 
# from the CCDC's data processing and validation procedures.
#
#######################################################################

data_RIDGIW
_chemical_formula_moiety         '(C48 H64 B4 N24 Zn3)n'
_chemical_name_systematic        
"catena-( tetrakis(\m~3~-1,1',1''-\l^5^-Boranetriyltris(2-methyl-1H-imidazole))-tri-zinc)"
_symmetry_cell_setting           cubic
_symmetry_space_group_name_H-M   'I -4 3 d'
_symmetry_Int_Tables_number      220
_space_group_name_Hall           'I -4bd 2c 3'
loop_
_symmetry_equiv_pos_site_id
_symmetry_equiv_pos_as_xyz
1 x,y,z
2 1/4+y,3/4-x,1/4-z
3 -x,1/2-y,z
4 1/4-y,1/4+x,3/4-z
5 1/4-x,1/4+z,3/4-y
6 x,-y,1/2-z
7 3/4-x,1/4-z,1/4+y
8 3/4-z,1/4-y,1/4+x
9 1/2-x,y,-z
10 1/4+z,3/4-y,1/4-x
11 z,x,y
12 y,z,x
13 -y,1/2-z,x
14 z,-x,1/2-y
15 1/2-y,z,-x
16 -z,1/2-x,y
17 1/2-z,x,-y
18 y,-z,1/2-x
19 3/4-y,1/4-x,1/4+z
20 1/4+y,1/4+x,1/4+z
21 1/4+x,3/4-z,1/4-y
22 1/4+x,1/4+z,1/4+y
23 1/4-z,1/4+y,3/4-x
24 1/4+z,1/4+y,1/4+x
25 1/2+x,1/2+y,1/2+z
26 3/4+y,1/4-x,3/4-z
27 1/2-x,-y,1/2+z
28 3/4-y,3/4+x,1/4-z
29 3/4-x,3/4+z,1/4-y
30 1/2+x,1/2-y,-z
31 1/4-x,3/4-z,3/4+y
32 1/4-z,3/4-y,3/4+x
33 -x,1/2+y,1/2-z
34 3/4+z,1/4-y,3/4-x
35 1/2+z,1/2+x,1/2+y
36 1/2+y,1/2+z,1/2+x
37 1/2-y,-z,1/2+x
38 1/2+z,1/2-x,-y
39 -y,1/2+z,1/2-x
40 1/2-z,-x,1/2+y
41 -z,1/2+x,1/2-y
42 1/2+y,1/2-z,-x
43 1/4-y,3/4-x,3/4+z
44 3/4+y,3/4+x,3/4+z
45 3/4+x,1/4-z,3/4-y
46 3/4+x,3/4+z,3/4+y
47 3/4-z,3/4+y,1/4-x
48 3/4+z,3/4+y,3/4+x
_cell_length_a                   20.4868(3)
_cell_length_b                   20.4868(3)
_cell_length_c                   20.4868(3)
_cell_angle_alpha                90
_cell_angle_beta                 90
_cell_angle_gamma                90
_cell_volume                     8598.49
_exptl_crystal_colour            colorless
_exptl_crystal_description       polyhedral
_cell_formula_units_Z            4
loop_
_atom_site_label
_atom_site_type_symbol
_atom_site_fract_x
_atom_site_fract_y
_atom_site_fract_z
Zn1 Zn 0.3750 0.5000 0.7500
C1 C 0.4885(9) 0.4487(10) 0.5814(10)
H1 H 0.5037 0.4161 0.5521
N1 N 0.4306(5) 0.5077(5) 0.6718(5)
C2 C 0.4689(7) 0.5426(8) 0.6506(7)
N2 N 0.5018(5) 0.5174(4) 0.5944(3)
C3 C 0.4751(7) 0.5997(8) 0.6767(9)
H2 H 0.4887 0.6311 0.6433
H3 H 0.5080 0.5979 0.7113
H4 H 0.4331 0.6134 0.6953
B1 B 0.5578(7) 0.5578(7) 0.5578(7)
H5 H 0.5860 0.5860 0.5860
C4 C 0.4421(12) 0.4534(14) 0.6332(14)
H6 H 0.4166 0.4157 0.6420
C1J C 0.5814(10) 0.4885(9) 0.4487(10)
H1J H 0.5521 0.5037 0.4161
N1J N 0.6718(5) 0.4306(5) 0.5077(5)
C2J C 0.6506(7) 0.4689(7) 0.5426(8)
N2J N 0.5944(3) 0.5018(5) 0.5174(4)
C3J C 0.6767(9) 0.4751(7) 0.5997(8)
H2J H 0.6433 0.4887 0.6311
H3J H 0.7113 0.5080 0.5979
H4J H 0.6953 0.4331 0.6134
C4J C 0.6332(14) 0.4421(12) 0.4534(14)
H6J H 0.6420 0.4166 0.4157
C1K C 0.4487(10) 0.5814(10) 0.4885(9)
H1K H 0.4161 0.5521 0.5037
N1K N 0.5077(5) 0.6718(5) 0.4306(5)
C2K C 0.5426(8) 0.6506(7) 0.4689(7)
N2K N 0.5174(4) 0.5944(3) 0.5018(5)
C3K C 0.5997(8) 0.6767(9) 0.4751(7)
H2K H 0.6311 0.6433 0.4887
H3K H 0.5979 0.7113 0.5080
H4K H 0.6134 0.6953 0.4331
C4K C 0.4534(14) 0.6332(14) 0.4421(12)
H6K H 0.4157 0.6420 0.4166
Zn1A Zn 0.7500 0.3750 0.5000
C1A C 0.6987(10) 0.2615(9) 0.6686(10)
H1A H 0.6661 0.2463 0.6979
N1A N 0.7577(5) 0.3194(5) 0.5782(5)
C2A C 0.7926(8) 0.2811(7) 0.5994(7)
N2A N 0.7674(4) 0.2482(5) 0.6556(3)
C3A C 0.8497(8) 0.2749(7) 0.5733(9)
H2A H 0.8811 0.2613 0.6067
H3A H 0.8479 0.2420 0.5387
H4A H 0.8634 0.3169 0.5547
B1A B 0.8078(7) 0.1922(7) 0.6922(7)
H5A H 0.8360 0.1640 0.6640
C4A C 0.7034(14) 0.3079(12) 0.6168(14)
H6A H 0.6657 0.3334 0.6080
C1T C 0.7385(9) 0.1686(10) 0.8013(10)
H1T H 0.7537 0.1979 0.8339
N1T N 0.6806(5) 0.0782(5) 0.7423(5)
C2T C 0.7189(7) 0.0994(7) 0.7074(8)
N2T N 0.7518(5) 0.1556(3) 0.7326(4)
C3T C 0.7251(7) 0.0733(9) 0.6503(8)
H2T H 0.7387 0.1067 0.6189
H3T H 0.7580 0.0387 0.6521
H4T H 0.6831 0.0547 0.6366
C4T C 0.6921(12) 0.1168(14) 0.7966(14)
H6T H 0.6666 0.1080 0.8343
C1I C 0.8314(10) 0.3013(10) 0.7615(9)
H1I H 0.8021 0.3339 0.7463
N1I N 0.9218(5) 0.2423(5) 0.8194(5)
C2I C 0.9006(7) 0.2074(8) 0.7811(7)
N2I N 0.8444(3) 0.2326(4) 0.7482(5)
C3I C 0.9267(9) 0.1503(8) 0.7749(7)
H2I H 0.8933 0.1189 0.7613
H3I H 0.9613 0.1521 0.7420
H4I H 0.9453 0.1366 0.8169
C4I C 0.8832(14) 0.2966(14) 0.8079(12)
H6I H 0.8920 0.3343 0.8334
C1F C 0.2615(9) 0.6686(10) 0.6987(10)
H1F H 0.2463 0.6979 0.6661
N1F N 0.3194(5) 0.5782(5) 0.7577(5)
C2F C 0.2811(7) 0.5994(7) 0.7926(8)
N2F N 0.2482(5) 0.6556(3) 0.7674(4)
C3F C 0.2749(7) 0.5733(9) 0.8497(8)
H2F H 0.2613 0.6067 0.8811
H3F H 0.2420 0.5387 0.8479
H4F H 0.3169 0.5547 0.8634
B1F B 0.1922(7) 0.6922(7) 0.8078(7)
H5F H 0.1640 0.6640 0.8360
C4F C 0.3079(12) 0.6168(14) 0.7034(14)
H6F H 0.3334 0.6080 0.6657
C1G C 0.1686(10) 0.8013(10) 0.7385(9)
H1G H 0.1979 0.8339 0.7537
N1G N 0.0782(5) 0.7423(5) 0.6806(5)
C2G C 0.0994(7) 0.7074(8) 0.7189(7)
N2G N 0.1556(3) 0.7326(4) 0.7518(5)
C3G C 0.0733(9) 0.6503(8) 0.7251(7)
H2G H 0.1067 0.6189 0.7387
H3G H 0.0387 0.6521 0.7580
H4G H 0.0547 0.6366 0.6831
C4G C 0.1168(14) 0.7966(14) 0.6921(12)
H6G H 0.1080 0.8343 0.6666
C1R C 0.3013(10) 0.7615(9) 0.8314(10)
H1R H 0.3339 0.7463 0.8021
N1R N 0.2423(5) 0.8194(5) 0.9218(5)
C2R C 0.2074(8) 0.7811(7) 0.9006(7)
N2R N 0.2326(4) 0.7482(5) 0.8444(3)
C3R C 0.1503(8) 0.7749(7) 0.9267(9)
H2R H 0.1189 0.7613 0.8933
H3R H 0.1521 0.7420 0.9613
H4R H 0.1366 0.8169 0.9453
C4R C 0.2966(14) 0.8079(12) 0.8832(14)
H6R H 0.3343 0.8334 0.8920
Zn1R Zn 0.2500 0.8750 1.0000
C1NA C 0.4186(10) 0.9885(9) 1.0513(10)
H1NA H 0.4479 1.0037 1.0839
N1NA N 0.3282(5) 0.9306(5) 0.9923(5)
C2NA C 0.3494(7) 0.9689(7) 0.9574(8)
N2NA N 0.4056(3) 1.0018(5) 0.9826(4)
C3NA C 0.3233(9) 0.9751(7) 0.9003(8)
H2NA H 0.3567 0.9887 0.8689
H3NA H 0.2887 1.0080 0.9021
H4NA H 0.3047 0.9331 0.8866
B1FA B 0.4422(7) 1.0578(7) 0.9422(7)
H5FA H 0.4140 1.0860 0.9140
C4NA C 0.3668(14) 0.9421(12) 1.0466(14)
H6NA H 0.3580 0.9166 1.0843
C1LA C 0.5513(10) 1.0814(10) 1.0115(9)
H1LA H 0.5839 1.0521 0.9963
N1LA N 0.4923(5) 1.1718(5) 1.0694(5)
C2LA C 0.4574(8) 1.1506(7) 1.0311(7)
N2LA N 0.4826(4) 1.0944(3) 0.9982(5)
C3LA C 0.4003(8) 1.1767(9) 1.0249(7)
H2LA H 0.3689 1.1433 1.0113
H3LA H 0.4021 1.2113 0.9920
H4LA H 0.3866 1.1953 1.0669
C4LA C 0.5466(14) 1.1332(14) 1.0579(12)
H6LA H 0.5843 1.1420 1.0834
C1FA C 0.5115(9) 0.9487(10) 0.9186(10)
H1FA H 0.4963 0.9161 0.9479
N1FA N 0.5694(5) 1.0077(5) 0.8282(5)
C2FA C 0.5311(7) 1.0426(8) 0.8494(7)
N2FA N 0.4982(5) 1.0174(4) 0.9056(3)
C3FA C 0.5249(7) 1.0997(8) 0.8233(9)
H2FA H 0.5113 1.1311 0.8567
H3FA H 0.4920 1.0979 0.7887
H4FA H 0.5669 1.1134 0.8047
C4FA C 0.5579(12) 0.9534(14) 0.8668(14)
H6FA H 0.5834 0.9157 0.8580
Zn1B Zn 0.6250 0.0000 0.7500
Zn1B_2 Zn 0.6250 1.0000 0.7500
Zn1G Zn 0.0000 0.7500 0.6250
Zn1I Zn 1.0000 0.2500 0.8750
Zn1K Zn 0.5000 0.7500 0.3750
Zn1Q Zn 0.5000 1.2500 1.1250
N1E N 0.4306(5) 0.4923(5) 0.8282(5)
N1P N 0.8282(5) 0.4306(5) 0.4923(5)
N1Y N 0.2577(5) 0.8194(5) 1.0782(5)
N1BA N 0.3194(5) 0.4218(5) 0.7423(5)
N1HA N 0.1718(5) 0.9306(5) 1.0077(5)
N1PA N 0.7423(5) 0.3194(5) 0.4218(5)
loop_
_geom_bond_atom_site_label_1
_geom_bond_atom_site_label_2
_geom_bond_site_symmetry_1
_geom_bond_site_symmetry_2
Zn1 N1 1_555 1_555
C1 H1 1_555 1_555
N1 C2 1_555 1_555
C2 N2 1_555 1_555
N2 C1 1_555 1_555
C3 C2 1_555 1_555
H2 C3 1_555 1_555
H3 C3 1_555 1_555
H4 C3 1_555 1_555
B1 N2 1_555 1_555
H5 B1 1_555 1_555
C4 C1 1_555 1_555
H6 C4 1_555 1_555
C1J H1J 1_555 1_555
N1J C2J 1_555 1_555
C2J N2J 1_555 1_555
N2J B1 1_555 1_555
C3J C2J 1_555 1_555
H2J C3J 1_555 1_555
H3J C3J 1_555 1_555
H4J C3J 1_555 1_555
C4J C1J 1_555 1_555
H6J C4J 1_555 1_555
C1K H1K 1_555 1_555
N1K C2K 1_555 1_555
C2K N2K 1_555 1_555
N2K B1 1_555 1_555
C3K C2K 1_555 1_555
H2K C3K 1_555 1_555
H3K C3K 1_555 1_555
H4K C3K 1_555 1_555
C4K C1K 1_555 1_555
H6K C4K 1_555 1_555
Zn1A N1J 1_555 1_555
C1A H1A 1_555 1_555
N1A Zn1A 1_555 1_555
C2A N1A 1_555 1_555
N2A C1A 1_555 1_555
C3A C2A 1_555 1_555
H2A C3A 1_555 1_555
H3A C3A 1_555 1_555
H4A C3A 1_555 1_555
B1A N2A 1_555 1_555
H5A B1A 1_555 1_555
C4A C1A 1_555 1_555
H6A C4A 1_555 1_555
C1T H1T 1_555 1_555
N1T C2T 1_555 1_555
C2T N2T 1_555 1_555
N2T B1A 1_555 1_555
C3T C2T 1_555 1_555
H2T C3T 1_555 1_555
H3T C3T 1_555 1_555
H4T C3T 1_555 1_555
C4T C1T 1_555 1_555
H6T C4T 1_555 1_555
C1I H1I 1_555 1_555
N1I C2I 1_555 1_555
C2I N2I 1_555 1_555
N2I B1A 1_555 1_555
C3I C2I 1_555 1_555
H2I C3I 1_555 1_555
H3I C3I 1_555 1_555
H4I C3I 1_555 1_555
C4I C1I 1_555 1_555
H6I C4I 1_555 1_555
C1F H1F 1_555 1_555
N1F Zn1 1_555 1_555
C2F N1F 1_555 1_555
N2F C1F 1_555 1_555
C3F C2F 1_555 1_555
H2F C3F 1_555 1_555
H3F C3F 1_555 1_555
H4F C3F 1_555 1_555
B1F N2F 1_555 1_555
H5F B1F 1_555 1_555
C4F C1F 1_555 1_555
H6F C4F 1_555 1_555
C1G H1G 1_555 1_555
N1G C2G 1_555 1_555
C2G N2G 1_555 1_555
N2G B1F 1_555 1_555
C3G C2G 1_555 1_555
H2G C3G 1_555 1_555
H3G C3G 1_555 1_555
H4G C3G 1_555 1_555
C4G C1G 1_555 1_555
H6G C4G 1_555 1_555
C1R H1R 1_555 1_555
N1R C2R 1_555 1_555
C2R N2R 1_555 1_555
N2R B1F 1_555 1_555
C3R C2R 1_555 1_555
H2R C3R 1_555 1_555
H3R C3R 1_555 1_555
H4R C3R 1_555 1_555
C4R C1R 1_555 1_555
H6R C4R 1_555 1_555
Zn1R N1R 1_555 1_555
C1NA H1NA 1_555 1_555
N1NA Zn1R 1_555 1_555
C2NA N1NA 1_555 1_555
N2NA C1NA 1_555 1_555
C3NA C2NA 1_555 1_555
H2NA C3NA 1_555 1_555
H3NA C3NA 1_555 1_555
H4NA C3NA 1_555 1_555
B1FA N2NA 1_555 1_555
H5FA B1FA 1_555 1_555
C4NA C1NA 1_555 1_555
H6NA C4NA 1_555 1_555
C1LA H1LA 1_555 1_555
N1LA C2LA 1_555 1_555
C2LA N2LA 1_555 1_555
N2LA B1FA 1_555 1_555
C3LA C2LA 1_555 1_555
H2LA C3LA 1_555 1_555
H3LA C3LA 1_555 1_555
H4LA C3LA 1_555 1_555
C4LA C1LA 1_555 1_555
H6LA C4LA 1_555 1_555
C1FA H1FA 1_555 1_555
N1FA C2FA 1_555 1_555
C2FA N2FA 1_555 1_555
N2FA B1FA 1_555 1_555
C3FA C2FA 1_555 1_555
H2FA C3FA 1_555 1_555
H3FA C3FA 1_555 1_555
H4FA C3FA 1_555 1_555
C4FA C1FA 1_555 1_555
H6FA C4FA 1_555 1_555
Zn1B N1T 1_555 1_555
Zn1B_2 N1FA 1_555 1_555
Zn1G N1G 1_555 1_555
Zn1I N1I 1_555 1_555
Zn1K N1K 1_555 1_555
Zn1Q N1LA 1_555 1_555
N1E Zn1 1_555 1_555
N1P Zn1A 1_555 1_555
N1Y Zn1R 1_555 1_555
N1BA Zn1 1_555 1_555
N1HA Zn1R 1_555 1_555
N1PA Zn1A 1_555 1_555
N1 C4 1_555 1_555
C1J N2J 1_555 1_555
N1J C4J 1_555 1_555
C1K N2K 1_555 1_555
N1K C4K 1_555 1_555
N1A C4A 1_555 1_555
C2A N2A 1_555 1_555
C1T N2T 1_555 1_555
N1T C4T 1_555 1_555
C1I N2I 1_555 1_555
N1I C4I 1_555 1_555
N1F C4F 1_555 1_555
C2F N2F 1_555 1_555
C1G N2G 1_555 1_555
N1G C4G 1_555 1_555
C1R N2R 1_555 1_555
N1R C4R 1_555 1_555
N1NA C4NA 1_555 1_555
C2NA N2NA 1_555 1_555
C1LA N2LA 1_555 1_555
N1LA C4LA 1_555 1_555
C1FA N2FA 1_555 1_555
N1FA C4FA 1_555 1_555

#END
