
#######################################################################
#
#                 Cambridge Crystallographic Data Centre
#                                CCDC 
#
#######################################################################
#
# If this CIF has been generated from an entry in the Cambridge 
# Structural Database, then it will include bibliographic, chemical, 
# crystal, experimental, refinement or atomic coordinate data resulting 
# from the CCDC's data processing and validation procedures.
#
#######################################################################

data_UVEVEX
_chemical_formula_moiety         '(C10 H5 Mn1 N3 O4)n'
_chemical_name_systematic        
catena-((\m~5~-5-(4H-1,2,4-Triazol-4-yl)isophthalato-N,O,O',O'',O''')-manganese(ii))
_symmetry_cell_setting           monoclinic
_symmetry_space_group_name_H-M   'P 21/c'
_symmetry_Int_Tables_number      14
_space_group_name_Hall           '-P 2ybc'
loop_
_symmetry_equiv_pos_site_id
_symmetry_equiv_pos_as_xyz
1 x,y,z
2 -x,1/2+y,1/2-z
3 -x,-y,-z
4 x,1/2-y,1/2+z
_cell_length_a                   11.214(11)
_cell_length_b                   12.585(13)
_cell_length_c                   14.447(15)
_cell_angle_alpha                90
_cell_angle_beta                 110.125(15)
_cell_angle_gamma                90
_cell_volume                     1914.39
_exptl_crystal_colour            colorless
_exptl_crystal_description       needle
_cell_formula_units_Z            4
loop_
_atom_site_label
_atom_site_type_symbol
_atom_site_fract_x
_atom_site_fract_y
_atom_site_fract_z
C1 C 0.6196(3) 0.3907(3) 0.4039(2)
C2 C 0.6909(3) 0.3245(3) 0.3537(2)
C3 C 0.8232(3) 0.3288(3) 0.3855(2)
H1 H 0.8677 0.3757 0.4351
C4 C 0.8871(3) 0.2628(2) 0.3427(2)
C5 C 0.8242(3) 0.1927(3) 0.2695(2)
H2 H 0.8696 0.1472 0.2431
C6 C 0.6917(3) 0.1903(3) 0.2348(2)
C7 C 0.6257(3) 0.2566(2) 0.2773(2)
H3 H 0.5374 0.2556 0.2543
C8 C 0.6223(3) 0.1165(3) 0.1537(2)
C9 C 1.1011(3) 0.3509(3) 0.3975(3)
H4 H 1.0740 0.4212 0.3919
C10 C 1.1033(3) 0.1802(3) 0.3958(3)
H5 H 1.0764 0.1098 0.3880
Mn1 Mn 1.38713(4) 0.41830(3) 0.46713(3)
N1 N 1.0245(2) 0.2647(2) 0.3773(2)
N2 N 1.2204(3) 0.3192(2) 0.42657(19)
N3 N 1.2216(3) 0.2097(2) 0.4260(2)
O1 O 0.5128(2) 0.1436(2) 0.09962(19)
O2 O 0.6774(3) 0.0324(2) 0.1460(2)
O3 O 0.5093(2) 0.3604(2) 0.39568(19)
O4 O 0.6743(3) 0.4704(2) 0.4498(2)
Mn1C Mn 0.38713(4) 0.08170(3) -0.03287(3)
Mn1A Mn 0.61287(4) -0.08170(3) 0.03287(3)
Mn1_2 Mn 0.38713(4) 0.41830(3) 0.46713(3)
Mn1B Mn 0.61287(4) 0.58170(3) 0.53287(3)
O1C O 1.5128(2) 0.3564(2) 0.59962(19)
O2A O 1.3226(3) 0.5324(2) 0.3540(2)
O3_2 O 1.5093(2) 0.3604(2) 0.39568(19)
O4B O 1.3257(3) 0.5296(2) 0.5502(2)
loop_
_geom_bond_atom_site_label_1
_geom_bond_atom_site_label_2
_geom_bond_site_symmetry_1
_geom_bond_site_symmetry_2
C1 C2 1_555 1_555
C2 C3 1_555 1_555
C3 H1 1_555 1_555
C4 C3 1_555 1_555
C5 C4 1_555 1_555
H2 C5 1_555 1_555
C6 C5 1_555 1_555
C7 C2 1_555 1_555
H3 C7 1_555 1_555
C8 C6 1_555 1_555
C9 H4 1_555 1_555
C10 H5 1_555 1_555
Mn1 N2 1_555 1_555
N1 C4 1_555 1_555
N2 C9 1_555 1_555
N3 C10 1_555 1_555
O1 C8 1_555 1_555
O2 C8 1_555 1_555
O3 C1 1_555 1_555
O4 C1 1_555 1_555
Mn1C O1 1_555 1_555
Mn1A O2 1_555 1_555
Mn1_2 O3 1_555 1_555
Mn1B O4 1_555 1_555
O1C Mn1 1_555 1_555
O2A Mn1 1_555 1_555
O3_2 Mn1 1_555 1_555
O4B Mn1 1_555 1_555
C6 C7 1_555 1_555
C9 N1 1_555 1_555
C10 N1 1_555 1_555
N2 N3 1_555 1_555

#END
