
#######################################################################
#
#                 Cambridge Crystallographic Data Centre
#                                CCDC 
#
#######################################################################
#
# If this CIF has been generated from an entry in the Cambridge 
# Structural Database, then it will include bibliographic, chemical, 
# crystal, experimental, refinement or atomic coordinate data resulting 
# from the CCDC's data processing and validation procedures.
#
#######################################################################

data_CAVSUP
_chemical_formula_moiety         '(C10 H25 La1 N2 O12 P4)n,7n(H2 O1)'
_chemical_name_systematic        
"catena-(\m~6~-Pentahydrogen hexamethylenediamine-N,N,N',N'-tetrakis(methylenephosphonato)-lanthanum heptahydrate)"
_symmetry_cell_setting           monoclinic
_symmetry_space_group_name_H-M   'P 21'
_symmetry_Int_Tables_number      4
_space_group_name_Hall           'P 2yb'
loop_
_symmetry_equiv_pos_site_id
_symmetry_equiv_pos_as_xyz
1 x,y,z
2 -x,1/2+y,-z
_cell_length_a                   13.3444(5)
_cell_length_b                   18.7820(4)
_cell_length_c                   5.84903(23)
_cell_angle_alpha                90
_cell_angle_beta                 97.711(4)
_cell_angle_gamma                90
_cell_volume                     1452.71
_cell_formula_units_Z            2
loop_
_atom_site_label
_atom_site_type_symbol
_atom_site_fract_x
_atom_site_fract_y
_atom_site_fract_z
_atom_site_U_iso_or_equiv
_atom_site_thermal_displace_type
La1 La 0.6289(4) 0.2500 0.3351(9) 0.0274 Uiso
P1 P 0.4399(25) 0.0853(13) 0.144(4) 0.0230 Uiso
P2 P -0.2669(23) 0.1336(9) 0.863(4) 0.0230 Uiso
O1 O 0.423(4) 0.0743(22) -0.119(4) 0.0410 Uiso
O2 O 0.463(4) 0.1636(15) 0.206(8) 0.0410 Uiso
O3 O 0.5249(34) 0.0366(23) 0.258(7) 0.0410 Uiso
O4 O -0.1574(24) 0.1380(18) 0.807(7) 0.0410 Uiso
O5 O -0.3390(28) 0.1758(18) 0.684(6) 0.0410 Uiso
O6 O -0.271(4) 0.1613(17) 1.109(4) 0.0410 Uiso
C1 C 0.3248(33) 0.0624(25) 0.261(8) 0.0410 Uiso
C2 C -0.306(4) 0.0417(11) 0.845(8) 0.0410 Uiso
N1 N 0.2674(25) -0.0073(19) 0.249(6) 0.0410 Uiso
C3 C 0.1643(23) 0.0055(24) 0.318(6) 0.0410 Uiso
C4 C 0.1550(29) -0.0187(29) 0.558(5) 0.0410 Uiso
C5 C 0.0470(32) -0.0215(27) 0.604(7) 0.0410 Uiso
P3 P -0.4576(21) -0.0955(11) 0.780(4) 0.0230 Uiso
P4 P 0.2803(19) -0.1349(10) 0.1063(33) 0.0230 Uiso
O7 O -0.437(4) -0.0909(22) 1.045(4) 0.0410 Uiso
O8 O -0.4967(32) -0.1696(16) 0.700(7) 0.0410 Uiso
O9 O -0.5338(31) -0.0376(22) 0.684(8) 0.0410 Uiso
O10 O 0.1731(20) -0.1674(20) 0.080(6) 0.0410 Uiso
O11 O 0.3308(30) -0.1372(18) 0.358(4) 0.0410 Uiso
O12 O 0.3474(27) -0.1716(17) -0.052(6) 0.0410 Uiso
C6 C -0.3403(29) -0.0793(18) 0.664(8) 0.0410 Uiso
C7 C 0.266(4) -0.0429(11) 0.018(6) 0.0410 Uiso
N2 N -0.2817(23) -0.0103(16) 0.663(5) 0.0410 Uiso
C8 C -0.1704(22) -0.0183(26) 0.649(6) 0.0410 Uiso
C9 C -0.1374(32) -0.0192(28) 0.415(7) 0.0410 Uiso
C10 C -0.0303(31) -0.0413(26) 0.404(10) 0.0410 Uiso
La1_2 La -0.3711(4) 0.2500 0.3351(9) 0.0274 Uiso
La1_3 La -0.3711(4) 0.2500 1.3351(9) 0.0274 Uiso
La1A La -0.6289(4) -0.2500 0.6649(9) 0.0274 Uiso
La1A_2 La 0.3711(4) -0.2500 0.6649(9) 0.0274 Uiso
La1A_3 La 0.3711(4) -0.2500 -0.3351(9) 0.0274 Uiso
O5_2 O 0.6610(28) 0.1758(18) 0.684(6) 0.0410 Uiso
O6_2 O 0.729(4) 0.1613(17) 0.109(4) 0.0410 Uiso
O8A O 0.4967(32) 0.3304(16) 0.300(7) 0.0410 Uiso
O11A O 0.6692(30) 0.3628(18) 0.642(4) 0.0410 Uiso
O12A O 0.6526(27) 0.3284(17) 0.052(6) 0.0410 Uiso
O13 O 0.5082(33) 0.2257(23) 0.806(7) 0.0410 Uiso
O14 O 0.1304(34) 0.2284(19) 0.554(8) 0.0410 Uiso
O15 O 0.094(4) 0.1623(25) 0.887(9) 0.0410 Uiso
O16 O 1.0224(33) 0.3074(20) 0.170(8) 0.0410 Uiso
O17 O 0.9022(32) 0.2250(24) 0.442(7) 0.0410 Uiso
O18 O 0.210(4) 0.2219(20) 0.124(7) 0.0410 Uiso
O19 O -0.172(4) -0.1532(23) -0.874(8) 0.0410 Uiso
loop_
_geom_bond_atom_site_label_1
_geom_bond_atom_site_label_2
_geom_bond_site_symmetry_1
_geom_bond_site_symmetry_2
La1 O2 1_555 1_555
P1 O1 1_555 1_555
P2 O4 1_555 1_555
O2 P1 1_555 1_555
O3 P1 1_555 1_555
O5 P2 1_555 1_555
O6 P2 1_555 1_555
C1 P1 1_555 1_555
C2 P2 1_555 1_555
N1 C1 1_555 1_555
C3 N1 1_555 1_555
C4 C3 1_555 1_555
C5 C4 1_555 1_555
P3 O7 1_555 1_555
P4 O10 1_555 1_555
O8 P3 1_555 1_555
O9 P3 1_555 1_555
O11 P4 1_555 1_555
O12 P4 1_555 1_555
C6 P3 1_555 1_555
C7 N1 1_555 1_555
N2 C2 1_555 1_555
C8 N2 1_555 1_555
C9 C8 1_555 1_555
C10 C5 1_555 1_555
La1_2 O5 1_555 1_555
La1_3 O6 1_555 1_555
La1A O8 1_555 1_555
La1A_2 O11 1_555 1_555
La1A_3 O12 1_555 1_555
O5_2 La1 1_555 1_555
O6_2 La1 1_555 1_555
O8A La1 1_555 1_555
O11A La1 1_555 1_555
O12A La1 1_555 1_555
P4 C7 1_555 1_555
C6 N2 1_555 1_555
C9 C10 1_555 1_555

#END
