
#######################################################################
#
#                 Cambridge Crystallographic Data Centre
#                                CCDC 
#
#######################################################################
#
# If this CIF has been generated from an entry in the Cambridge 
# Structural Database, then it will include bibliographic, chemical, 
# crystal, experimental, refinement or atomic coordinate data resulting 
# from the CCDC's data processing and validation procedures.
#
#######################################################################

data_CUKXOW
_chemical_formula_moiety         '(C15 H20 N6 O16 Tb2)n,9n(H2 O1)'
_chemical_name_systematic        
"catena-((\m~6~-2,2',2'',2''',2'''',2'''''-(1,3,5-Triazine-2,4,6-triyltrinitrilo)-hexaacetato)-tetraaqua-di-terbium nonahydrate)"
_symmetry_cell_setting           monoclinic
_symmetry_space_group_name_H-M   'C 2/c'
_symmetry_Int_Tables_number      15
_space_group_name_Hall           '-C 2yc'
loop_
_symmetry_equiv_pos_site_id
_symmetry_equiv_pos_as_xyz
1 x,y,z
2 -x,y,1/2-z
3 1/2+x,1/2+y,z
4 1/2-x,1/2+y,1/2-z
5 -x,-y,-z
6 x,-y,1/2+z
7 1/2-x,1/2-y,-z
8 1/2+x,1/2-y,1/2+z
_cell_length_a                   12.750(4)
_cell_length_b                   16.808(6)
_cell_length_c                   19.318(5)
_cell_angle_alpha                90
_cell_angle_beta                 130.350(14)
_cell_angle_gamma                90
_cell_volume                     3155.02
_exptl_crystal_colour            colorless
_exptl_crystal_description       block
_cell_formula_units_Z            4
loop_
_atom_site_label
_atom_site_type_symbol
_atom_site_fract_x
_atom_site_fract_y
_atom_site_fract_z
_atom_site_U_iso_or_equiv
_atom_site_thermal_displace_type
Tb1 Tb 0.433932(15) 0.448892(9) 0.557543(10) 0.0147 Uani
O1 O 0.2119(3) 0.51122(18) 0.43596(18) 0.0272 Uani
O2 O 0.3642(3) 0.53292(16) 0.42060(18) 0.0211 Uani
O3 O 0.4045(3) 0.36638(16) 0.44634(17) 0.0223 Uani
O4 O 0.4886(3) 0.42133(16) 0.38543(19) 0.0240 Uani
O5 O 0.0926(3) 0.07631(17) 0.21984(19) 0.0281 Uani
O6 O 0.0661(3) 0.17655(17) 0.13819(18) 0.0302 Uani
O7 O 0.2654(3) 0.34255(18) 0.5053(2) 0.0368 Uani
O8 O 0.3243(3) 0.47926(19) 0.6195(2) 0.0317 Uani
N1 N 0.1096(3) 0.39958(18) 0.2690(2) 0.0220 Uani
N2 N 0.0000 0.2765(3) 0.2500 0.0212 Uani
N3 N 0.0000 0.5164(3) 0.2500 0.0228 Uani
N4 N 0.2131(3) 0.27905(18) 0.2910(2) 0.0218 Uani
C1 C 0.0000 0.4356(3) 0.2500 0.0206 Uani
C2 C 0.1035(4) 0.3201(2) 0.2692(2) 0.0194 Uani
C3 C 0.1274(4) 0.5577(2) 0.2896(3) 0.0198 Uani
H1 H 0.1129 0.6146 0.2873 0.0240 Uiso
H2 H 0.1558 0.5463 0.2547 0.0240 Uiso
C4 C 0.2411(4) 0.5321(2) 0.3884(2) 0.0170 Uani
C5 C 0.3219(4) 0.3209(2) 0.3013(2) 0.0213 Uani
H3 H 0.2806 0.3537 0.2479 0.0260 Uiso
H4 H 0.3803 0.2821 0.3036 0.0260 Uiso
C6 C 0.4117(4) 0.3737(2) 0.3851(2) 0.0176 Uani
C7 C 0.2177(4) 0.1936(2) 0.3016(2) 0.0217 Uani
H5 H 0.1981 0.1811 0.3412 0.0260 Uiso
H6 H 0.3105 0.1754 0.3314 0.0260 Uiso
C8 C 0.1188(4) 0.1480(2) 0.2140(2) 0.0190 Uani
Tb1A Tb -0.433932(15) 0.448892(9) -0.057543(10) 0.0147 Uani
Tb1D Tb 0.566068(15) 0.551108(9) 0.442457(10) 0.0147 Uani
Tb1G Tb -0.066068(15) 0.051108(9) 0.057543(10) 0.0147 Uani
Tb1E Tb -0.566068(15) 0.551108(9) 0.057543(10) 0.0147 Uani
Tb1F Tb 0.066068(15) 0.051108(9) 0.442457(10) 0.0147 Uani
O1A O -0.2119(3) 0.51122(18) 0.06404(18) 0.0272 Uani
O2A O -0.3642(3) 0.53292(16) 0.07940(18) 0.0211 Uani
O2D O 0.6358(3) 0.46708(16) 0.57940(18) 0.0211 Uani
O2E O -0.6358(3) 0.46708(16) -0.07940(18) 0.0211 Uani
O3A O -0.4045(3) 0.36638(16) 0.05366(17) 0.0223 Uani
O4A O -0.4886(3) 0.42133(16) 0.11457(19) 0.0240 Uani
O4D O 0.5114(3) 0.57867(16) 0.61457(19) 0.0240 Uani
O4E O -0.5114(3) 0.57867(16) -0.11457(19) 0.0240 Uani
O5A O -0.0926(3) 0.07631(17) 0.28016(19) 0.0281 Uani
O5G O 0.5926(3) 0.42369(17) 0.71984(19) 0.0281 Uani
O5F O -0.5926(3) 0.42369(17) -0.21984(19) 0.0281 Uani
O6A O -0.0661(3) 0.17655(17) 0.36181(18) 0.0302 Uani
O6G O 0.5661(3) 0.32345(17) 0.63819(18) 0.0302 Uani
O6F O -0.5661(3) 0.32345(17) -0.13819(18) 0.0302 Uani
O7A O -0.2654(3) 0.34255(18) -0.0053(2) 0.0368 Uani
O8A O -0.3243(3) 0.47926(19) -0.1195(2) 0.0317 Uani
N1A N -0.1096(3) 0.39958(18) 0.2310(2) 0.0220 Uani
N4A N -0.2131(3) 0.27905(18) 0.2090(2) 0.0218 Uani
C2A C -0.1035(4) 0.3201(2) 0.2308(2) 0.0194 Uani
C3A C -0.1274(4) 0.5577(2) 0.2104(3) 0.0198 Uani
H1A H -0.1129 0.6146 0.2127 0.0240 Uiso
H2A H -0.1558 0.5463 0.2453 0.0240 Uiso
C4A C -0.2411(4) 0.5321(2) 0.1116(2) 0.0170 Uani
C5A C -0.3219(4) 0.3209(2) 0.1987(2) 0.0213 Uani
H3A H -0.2806 0.3537 0.2521 0.0260 Uiso
H4A H -0.3803 0.2821 0.1964 0.0260 Uiso
C6A C -0.4117(4) 0.3737(2) 0.1149(2) 0.0176 Uani
C7A C -0.2177(4) 0.1936(2) 0.1984(2) 0.0217 Uani
H5A H -0.1981 0.1811 0.1588 0.0260 Uiso
H6A H -0.3105 0.1754 0.1686 0.0260 Uiso
C8A C -0.1188(4) 0.1480(2) 0.2860(2) 0.0190 Uani
O9 O 0.0832(10) 0.4786(7) 0.0904(7) 0.1754 Uani
O10 O 0.3258(8) 0.2515(4) 0.1252(5) 0.1189 Uani
O11 O 0.4202(6) 0.1606(4) 0.0559(4) 0.0954 Uani
O12 O 0.4920(4) 0.1792(3) 0.5498(3) 0.0624 Uani
O13 O 0.5000 0.3701(3) 0.2500 0.0638 Uani
loop_
_atom_site_aniso_label
_atom_site_aniso_U_11
_atom_site_aniso_U_22
_atom_site_aniso_U_33
_atom_site_aniso_U_23
_atom_site_aniso_U_13
_atom_site_aniso_U_12
Tb1 0.01293(11) 0.01516(11) 0.01131(11) 0.00157(5) 0.00572(9) -0.00017(5)
O1 0.0171(13) 0.0383(16) 0.0182(13) 0.0067(12) 0.0078(11) 0.0019(12)
O2 0.0112(11) 0.0244(12) 0.0175(13) -0.0003(11) 0.0047(11) -0.0011(10)
O3 0.0247(13) 0.0229(13) 0.0167(12) -0.0037(10) 0.0123(11) -0.0063(11)
O4 0.0265(14) 0.0208(13) 0.0274(14) -0.0066(11) 0.0186(13) -0.0092(11)
O5 0.0392(17) 0.0220(13) 0.0197(14) -0.0074(11) 0.0175(13) -0.0128(13)
O6 0.0382(16) 0.0238(14) 0.0165(13) -0.0002(11) 0.0123(13) -0.0028(12)
O7 0.0385(17) 0.0297(15) 0.0461(19) -0.0086(14) 0.0291(16) -0.0120(14)
O8 0.0332(16) 0.0379(16) 0.0307(16) 0.0053(13) 0.0237(14) 0.0064(13)
N1 0.0135(14) 0.0189(15) 0.0221(16) -0.0018(12) 0.0063(13) -0.0004(12)
N2 0.0141(19) 0.019(2) 0.020(2) 0.000 0.0063(18) 0.000
N3 0.013(2) 0.014(2) 0.021(2) 0.000 0.0019(18) 0.000
N4 0.0133(13) 0.0178(14) 0.0262(16) -0.0065(12) 0.0091(13) -0.0020(11)
C1 0.016(2) 0.018(2) 0.012(2) 0.000 0.002(2) 0.000
C2 0.0153(16) 0.0198(17) 0.0126(16) -0.0031(13) 0.0043(14) -0.0014(13)
C3 0.0100(15) 0.0202(17) 0.0156(17) 0.0003(13) 0.0022(14) -0.0008(12)
C4 0.0123(15) 0.0152(14) 0.0129(16) 0.0000(13) 0.0034(13) 0.0005(13)
C5 0.0184(17) 0.0231(17) 0.0187(18) -0.0058(14) 0.0103(15) -0.0036(14)
C6 0.0161(16) 0.0143(15) 0.0158(16) -0.0005(13) 0.0073(14) 0.0014(13)
C7 0.0167(16) 0.0177(16) 0.0162(17) -0.0058(14) 0.0041(14) -0.0002(14)
C8 0.0178(16) 0.0189(16) 0.0176(17) -0.0051(13) 0.0103(14) -0.0016(13)
Tb1A 0.01293 0.01516 0.01131 -0.00157 0.00572 0.00017
Tb1D 0.01293 0.01516 0.01131 0.00157 0.00572 -0.00017
Tb1G 0.01293 0.01516 0.01131 -0.00157 0.00572 0.00017
Tb1E 0.01293 0.01516 0.01131 -0.00157 0.00572 0.00017
Tb1F 0.01293 0.01516 0.01131 0.00157 0.00572 -0.00017
O1A 0.0171 0.0383 0.0182 -0.0067 0.0078 -0.0019
O2A 0.0112 0.0244 0.0175 0.0003 0.0047 0.0011
O2D 0.0112 0.0244 0.0175 -0.0003 0.0047 -0.0011
O2E 0.0112 0.0244 0.0175 0.0003 0.0047 0.0011
O3A 0.0247 0.0229 0.0167 0.0037 0.0123 0.0063
O4A 0.0265 0.0208 0.0274 0.0066 0.0186 0.0092
O4D 0.0265 0.0208 0.0274 -0.0066 0.0186 -0.0092
O4E 0.0265 0.0208 0.0274 0.0066 0.0186 0.0092
O5A 0.0392 0.022 0.0197 0.0074 0.0175 0.0128
O5G 0.0392 0.022 0.0197 0.0074 0.0175 0.0128
O5F 0.0392 0.022 0.0197 -0.0074 0.0175 -0.0128
O6A 0.0382 0.0238 0.0165 0.0002 0.0123 0.0028
O6G 0.0382 0.0238 0.0165 0.0002 0.0123 0.0028
O6F 0.0382 0.0238 0.0165 -0.0002 0.0123 -0.0028
O7A 0.0385 0.0297 0.0461 0.0086 0.0291 0.012
O8A 0.0332 0.0379 0.0307 -0.0053 0.0237 -0.0064
N1A 0.0135 0.0189 0.0221 0.0018 0.0063 0.0004
N4A 0.0133 0.0178 0.0262 0.0065 0.0091 0.002
C2A 0.0153 0.0198 0.0126 0.0031 0.0043 0.0014
C3A 0.01 0.0202 0.0156 -0.0003 0.0022 0.0008
C4A 0.0123 0.0152 0.0129 0 0.0034 -0.0005
C5A 0.0184 0.0231 0.0187 0.0058 0.0103 0.0036
C6A 0.0161 0.0143 0.0158 0.0005 0.0073 -0.0014
C7A 0.0167 0.0177 0.0162 0.0058 0.0041 0.0002
C8A 0.0178 0.0189 0.0176 0.0051 0.0103 0.0016
O9 0.155(8) 0.196(9) 0.187(9) -0.089(8) 0.116(8) -0.100(8)
O10 0.142(6) 0.106(5) 0.111(5) -0.011(4) 0.083(5) 0.019(5)
O11 0.104(5) 0.098(5) 0.114(5) -0.016(3) 0.084(4) -0.031(3)
O12 0.052(2) 0.059(2) 0.073(3) -0.025(2) 0.039(2) -0.014(2)
O13 0.111(5) 0.042(3) 0.082(4) 0.000 0.082(4) 0.000
loop_
_geom_bond_atom_site_label_1
_geom_bond_atom_site_label_2
_geom_bond_site_symmetry_1
_geom_bond_site_symmetry_2
Tb1 O1 1_555 1_555
O1 C4 1_555 1_555
O2 Tb1 1_555 1_555
O3 Tb1 1_555 1_555
O4 C6 1_555 1_555
O5 C8 1_555 1_555
O6 C8 1_555 1_555
O7 Tb1 1_555 1_555
O8 Tb1 1_555 1_555
N1 C1 1_555 1_555
N2 C2 1_555 1_555
N3 C1 1_555 1_555
N4 C2 1_555 1_555
C1 N1A 1_555 1_555
C2 N1 1_555 1_555
C3 N3 1_555 1_555
H1 C3 1_555 1_555
H2 C3 1_555 1_555
C4 O2 1_555 1_555
C5 N4 1_555 1_555
H3 C5 1_555 1_555
H4 C5 1_555 1_555
C6 O3 1_555 1_555
C7 N4 1_555 1_555
H5 C7 1_555 1_555
H6 C7 1_555 1_555
C8 C7 1_555 1_555
Tb1A O1A 1_555 1_555
Tb1D O2 1_555 1_555
Tb1G O5 1_555 1_555
Tb1E O2A 1_555 1_555
Tb1F O5A 1_555 1_555
O1A C4A 1_555 1_555
O2A Tb1A 1_555 1_555
O2D Tb1 1_555 1_555
O2E Tb1A 1_555 1_555
O3A Tb1A 1_555 1_555
O4A Tb1E 1_555 1_555
O4D Tb1 1_555 1_555
O4E Tb1A 1_555 1_555
O5A C8A 1_555 1_555
O5G Tb1 1_555 1_555
O5F Tb1A 1_555 1_555
O6A Tb1F 1_555 1_555
O6G Tb1 1_555 1_555
O6F Tb1A 1_555 1_555
O7A Tb1A 1_555 1_555
O8A Tb1A 1_555 1_555
N1A C2A 1_555 1_555
N4A C2A 1_555 1_555
C2A N2 1_555 1_555
C3A N3 1_555 1_555
H1A C3A 1_555 1_555
H2A C3A 1_555 1_555
C4A O2A 1_555 1_555
C5A N4A 1_555 1_555
H3A C5A 1_555 1_555
H4A C5A 1_555 1_555
C6A O3A 1_555 1_555
C7A N4A 1_555 1_555
H5A C7A 1_555 1_555
H6A C7A 1_555 1_555
C8A O6A 1_555 1_555
O4 Tb1D 1_555 1_555
O6 Tb1G 1_555 1_555
C3 C4 1_555 1_555
C5 C6 1_555 1_555
Tb1D O2D 1_555 1_555
Tb1E O2E 1_555 1_555
O4A C6A 1_555 1_555
C3A C4A 1_555 1_555
C5A C6A 1_555 1_555
C7A C8A 1_555 1_555

#END
