
#######################################################################
#
#                 Cambridge Crystallographic Data Centre
#                                CCDC 
#
#######################################################################
#
# If this CIF has been generated from an entry in the Cambridge 
# Structural Database, then it will include bibliographic, chemical, 
# crystal, experimental, refinement or atomic coordinate data resulting 
# from the CCDC's data processing and validation procedures.
#
#######################################################################

data_CUKYEN
_chemical_formula_moiety         '(C15 H16 N6 O14 Yb2)n'
_chemical_name_systematic        
catena-((\m~6~-2,2',2'',2''',2'''',2'''''-(1,3,5-Triazine-2,4,6-triyltrinitrilo)-hexaacetato)-diaqua-di-ytterbium)
_symmetry_cell_setting           triclinic
_symmetry_space_group_name_H-M   'P -1'
_symmetry_Int_Tables_number      2
_space_group_name_Hall           '-P 1'
loop_
_symmetry_equiv_pos_site_id
_symmetry_equiv_pos_as_xyz
1 x,y,z
2 -x,-y,-z
_cell_length_a                   9.249(5)
_cell_length_b                   11.311(5)
_cell_length_c                   12.162(6)
_cell_angle_alpha                62.333(14)
_cell_angle_beta                 87.39(2)
_cell_angle_gamma                77.24(2)
_cell_volume                     1096.63
_exptl_crystal_colour            colorless
_exptl_crystal_description       needle-like
_cell_formula_units_Z            2
loop_
_atom_site_label
_atom_site_type_symbol
_atom_site_fract_x
_atom_site_fract_y
_atom_site_fract_z
Yb1 Yb -0.02775(6) 0.37539(5) 0.66968(5)
Yb2 Yb 0.40753(6) 0.85091(6) 0.02238(5)
O1 O 0.1730(10) 0.4507(9) 0.7263(8)
O2 O 0.0943(10) 0.5653(8) 0.5302(8)
O3 O 0.4350(11) 0.7878(12) 0.2235(9)
O4 O 0.2417(12) 0.6942(10) 0.3075(9)
O5 O -0.1867(13) 0.5811(9) 0.6214(9)
O6 O -0.1734(11) 0.7106(9) 0.4139(9)
O7 O -0.3237(10) 0.9988(9) 0.1852(9)
O8 O -0.4731(11) 1.1948(10) 0.1496(9)
O9 O 0.1764(11) 0.9959(10) 0.0588(9)
O10 O 0.3783(10) 1.0732(10) 0.0148(9)
O11 O -0.0618(11) 1.3620(11) -0.1360(9)
O12 O -0.2373(13) 1.2573(12) -0.0340(11)
O13 O 0.0430(11) 0.1459(10) 0.7953(10)
O14 O 0.5708(12) 0.6346(10) 0.1050(10)
N1 N -0.0010(12) 0.8685(11) 0.4767(11)
N2 N 0.1540(12) 0.9820(11) 0.3200(10)
N3 N -0.1078(12) 1.0802(11) 0.2980(10)
N4 N 0.2490(13) 0.7775(11) 0.4902(10)
N5 N 0.0475(11) 1.1866(10) 0.1466(10)
N6 N -0.2547(12) 0.9480(10) 0.4376(10)
C1 C 0.1287(15) 0.8798(12) 0.4278(12)
C2 C -0.1155(14) 0.9675(12) 0.4040(11)
C3 C 0.0294(13) 1.0809(12) 0.2593(12)
C4 C 0.2349(16) 0.6674(13) 0.6120(13)
H1 H 0.1760 0.7085 0.6588
H2 H 0.3334 0.6263 0.6540
C5 C 0.1682(15) 0.5532(13) 0.6218(13)
C6 C 0.3766(16) 0.7629(14) 0.4252(13)
H3 H 0.4498 0.6829 0.4813
H4 H 0.4189 0.8423 0.3998
C7 C 0.3462(14) 0.7479(14) 0.3089(13)
C8 C -0.2693(15) 0.8175(12) 0.5421(12)
H5 H -0.3738 0.8207 0.5569
H6 H -0.2196 0.8055 0.6163
C9 C -0.2040(14) 0.6937(12) 0.5202(13)
C10 C -0.3799(14) 1.0521(13) 0.3606(12)
H7 H -0.3782 1.1366 0.3626
H8 H -0.4702 1.0249 0.3970
C11 C -0.3871(15) 1.0814(13) 0.2245(12)
C12 C 0.1917(15) 1.1860(14) 0.0955(14)
H9 H 0.2633 1.1748 0.1574
H10 H 0.1876 1.2750 0.0243
C13 C 0.2482(14) 1.0779(13) 0.0552(12)
C14 C -0.0763(14) 1.3039(12) 0.0804(11)
H11 H -0.0451 1.3879 0.0597
H12 H -0.1579 1.2984 0.1343
C15 C -0.1303(15) 1.3084(13) -0.0397(12)
Yb1A Yb 0.02775(6) 0.62461(5) 0.33032(5)
Yb1_2 Yb -0.02775(6) 1.37539(5) -0.33032(5)
Yb2A Yb -0.40753(6) 1.14909(6) -0.02238(5)
Yb2A_2 Yb 0.59247(6) 1.14909(6) -0.02238(5)
O2A O -0.0943(10) 0.4347(8) 0.4698(8)
O4A O -0.2417(12) 0.3058(10) 0.6925(9)
O6A O 0.1734(11) 0.2894(9) 0.5861(9)
O7A O 0.3237(10) 1.0012(9) -0.1852(9)
O8A O 0.4731(11) 0.8052(10) -0.1496(9)
O10A O 0.6217(10) 0.9268(10) -0.0148(9)
O11_2 O -0.0618(11) 0.3620(11) 0.8640(9)
O12A O 0.2373(13) 0.7427(12) 0.0340(11)
loop_
_geom_bond_atom_site_label_1
_geom_bond_atom_site_label_2
_geom_bond_site_symmetry_1
_geom_bond_site_symmetry_2
Yb1 O1 1_555 1_555
Yb2 O3 1_555 1_555
O1 C5 1_555 1_555
O2 Yb1 1_555 1_555
O3 C7 1_555 1_555
O4 C7 1_555 1_555
O5 Yb1 1_555 1_555
O6 C9 1_555 1_555
O7 C11 1_555 1_555
O8 C11 1_555 1_555
O9 Yb2 1_555 1_555
O10 Yb2 1_555 1_555
O11 C15 1_555 1_555
O12 C15 1_555 1_555
O13 Yb1 1_555 1_555
O14 Yb2 1_555 1_555
N1 C1 1_555 1_555
N2 C1 1_555 1_555
N3 C2 1_555 1_555
N4 C1 1_555 1_555
N5 C3 1_555 1_555
N6 C2 1_555 1_555
C2 N1 1_555 1_555
C3 N2 1_555 1_555
C4 N4 1_555 1_555
H1 C4 1_555 1_555
H2 C4 1_555 1_555
C5 O2 1_555 1_555
C6 N4 1_555 1_555
H3 C6 1_555 1_555
H4 C6 1_555 1_555
C7 C6 1_555 1_555
C8 N6 1_555 1_555
H5 C8 1_555 1_555
H6 C8 1_555 1_555
C9 O5 1_555 1_555
C10 N6 1_555 1_555
H7 C10 1_555 1_555
H8 C10 1_555 1_555
C11 C10 1_555 1_555
C12 N5 1_555 1_555
H9 C12 1_555 1_555
H10 C12 1_555 1_555
C13 O9 1_555 1_555
C14 N5 1_555 1_555
H11 C14 1_555 1_555
H12 C14 1_555 1_555
C15 C14 1_555 1_555
Yb1A O2 1_555 1_555
Yb1_2 O11 1_555 1_555
Yb2A O7 1_555 1_555
Yb2A_2 O10 1_555 1_555
O2A Yb1 1_555 1_555
O4A Yb1 1_555 1_555
O6A Yb1 1_555 1_555
O7A Yb2 1_555 1_555
O8A Yb2 1_555 1_555
O10A Yb2 1_555 1_555
O11_2 Yb1 1_555 1_555
O12A Yb2 1_555 1_555
O4 Yb1A 1_555 1_555
O6 Yb1A 1_555 1_555
O8 Yb2A 1_555 1_555
O10 C13 1_555 1_555
O12 Yb2A 1_555 1_555
N3 C3 1_555 1_555
C4 C5 1_555 1_555
C8 C9 1_555 1_555
C12 C13 1_555 1_555
Yb1A O2A 1_555 1_555
Yb2A_2 O10A 1_555 1_555

#END
