
#######################################################################
#
#                 Cambridge Crystallographic Data Centre
#                                CCDC 
#
#######################################################################
#
# If this CIF has been generated from an entry in the Cambridge 
# Structural Database, then it will include bibliographic, chemical, 
# crystal, experimental, refinement or atomic coordinate data resulting 
# from the CCDC's data processing and validation procedures.
#
#######################################################################

data_DEYVUA
_chemical_formula_moiety         '(C13 H7 N1 O4 Zn1)n'
_chemical_name_systematic        
'catena-((\m~5~-5-(3-Carboxyphenyl)nicotinic acid)-zinc unknown solvate)'
_symmetry_cell_setting           tetragonal
_symmetry_space_group_name_H-M   'P 43 21 2'
_symmetry_Int_Tables_number      96
_space_group_name_Hall           'P 4nw 2abw'
loop_
_symmetry_equiv_pos_site_id
_symmetry_equiv_pos_as_xyz
1 x,y,z
2 -x,-y,1/2+z
3 1/2-y,1/2+x,3/4+z
4 1/2+y,1/2-x,1/4+z
5 1/2-x,1/2+y,3/4-z
6 1/2+x,1/2-y,1/4-z
7 y,x,-z
8 -y,-x,1/2-z
_cell_length_a                   13.4641(2)
_cell_length_b                   13.4641(2)
_cell_length_c                   23.3751(4)
_cell_angle_alpha                90
_cell_angle_beta                 90
_cell_angle_gamma                90
_cell_volume                     4237.48
_exptl_crystal_colour            colorless
_exptl_crystal_description       polyhedral
_cell_formula_units_Z            8
loop_
_atom_site_label
_atom_site_type_symbol
_atom_site_fract_x
_atom_site_fract_y
_atom_site_fract_z
Zn1 Zn 0.85790(7) 0.79571(8) 0.05864(4)
O1 O 1.2062(4) 0.7122(5) 0.1758(3)
O2 O 1.1659(4) 0.6597(6) 0.2633(3)
O3 O 0.4903(4) 0.6868(5) 0.2308(3)
O4 O 0.4444(5) 0.6535(6) 0.3197(3)
C1 C 1.1451(6) 0.6910(6) 0.2146(4)
C2 C 1.0368(6) 0.7053(7) 0.2019(3)
C3 C 0.9669(6) 0.6904(8) 0.2442(4)
H1 H 0.9869 0.6681 0.2801
C4 C 0.8667(7) 0.7083(8) 0.2337(4)
C5 C 0.8422(7) 0.7392(7) 0.1781(4)
H2 H 0.7760 0.7526 0.1698
C6 C 1.0057(6) 0.7348(6) 0.1486(3)
H3 H 1.0527 0.7442 0.1199
C7 C 0.7879(7) 0.6963(10) 0.2773(4)
C8 C 0.6884(7) 0.6877(8) 0.2615(4)
H4 H 0.6722 0.6876 0.2229
C9 C 0.6125(7) 0.6792(9) 0.3018(4)
C10 C 0.6389(9) 0.6793(13) 0.3584(5)
H5 H 0.5896 0.6721 0.3860
C11 C 0.7351(10) 0.6897(18) 0.3755(6)
H6 H 0.7504 0.6896 0.4143
C12 C 0.8106(9) 0.7005(16) 0.3353(5)
H7 H 0.8758 0.7105 0.3472
C13 C 0.5087(7) 0.6719(7) 0.2828(4)
N1 N 0.9093(5) 0.7503(5) 0.1366(3)
Zn1C Zn 0.29571(8) 0.64210(7) 0.30864(4)
Zn1C_2 Zn 1.29571(8) 0.64210(7) 0.30864(4)
Zn1E Zn 0.35790(7) 0.70429(8) 0.19136(4)
Zn1E_2 Zn 1.35790(7) 0.70429(8) 0.19136(4)
O1E O 0.7062(4) 0.7878(5) 0.0742(3)
O2B O 0.8403(6) 0.6659(4) 0.0133(3)
O3E O 0.9903(4) 0.8132(5) 0.0192(3)
O4B O 0.8465(6) 0.9444(5) 0.0697(3)
loop_
_geom_bond_atom_site_label_1
_geom_bond_atom_site_label_2
_geom_bond_site_symmetry_1
_geom_bond_site_symmetry_2
Zn1 N1 1_555 1_555
O1 C1 1_555 1_555
O2 C1 1_555 1_555
O3 C13 1_555 1_555
O4 C13 1_555 1_555
C1 C2 1_555 1_555
C2 C3 1_555 1_555
C3 H1 1_555 1_555
C4 C3 1_555 1_555
C5 C4 1_555 1_555
H2 C5 1_555 1_555
C6 C2 1_555 1_555
H3 C6 1_555 1_555
C7 C4 1_555 1_555
C8 C7 1_555 1_555
H4 C8 1_555 1_555
C9 C8 1_555 1_555
C10 C9 1_555 1_555
H5 C10 1_555 1_555
C11 C10 1_555 1_555
H6 C11 1_555 1_555
C12 C7 1_555 1_555
H7 C12 1_555 1_555
C13 C9 1_555 1_555
N1 C5 1_555 1_555
Zn1C O4 1_555 1_555
Zn1C_2 O2 1_555 1_555
Zn1E O3 1_555 1_555
Zn1E_2 O1 1_555 1_555
O1E Zn1 1_555 1_555
O2B Zn1 1_555 1_555
O3E Zn1 1_555 1_555
O4B Zn1 1_555 1_555
C6 N1 1_555 1_555
C11 C12 1_555 1_555

#END
