
#######################################################################
#
#                 Cambridge Crystallographic Data Centre
#                                CCDC 
#
#######################################################################
#
# If this CIF has been generated from an entry in the Cambridge 
# Structural Database, then it will include bibliographic, chemical, 
# crystal, experimental, refinement or atomic coordinate data resulting 
# from the CCDC's data processing and validation procedures.
#
#######################################################################

data_BUPDOH
_chemical_name_common            ZJNU-47
_chemical_formula_moiety         '(C20 H12 Cu2 N2 O10)n'
_chemical_name_systematic        
"catena-[(\m-5,5'-pyridazine-3,6-diyldibenzene-1,3-dicarboxylato)-aqua-di-copper unknown solvate]"
_symmetry_cell_setting           rhombohedral
_symmetry_space_group_name_H-M   'R -3 m'
_symmetry_Int_Tables_number      166
_space_group_name_Hall           '-R 3 2"'
loop_
_symmetry_equiv_pos_site_id
_symmetry_equiv_pos_as_xyz
1 x,y,z
2 -y,x-y,z
3 -x+y,-x,z
4 y,x,-z
5 -x,-x+y,-z
6 x-y,-y,-z
7 2/3+x,1/3+y,1/3+z
8 2/3-y,1/3+x-y,1/3+z
9 2/3-x+y,1/3-x,1/3+z
10 2/3+y,1/3+x,1/3-z
11 2/3-x,1/3-x+y,1/3-z
12 2/3+x-y,1/3-y,1/3-z
13 1/3+x,2/3+y,2/3+z
14 1/3-y,2/3+x-y,2/3+z
15 1/3-x+y,2/3-x,2/3+z
16 1/3+y,2/3+x,2/3-z
17 1/3-x,2/3-x+y,2/3-z
18 1/3+x-y,2/3-y,2/3-z
19 -x,-y,-z
20 y,-x+y,-z
21 x-y,x,-z
22 -y,-x,z
23 x,x-y,z
24 -x+y,y,z
25 1/3-x,2/3-y,2/3-z
26 1/3+y,2/3-x+y,2/3-z
27 1/3+x-y,2/3+x,2/3-z
28 1/3-y,2/3-x,2/3+z
29 1/3+x,2/3+x-y,2/3+z
30 1/3-x+y,2/3+y,2/3+z
31 2/3-x,1/3-y,1/3-z
32 2/3+y,1/3-x+y,1/3-z
33 2/3+x-y,1/3+x,1/3-z
34 2/3-y,1/3-x,1/3+z
35 2/3+x,1/3+x-y,1/3+z
36 2/3-x+y,1/3+y,1/3+z
_cell_length_a                   18.7626(3)
_cell_length_b                   18.7626(3)
_cell_length_c                   37.7902(14)
_cell_angle_alpha                90
_cell_angle_beta                 90
_cell_angle_gamma                120
_cell_volume                     11521.2
_exptl_crystal_description       BLOCK
_cell_formula_units_Z            9
loop_
_atom_site_label
_atom_site_type_symbol
_atom_site_fract_x
_atom_site_fract_y
_atom_site_fract_z
_atom_site_U_iso_or_equiv
_atom_site_thermal_displace_type
Cu1 Cu 0.523088(14) 0.476912(14) -0.029035(12) 0.0309 Uani
O1 O 0.48271(19) 0.37201(17) -0.00438(7) 0.0501 Uani
O2 O 0.4428(2) 0.41015(16) 0.04434(7) 0.0520 Uani
O3 O 0.5556(2) 0.4444(2) -0.07877(15) 0.0914 Uani
C1 C 0.4541(2) 0.3606(2) 0.02649(9) 0.0409 Uani
C2 C 0.4331(2) 0.2806(2) 0.04408(10) 0.0450 Uani
C3 C 0.4479(3) 0.22397(16) 0.02686(13) 0.0419 Uani
H1 H 0.4679 0.2339 0.0038 0.0500 Uiso
C4 C 0.4033(3) 0.2652(3) 0.07876(11) 0.0594 Uani
H2 H 0.3931 0.3030 0.0903 0.0710 Uiso
C5 C 0.3888(5) 0.1944(3) 0.09612(18) 0.0688 Uani
C6 C 0.3734(11) 0.1867(5) 0.1350(4) 0.0506 Uani
C7 C 0.4017(10) 0.1478(10) 0.1570(5) 0.0764 Uani
H3 H 0.438(3) 0.128(4) 0.1494(12) 0.0910 Uiso
C8 C 0.3794(13) 0.1369(13) 0.1923(5) 0.0894 Uani
H4 H 0.401(4) 0.110(4) 0.2065(10) 0.1100 Uiso
C9 C 0.3260(12) 0.1630(6) 0.2036(4) 0.0582 Uani
N1 N 0.3035(10) 0.2069(10) 0.1819(4) 0.0547 Uani
N2 N 0.3249(12) 0.2171(12) 0.1469(4) 0.0524 Uani
O1J O 0.18396(19) 0.22263(25) 0.33771(7) 0.0501 Uani
O2J O 0.2239(2) 0.30068(26) 0.28899(7) 0.0520 Uani
C1J C 0.2126(2) 0.2398(3) 0.30684(9) 0.0409 Uani
C2J C 0.2336(2) 0.1808(3) 0.28925(10) 0.0450 Uani
C3J C 0.2188(3) 0.10940(34) 0.30647(13) 0.0419 Uani
H1J H 0.1988 0.0993 0.3295 0.0500 Uiso
C4J C 0.2634(3) 0.1952(4) 0.25457(11) 0.0594 Uani
H2J H 0.2736 0.2432 0.2430 0.0710 Uiso
C5J C 0.2779(5) 0.1389(6) 0.23721(18) 0.0688 Uani
C6J C 0.2933(11) 0.1466(12) 0.1983(4) 0.0506 Uani
C7J C 0.2650(10) 0.0794(14) 0.1763(5) 0.0764 Uani
H3J H 0.229(3) 0.023(5) 0.1839(12) 0.0910 Uiso
C8J C 0.2873(13) 0.0908(18) 0.1410(5) 0.0894 Uani
H4J H 0.266(4) 0.042(6) 0.1268(10) 0.1100 Uiso
C9J C 0.3407(12) 0.1703(13) 0.1297(4) 0.0582 Uani
N1J N 0.3632(10) 0.2367(14) 0.1514(4) 0.0547 Uani
N2J N 0.3418(12) 0.2255(17) 0.1864(4) 0.0524 Uani
O1V O 0.48271(19) 0.11070(25) -0.00438(7) 0.0501 Uani
O2V O 0.4428(2) 0.03265(26) 0.04434(7) 0.0520 Uani
C1V C 0.4541(2) 0.0935(3) 0.02649(9) 0.0409 Uani
C2V C 0.4331(2) 0.1525(3) 0.04408(10) 0.0450 Uani
C4V C 0.4033(3) 0.1381(4) 0.07876(11) 0.0594 Uani
H2V H 0.3931 0.0901 0.0903 0.0710 Uiso
C7V C 0.4017(10) 0.2539(14) 0.1570(5) 0.0764 Uani
H3V H 0.438(3) 0.310(5) 0.1494(12) 0.0910 Uiso
C8V C 0.3794(13) 0.2425(18) 0.1923(5) 0.0894 Uani
H4V H 0.401(4) 0.291(6) 0.2065(10) 0.1100 Uiso
N1V N 0.3035(10) 0.0966(14) 0.1819(4) 0.0547 Uani
N2V N 0.3249(12) 0.1078(17) 0.1469(4) 0.0524 Uani
O1DA O 0.18396(19) -0.03868(17) 0.33771(7) 0.0501 Uani
O2DA O 0.2239(2) -0.07682(16) 0.28899(7) 0.0520 Uani
C1DA C 0.2126(2) -0.0273(2) 0.30684(9) 0.0409 Uani
C2DA C 0.2336(2) 0.0527(2) 0.28925(10) 0.0450 Uani
C4DA C 0.2634(3) 0.0681(3) 0.25457(11) 0.0594 Uani
H2DA H 0.2736 0.0303 0.2430 0.0710 Uiso
C7DA C 0.2650(10) 0.1855(10) 0.1763(5) 0.0764 Uani
H3DA H 0.229(3) 0.205(4) 0.1839(12) 0.0910 Uiso
C8DA C 0.2873(13) 0.1964(13) 0.1410(5) 0.0894 Uani
H4DA H 0.266(4) 0.223(4) 0.1268(10) 0.1100 Uiso
N1DA N 0.3632(10) 0.1264(10) 0.1514(4) 0.0547 Uani
N2DA N 0.3418(12) 0.1162(12) 0.1864(4) 0.0524 Uani
Cu1A Cu 0.523088(14) 0.046176(20) -0.029035(12) 0.0309 Uani
O3A O 0.5556(2) 0.1112(3) -0.07877(15) 0.0914 Uani
Cu1C Cu 0.476912(14) 0.523088(14) 0.029035(12) 0.0309 Uani
Cu1D Cu 0.476912(14) -0.046176(20) 0.029035(12) 0.0309 Uani
Cu1F Cu 0.189755(14) -0.189755(14) 0.304298(12) 0.0309 Uani
Cu1G Cu 0.189755(14) 0.379509(20) 0.304298(12) 0.0309 Uani
Cu1I Cu 0.143579(14) -0.143579(14) 0.362368(12) 0.0309 Uani
Cu1J Cu 0.143579(14) 0.287157(20) 0.362368(12) 0.0309 Uani
O1A O 0.62799(17) 0.11070(25) -0.00438(7) 0.0501 Uani
O1U O 0.62799(17) 0.51729(19) -0.00438(7) 0.0501 Uani
O2C O 0.41015(16) 0.4428(2) -0.04434(7) 0.0520 Uani
O2D O 0.5572(2) -0.03265(26) -0.04434(7) 0.0520 Uani
O2R O 0.5572(2) 0.58985(16) -0.04434(7) 0.0520 Uani
O2S O 0.41015(16) -0.03265(26) -0.04434(7) 0.0520 Uani
loop_
_atom_site_aniso_label
_atom_site_aniso_U_11
_atom_site_aniso_U_22
_atom_site_aniso_U_33
_atom_site_aniso_U_23
_atom_site_aniso_U_13
_atom_site_aniso_U_12
Cu1 0.0378(3) 0.0378(3) 0.0267(4) -0.00051(8) 0.00051(8) 0.0262(3)
O1 0.0731(18) 0.0440(14) 0.0429(13) 0.0080(11) 0.0103(12) 0.0366(13)
O2 0.0782(19) 0.0456(14) 0.0465(13) 0.0097(11) 0.0136(13) 0.0417(14)
O3 0.106(3) 0.106(3) 0.069(3) -0.0199(15) 0.0199(15) 0.058(4)
C1 0.0498(18) 0.0411(17) 0.0411(16) 0.0043(14) 0.0013(14) 0.0296(15)
C2 0.061(2) 0.0409(18) 0.0411(18) 0.0067(14) 0.0089(15) 0.0315(17)
C3 0.053(3) 0.0390(16) 0.038(2) 0.0029(10) 0.006(2) 0.0263(14)
C4 0.096(3) 0.051(2) 0.049(2) 0.0092(17) 0.024(2) 0.050(2)
C5 0.120(6) 0.058(2) 0.049(3) 0.0183(18) 0.037(4) 0.060(3)
C6 0.081(13) 0.049(5) 0.033(6) 0.007(4) 0.015(7) 0.041(7)
C7 0.09(2) 0.051(14) 0.068(15) 0.012(10) 0.038(14) 0.020(14)
C8 0.081(19) 0.09(2) 0.059(14) -0.006(12) 0.022(13) 0.014(15)
C9 0.078(13) 0.053(6) 0.052(9) 0.007(4) 0.013(8) 0.039(7)
N1 0.066(16) 0.035(9) 0.044(10) 0.003(7) 0.032(11) 0.011(11)
N2 0.061(11) 0.051(8) 0.040(7) 0.001(6) 0.024(7) 0.024(7)
O1J 0.0731 0.0439 0.0429 0.0023 0.0103 0.0365
O2J 0.0782 0.0404 0.0465 0.0039 0.0136 0.0365
C1J 0.0498 0.0317 0.0411 -0.003 0.0013 0.0202
C2J 0.061 0.0389 0.0411 0.0022 0.0089 0.0295
C3J 0.053 0.0394 0.038 0.0031 0.006 0.0267
C4J 0.096 0.047 0.049 0.0148 0.024 0.046
C5J 0.12 0.058 0.049 0.0187 0.037 0.06
C6J 0.081 0.048 0.033 0.008 0.015 0.04
C7J 0.09 0.101 0.068 0.026 0.038 0.07
C8J 0.081 0.143 0.059 0.028 0.022 0.067
C9J 0.078 0.053 0.052 0.006 0.013 0.039
N1J 0.066 0.079 0.044 0.029 0.032 0.055
N2J 0.061 0.064 0.04 0.023 0.024 0.037
O1V 0.0731 0.0439 0.0429 0.0023 0.0103 0.0365
O2V 0.0782 0.0404 0.0465 0.0039 0.0136 0.0365
C1V 0.0498 0.0317 0.0411 -0.003 0.0013 0.0202
C2V 0.061 0.0389 0.0411 0.0022 0.0089 0.0295
C4V 0.096 0.047 0.049 0.0148 0.024 0.046
C7V 0.09 0.101 0.068 0.026 0.038 0.07
C8V 0.081 0.143 0.059 0.028 0.022 0.067
N1V 0.066 0.079 0.044 0.029 0.032 0.055
N2V 0.061 0.064 0.04 0.023 0.024 0.037
O1DA 0.0731 0.044 0.0429 0.008 0.0103 0.0366
O2DA 0.0782 0.0456 0.0465 0.0097 0.0136 0.0417
C1DA 0.0498 0.0411 0.0411 0.0043 0.0013 0.0296
C2DA 0.061 0.0409 0.0411 0.0067 0.0089 0.0315
C4DA 0.096 0.051 0.049 0.0092 0.024 0.05
C7DA 0.09 0.051 0.068 0.012 0.038 0.02
C8DA 0.081 0.09 0.059 -0.006 0.022 0.014
N1DA 0.066 0.035 0.044 0.003 0.032 0.011
N2DA 0.061 0.051 0.04 0.001 0.024 0.024
Cu1A 0.0378 0.0232 0.0267 0.00102 0.00051 0.0116
O3A 0.106 0.096 0.069 0.0398 0.0199 0.048
Cu1C 0.0378 0.0378 0.0267 -0.00051 0.00051 0.0262
Cu1D 0.0378 0.0232 0.0267 0.00102 0.00051 0.0116
Cu1F 0.0378 0.0378 0.0267 -0.00051 0.00051 0.0262
Cu1G 0.0378 0.0232 0.0267 0.00102 0.00051 0.0116
Cu1I 0.0378 0.0378 0.0267 -0.00051 0.00051 0.0262
Cu1J 0.0378 0.0232 0.0267 0.00102 0.00051 0.0116
O1A 0.044 0.0439 0.0429 0.0023 -0.008 0.0074
O1U 0.044 0.0731 0.0429 -0.0103 -0.008 0.0366
O2C 0.0456 0.0782 0.0465 -0.0136 -0.0097 0.0417
O2D 0.0782 0.0404 0.0465 0.0039 0.0136 0.0365
O2R 0.0782 0.0456 0.0465 0.0097 0.0136 0.0417
O2S 0.0456 0.0404 0.0465 0.0039 -0.0097 0.0039
loop_
_geom_bond_atom_site_label_1
_geom_bond_atom_site_label_2
_geom_bond_site_symmetry_1
_geom_bond_site_symmetry_2
Cu1 O1 1_555 1_555
O1 C1 1_555 1_555
O2 C1 1_555 1_555
O3 Cu1 1_555 1_555
C1 C2 1_555 1_555
C2 C3 1_555 1_555
C3 H1 1_555 1_555
C4 C2 1_555 1_555
H2 C4 1_555 1_555
C5 C4 1_555 1_555
C6 C5 1_555 1_555
C7 C6 1_555 1_555
H3 C7 1_555 1_555
C8 C7 1_555 1_555
H4 C8 1_555 1_555
C9 C8 1_555 1_555
N1 N2 1_555 1_555
N2 C9J 1_555 1_555
O1J C1J 1_555 1_555
O2J C1J 1_555 1_555
C1J C2J 1_555 1_555
C2J C3J 1_555 1_555
C3J H1J 1_555 1_555
C4J C2J 1_555 1_555
H2J C4J 1_555 1_555
C5J C9 1_555 1_555
C6J C9 1_555 1_555
C7J C6J 1_555 1_555
H3J C7J 1_555 1_555
C8J C7J 1_555 1_555
H4J C8J 1_555 1_555
C9J C5 1_555 1_555
N1J C6 1_555 1_555
N2J C9 1_555 1_555
O1V C1V 1_555 1_555
O2V C1V 1_555 1_555
C1V C2V 1_555 1_555
C2V C3 1_555 1_555
C4V C5 1_555 1_555
H2V C4V 1_555 1_555
C7V C6 1_555 1_555
H3V C7V 1_555 1_555
C8V C9 1_555 1_555
H4V C8V 1_555 1_555
N1V C6J 1_555 1_555
N2V C8J 1_555 1_555
O1DA C1DA 1_555 1_555
O2DA C1DA 1_555 1_555
C1DA C2DA 1_555 1_555
C2DA C3J 1_555 1_555
C4DA C5J 1_555 1_555
H2DA C4DA 1_555 1_555
C7DA N1 1_555 1_555
H3DA C7DA 1_555 1_555
C8DA N2 1_555 1_555
H4DA C8DA 1_555 1_555
N1DA C6 1_555 1_555
N2DA C8 1_555 1_555
Cu1A O1V 1_555 1_555
O3A Cu1A 1_555 1_555
Cu1C Cu1 1_555 1_555
Cu1D O2V 1_555 1_555
Cu1F O2DA 1_555 1_555
Cu1G O2J 1_555 1_555
Cu1I O1DA 1_555 1_555
Cu1J O1J 1_555 1_555
O1A Cu1A 1_555 1_555
O1U Cu1 1_555 1_555
O2C Cu1 1_555 1_555
O2D Cu1A 1_555 1_555
O2R Cu1 1_555 1_555
O2S Cu1A 1_555 1_555
O2 Cu1C 1_555 1_555
C6 C9J 1_555 1_555
C7 N1DA 1_555 1_555
C9 N2DA 1_555 1_555
N1 C6J 1_555 1_555
N1 N2J 1_555 1_555
N2 N1J 1_555 1_555
C4J C5J 1_555 1_555
C5J C6J 1_555 1_555
C6J C7DA 1_555 1_555
C7J N1V 1_555 1_555
C8J C9J 1_555 1_555
C9J N2V 1_555 1_555
C9J C8DA 1_555 1_555
N1J N2J 1_555 1_555
N1J C7V 1_555 1_555
N2J C8V 1_555 1_555
C2V C4V 1_555 1_555
C7V C8V 1_555 1_555
N1V N2V 1_555 1_555
N1V N2DA 1_555 1_555
N2V N1DA 1_555 1_555
C2DA C4DA 1_555 1_555
C7DA C8DA 1_555 1_555
N1DA N2DA 1_555 1_555
Cu1A Cu1D 1_555 1_555
Cu1F Cu1I 1_555 1_555
Cu1G Cu1J 1_555 1_555

#END
