
#######################################################################
#
#                 Cambridge Crystallographic Data Centre
#                                CCDC 
#
#######################################################################
#
# If this CIF has been generated from an entry in the Cambridge 
# Structural Database, then it will include bibliographic, chemical, 
# crystal, experimental, refinement or atomic coordinate data resulting 
# from the CCDC's data processing and validation procedures.
#
#######################################################################

data_RIDCEN
_chemical_formula_moiety         
'(C48 H30 In6 N6 O32 2+)n,2n(N1 O3 1-),6n(H2 O1)'
_chemical_name_systematic        
"catena-[tris(\m~8~-3,3',5,5'-Azobenzenetetracarboxylato)-bis(\m~3~-oxo)-hexaaqua-hexa-indium(iii) dinitrate hexahydrate clathrate]"
_symmetry_cell_setting           cubic
_symmetry_space_group_name_H-M   'P -4 3 n'
_symmetry_Int_Tables_number      218
_space_group_name_Hall           'P -4n 2 3'
loop_
_symmetry_equiv_pos_site_id
_symmetry_equiv_pos_as_xyz
1 x,y,z
2 -x,-y,z
3 -x,y,-z
4 x,-y,-z
5 z,x,y
6 z,-x,-y
7 -z,-x,y
8 -z,x,-y
9 y,z,x
10 -y,z,-x
11 y,-z,-x
12 -y,-z,x
13 1/2+y,1/2+x,1/2+z
14 1/2-y,1/2-x,1/2+z
15 1/2+y,1/2-x,1/2-z
16 1/2-y,1/2+x,1/2-z
17 1/2+x,1/2+z,1/2+y
18 1/2-x,1/2+z,1/2-y
19 1/2-x,1/2-z,1/2+y
20 1/2+x,1/2-z,1/2-y
21 1/2+z,1/2+y,1/2+x
22 1/2+z,1/2-y,1/2-x
23 1/2-z,1/2+y,1/2-x
24 1/2-z,1/2-y,1/2+x
_cell_length_a                   22.4567(11)
_cell_length_b                   22.4567(11)
_cell_length_c                   22.4567(11)
_cell_angle_alpha                90
_cell_angle_beta                 90
_cell_angle_gamma                90
_cell_volume                     11325
_cell_formula_units_Z            4
loop_
_atom_site_label
_atom_site_type_symbol
_atom_site_fract_x
_atom_site_fract_y
_atom_site_fract_z
In1 In 0.67810(5) 0.26043(5) 0.19349(5)
O1 O 0.7407(6) 0.2593(6) 0.2593(6)
O2 O 0.6030(5) 0.2387(5) 0.2516(4)
O3 O 0.3778(5) 0.2209(5) 0.2412(5)
O4 O 0.6464(5) 0.2061(4) 0.3366(5)
O5 O 0.3327(6) 0.1896(5) 0.3237(5)
C1 C 0.3771(8) 0.2053(7) 0.2937(7)
C2 C 0.5393(8) 0.2050(10) 0.3936(7)
H1 H 0.5748 0.2050 0.4167
C3 C 0.4310(9) 0.1991(11) 0.3886(8)
H2 H 0.3934 0.1957 0.4077
C4 C 0.4345(7) 0.2046(8) 0.3282(6)
C5 C 0.6013(8) 0.2202(8) 0.3028(9)
C6 C 0.5434(7) 0.2111(8) 0.3348(7)
O6 O 0.6108(5) 0.2625(6) 0.1239(5)
C7 C 0.4899(7) 0.2136(8) 0.3000(8)
H3 H 0.4918 0.2212 0.2584
C8 C 0.4843(7) 0.1985(13) 0.4228(8)
N1 N 0.4775(6) 0.1923(10) 0.4842(6)
In1I In 0.73957(5) 0.19349(5) 0.32190(5)
In1F In 0.80651(5) 0.32190(5) 0.26043(5)
In1B In 0.32190(5) 0.26043(5) 0.80651(5)
In1U In 0.69349(5) 0.23957(5) -0.17810(5)
In1W In 1.30651(5) 0.23957(5) 0.17810(5)
In1W_2 In 0.30651(5) 0.23957(5) 0.17810(5)
In1O In 0.23957(5) 0.17810(5) 0.30651(5)
In1H In 0.26043(5) 0.19349(5) 0.67810(5)
In1U_2 In 0.69349(5) 0.23957(5) 0.82190(5)
In1L In 0.76043(5) 0.17810(5) 0.69349(5)
In1R In 0.82190(5) 0.30651(5) -0.23957(5)
In1S In 1.17810(5) 0.30651(5) 0.23957(5)
In1B_2 In 1.32190(5) 0.26043(5) -0.19349(5)
In1E In 1.19349(5) 0.32190(5) -0.26043(5)
In1Q In 0.82190(5) 0.69349(5) 0.23957(5)
In1T In 0.69349(5) 0.76043(5) 0.17810(5)
In1D In 0.19349(5) 0.67810(5) 0.26043(5)
In1A In 0.32190(5) 0.73957(5) 0.19349(5)
In1S_2 In 0.17810(5) 0.30651(5) 0.23957(5)
In1E_2 In 0.19349(5) 0.32190(5) 0.73957(5)
O1B O 0.2593(6) 0.2593(6) 0.7407(6)
O1L O 0.7593(6) 0.2407(6) -0.2407(6)
O1O O 1.2407(6) 0.2407(6) 0.2407(6)
O2B O 0.3970(5) 0.2387(5) 0.7484(4)
O2U O 0.7516(4) 0.2613(5) -0.1030(5)
O2W O 1.2484(4) 0.2613(5) 0.1030(5)
O2F O 0.7484(4) 0.3970(5) 0.2387(5)
O2D O 0.2516(4) 0.6030(5) 0.2387(5)
O2I O 0.7613(5) 0.2516(4) 0.3970(5)
O3B O 0.6222(5) 0.2209(5) 0.7588(5)
O3U O 0.7412(5) 0.2791(5) 0.1222(5)
O3W O 1.2588(5) 0.2791(5) -0.1222(5)
O3F O 0.7588(5) 0.6222(5) 0.2209(5)
O3D O 0.2412(5) 0.3778(5) 0.2209(5)
O3N O 0.7209(5) 0.1222(5) 0.2588(5)
O3S O 0.8778(5) 0.2588(5) 0.2791(5)
O3W_2 O 0.2588(5) 0.2791(5) 0.8778(5)
O3B_2 O 0.6222(5) 0.2209(5) -0.2412(5)
O3_2 O 1.3778(5) 0.2209(5) 0.2412(5)
O4B O 0.3536(5) 0.2061(4) 0.6634(5)
O4U O 0.8366(5) 0.2939(4) -0.1464(5)
O4W O 1.1634(5) 0.2939(4) 0.1464(5)
O4F O 0.6634(5) 0.3536(5) 0.2061(4)
O4D O 0.3366(5) 0.6464(5) 0.2061(4)
O4I O 0.7939(4) 0.3366(5) 0.3536(5)
O4E O 0.3366(5) 0.3536(5) 0.7939(4)
O4L O 0.7061(4) 0.1464(5) -0.1634(5)
O4O O 1.2939(4) 0.1464(5) 0.1634(5)
O5B O 0.6673(6) 0.1896(5) 0.6763(5)
O5U O 0.8237(5) 0.3104(5) 0.1673(6)
O5W O 1.1763(5) 0.3104(5) -0.1673(6)
O5F O 0.6763(5) 0.6673(6) 0.1896(5)
O5D O 0.3237(5) 0.3327(6) 0.1896(5)
O5N O 0.6896(5) 0.1673(6) 0.1763(5)
O5S O 0.8327(6) 0.1763(5) 0.3104(5)
O5M O 0.3104(5) 0.1673(6) 0.8237(5)
O5G O 0.6763(5) 0.3327(6) -0.1896(5)
O5D_2 O 1.3237(5) 0.3327(6) 0.1896(5)
C1B C 0.6229(8) 0.2053(7) 0.7063(7)
C1U C 0.7937(7) 0.2947(7) 0.1229(8)
C1W C 1.2063(7) 0.2947(7) -0.1229(8)
C1F C 0.7063(7) 0.6229(8) 0.2053(7)
C1D C 0.2937(7) 0.3771(8) 0.2053(7)
C2B C 0.4607(8) 0.2050(10) 0.6064(7)
C2U C 0.8936(7) 0.2950(10) -0.0393(8)
C2W C 1.1064(7) 0.2950(10) 0.0393(8)
C2F C 0.6064(7) 0.4607(8) 0.2050(10)
C2D C 0.3936(7) 0.5393(8) 0.2050(10)
H1B H 0.4252 0.2050 0.5833
H1U H 0.9167 0.2950 -0.0748
H1W H 1.0833 0.2950 0.0748
H1F H 0.5833 0.4252 0.2050
H1D H 0.4167 0.5748 0.2050
C3B C 0.5690(9) 0.1991(11) 0.6114(8)
C3U C 0.8886(8) 0.3009(11) 0.0690(9)
C3W C 1.1114(8) 0.3009(11) -0.0690(9)
C3F C 0.6114(8) 0.5690(9) 0.1991(11)
C3D C 0.3886(8) 0.4310(9) 0.1991(11)
H2B H 0.6066 0.1957 0.5923
H2U H 0.9077 0.3043 0.1066
H2W H 1.0923 0.3043 -0.1066
H2F H 0.5923 0.6066 0.1957
H2D H 0.4077 0.3934 0.1957
C4B C 0.5655(7) 0.2046(8) 0.6718(6)
C4U C 0.8282(6) 0.2954(8) 0.0655(7)
C4W C 1.1718(6) 0.2954(8) -0.0655(7)
C4F C 0.6718(6) 0.5655(7) 0.2046(8)
C4D C 0.3282(6) 0.4345(7) 0.2046(8)
C5B C 0.3987(8) 0.2202(8) 0.6972(9)
C5U C 0.8028(9) 0.2798(8) -0.1013(8)
C5W C 1.1972(9) 0.2798(8) 0.1013(8)
C5F C 0.6972(9) 0.3987(8) 0.2202(8)
C5D C 0.3028(9) 0.6013(8) 0.2202(8)
C6B C 0.4566(7) 0.2111(8) 0.6652(7)
C6U C 0.8348(7) 0.2889(8) -0.0434(7)
C6W C 1.1652(7) 0.2889(8) 0.0434(7)
C6F C 0.6652(7) 0.4566(7) 0.2111(8)
C6D C 0.3348(7) 0.5434(7) 0.2111(8)
O6I O 0.7375(6) 0.1239(5) 0.3892(5)
O6F O 0.8761(5) 0.3892(5) 0.2625(6)
O6B O 0.3892(5) 0.2625(6) 0.8761(5)
O6U O 0.6239(5) 0.2375(6) -0.1108(5)
O6W O 1.3761(5) 0.2375(6) 0.1108(5)
C7B C 0.5101(7) 0.2136(8) 0.7000(8)
C7U C 0.8000(8) 0.2864(8) 0.0101(7)
C7W C 1.2000(8) 0.2864(8) -0.0101(7)
C7F C 0.7000(8) 0.5101(7) 0.2136(8)
C7D C 0.3000(8) 0.4899(7) 0.2136(8)
H3B H 0.5082 0.2212 0.7416
H3U H 0.7584 0.2788 0.0082
H3W H 1.2416 0.2788 -0.0082
H3F H 0.7416 0.5082 0.2212
H3D H 0.2584 0.4918 0.2212
C8B C 0.5157(7) 0.1985(13) 0.5772(8)
C8U C 0.9228(8) 0.3015(13) 0.0157(7)
C8W C 1.0772(8) 0.3015(13) -0.0157(7)
C8F C 0.5772(8) 0.5157(7) 0.1985(13)
C8D C 0.4228(8) 0.4843(7) 0.1985(13)
N1B N 0.5225(6) 0.1923(10) 0.5158(6)
N1U N 0.9842(6) 0.3077(10) 0.0225(6)
N1W N 1.0158(6) 0.3077(10) -0.0225(6)
N1F N 0.5158(6) 0.5225(6) 0.1923(10)
N1D N 0.4842(6) 0.4775(6) 0.1923(10)
N2 N 0.8599(13) 0.1401(13) 0.1401(13)
O7 O 0.829(3) 0.0960(16) 0.153(3)
O7F O 0.847(3) 0.171(3) 0.0960(16)
O7I O 0.9040(16) 0.153(3) 0.171(3)
O8 O 0.504(2) 0.311(2) 0.165(2)
N3 N 0.6049(13) 0.3951(13) 0.3951(13)
O10 O 0.5587(15) 0.377(3) 0.368(3)
O10F O 0.632(3) 0.4413(15) 0.377(3)
O10I O 0.623(3) 0.368(3) 0.4413(15)
O9? O 0.500(3) 0.358(3) 0.273(3)
O11? O 0.6352 0.3648 0.3648
loop_
_geom_bond_atom_site_label_1
_geom_bond_atom_site_label_2
_geom_bond_site_symmetry_1
_geom_bond_site_symmetry_2
In1 O1 1_555 1_555
O1 In1I 1_555 1_555
O2 In1 1_555 1_555
O3 C1 1_555 1_555
O4 C5 1_555 1_555
O5 C1 1_555 1_555
C1 C4 1_555 1_555
C2 H1 1_555 1_555
C3 H2 1_555 1_555
C4 C3 1_555 1_555
C5 O2 1_555 1_555
C6 C2 1_555 1_555
O6 In1 1_555 1_555
C7 C4 1_555 1_555
H3 C7 1_555 1_555
C8 C2 1_555 1_555
N1 C8 1_555 1_555
N2 O7 1_555 1_555
N3 O10 1_555 1_555
In1I O4 1_555 1_555
In1F O1 1_555 1_555
In1B O1B 1_555 1_555
In1U O1L 1_555 1_555
In1W O1O 1_555 1_555
In1W_2 O3 1_555 1_555
In1O O5 1_555 1_555
In1H O1B 1_555 1_555
In1U_2 O3B 1_555 1_555
In1L O5B 1_555 1_555
In1R O1L 1_555 1_555
In1S O1O 1_555 1_555
In1B_2 O3W 1_555 1_555
In1E O5W 1_555 1_555
In1Q O3F 1_555 1_555
In1T O5F 1_555 1_555
In1D O2D 1_555 1_555
In1A O4D 1_555 1_555
In1S_2 O3D 1_555 1_555
In1E_2 O1B 1_555 1_555
O2B In1B 1_555 1_555
O2U In1U 1_555 1_555
O2W In1W 1_555 1_555
O2F In1F 1_555 1_555
O2D C5D 1_555 1_555
O2I In1I 1_555 1_555
O3B C1B 1_555 1_555
O3U In1 1_555 1_555
O3W C1W 1_555 1_555
O3F C1F 1_555 1_555
O3D C1D 1_555 1_555
O3N In1I 1_555 1_555
O3S In1F 1_555 1_555
O3W_2 In1B 1_555 1_555
O3B_2 In1U 1_555 1_555
O3_2 In1W 1_555 1_555
O4B In1H 1_555 1_555
O4U In1R 1_555 1_555
O4W In1S 1_555 1_555
O4F In1 1_555 1_555
O4D C5D 1_555 1_555
O4I In1F 1_555 1_555
O4E In1B 1_555 1_555
O4L In1U 1_555 1_555
O4O In1W 1_555 1_555
O5B C1B 1_555 1_555
O5U In1F 1_555 1_555
O5W C1W 1_555 1_555
O5F C1F 1_555 1_555
O5D In1W_2 1_555 1_555
O5N In1 1_555 1_555
O5S In1I 1_555 1_555
O5M In1B 1_555 1_555
O5G In1U 1_555 1_555
O5D_2 In1W 1_555 1_555
C1B C4B 1_555 1_555
C1U O3U 1_555 1_555
C1W C4W 1_555 1_555
C1F C4F 1_555 1_555
C1D O5D 1_555 1_555
C2B H1B 1_555 1_555
C2U H1U 1_555 1_555
C2W H1W 1_555 1_555
C2F H1F 1_555 1_555
C2D H1D 1_555 1_555
C3B H2B 1_555 1_555
C3U H2U 1_555 1_555
C3W H2W 1_555 1_555
C3F H2F 1_555 1_555
C3D H2D 1_555 1_555
C4B C3B 1_555 1_555
C4U C1U 1_555 1_555
C4W C3W 1_555 1_555
C4F C3F 1_555 1_555
C4D C1D 1_555 1_555
C5B O2B 1_555 1_555
C5U O2U 1_555 1_555
C5W O2W 1_555 1_555
C5F O2F 1_555 1_555
C5D C6D 1_555 1_555
C6B C2B 1_555 1_555
C6U C2U 1_555 1_555
C6W C2W 1_555 1_555
C6F C2F 1_555 1_555
C6D C2D 1_555 1_555
O6I In1I 1_555 1_555
O6F In1F 1_555 1_555
O6B In1B 1_555 1_555
O6U In1U 1_555 1_555
O6W In1W 1_555 1_555
C7B C4B 1_555 1_555
C7U C4U 1_555 1_555
C7W C4W 1_555 1_555
C7F C4F 1_555 1_555
C7D C4D 1_555 1_555
H3B C7B 1_555 1_555
H3U C7U 1_555 1_555
H3W C7W 1_555 1_555
H3F C7F 1_555 1_555
H3D C7D 1_555 1_555
C8B C2B 1_555 1_555
C8U C2U 1_555 1_555
C8W C2W 1_555 1_555
C8F C2F 1_555 1_555
C8D C2D 1_555 1_555
N1B N1 1_555 1_555
N1U C8U 1_555 1_555
N1W C8W 1_555 1_555
N1F C8F 1_555 1_555
N1D C8D 1_555 1_555
O7F N2 1_555 1_555
O7I N2 1_555 1_555
O10F N3 1_555 1_555
O10I N3 1_555 1_555
C3 C8 1_555 1_555
C5 C6 1_555 1_555
C6 C7 1_555 1_555
O4B C5B 1_555 1_555
O4U C5U 1_555 1_555
O4W C5W 1_555 1_555
O4F C5F 1_555 1_555
O5U C1U 1_555 1_555
C3B C8B 1_555 1_555
C3U C4U 1_555 1_555
C3U C8U 1_555 1_555
C3W C8W 1_555 1_555
C3F C8F 1_555 1_555
C3D C4D 1_555 1_555
C3D C8D 1_555 1_555
C5B C6B 1_555 1_555
C5U C6U 1_555 1_555
C5W C6W 1_555 1_555
C5F C6F 1_555 1_555
C6B C7B 1_555 1_555
C6U C7U 1_555 1_555
C6W C7W 1_555 1_555
C6F C7F 1_555 1_555
C6D C7D 1_555 1_555
C8B N1B 1_555 1_555
N1U N1W 1_555 1_555
N1F N1D 1_555 1_555

#END
