
#######################################################################
#
#                 Cambridge Crystallographic Data Centre
#                                CCDC 
#
#######################################################################
#
# If this CIF has been generated from an entry in the Cambridge 
# Structural Database, then it will include bibliographic, chemical, 
# crystal, experimental, refinement or atomic coordinate data resulting 
# from the CCDC's data processing and validation procedures.
#
#######################################################################

data_RIDCAJ
_chemical_formula_moiety         
'(C30 H21 In3 N4 O14)n,n(C3 H7 N1 O1),0.5n(C2 H3 N1)'
_chemical_name_systematic        
'catena-[tris(\m~4~-Benzene-1,3-dicarboxylato)-(\m~3~-oxo)-aqua-imidazole-imidazolyl-tri-indium(iii) acetonitrile dimethylformamide solvate]'
_symmetry_cell_setting           cubic
_symmetry_space_group_name_H-M   'P a -3'
_symmetry_Int_Tables_number      205
_space_group_name_Hall           '-P 2ac 2ab 3'
loop_
_symmetry_equiv_pos_site_id
_symmetry_equiv_pos_as_xyz
1 x,y,z
2 z,x,y
3 y,z,x
4 1/2-x,-y,1/2+z
5 -x,1/2+y,1/2-z
6 1/2+x,1/2-y,-z
7 1/2+z,1/2-x,-y
8 1/2-z,-x,1/2+y
9 -z,1/2+x,1/2-y
10 -y,1/2+z,1/2-x
11 1/2+y,1/2-z,-x
12 1/2-y,-z,1/2+x
13 -x,-y,-z
14 -z,-x,-y
15 -y,-z,-x
16 1/2+x,y,1/2-z
17 x,1/2-y,1/2+z
18 1/2-x,1/2+y,z
19 1/2-z,1/2+x,y
20 1/2+z,x,1/2-y
21 z,1/2-x,1/2+y
22 y,1/2-z,1/2+x
23 1/2-y,1/2+z,x
24 1/2+y,z,1/2-x
_cell_length_a                   19.5514(9)
_cell_length_b                   19.5514(9)
_cell_length_c                   19.5514(9)
_cell_angle_alpha                90
_cell_angle_beta                 90
_cell_angle_gamma                90
_cell_volume                     7473.66
_cell_formula_units_Z            8
loop_
_atom_site_label
_atom_site_type_symbol
_atom_site_fract_x
_atom_site_fract_y
_atom_site_fract_z
In1 In 0.11168(2) 0.272941(19) 0.590448(19)
O1 O 0.2139(2) 0.2274(2) 0.6027(2)
O2 O 0.2836(2) 0.3177(2) 0.5877(2)
O3 O 0.4171(2) -0.0044(2) 0.6949(2)
O4 O 0.3171(2) 0.0066(2) 0.6398(2)
C1 C 0.2716(3) 0.2560(3) 0.6045(3)
C2 C 0.3810(3) 0.1055(4) 0.6566(3)
C3 C 0.3249(3) 0.1451(3) 0.6358(3)
H1 H 0.2821 0.1237 0.6275
C4 C 0.3714(3) 0.0296(3) 0.6647(3)
C5 C 0.3313(3) 0.2145(3) 0.6272(3)
C6 C 0.4438(4) 0.1367(5) 0.6691(4)
H2 H 0.4819 0.1104 0.6839
C7 C 0.3946(5) 0.2466(4) 0.6383(3)
H3 H 0.3996 0.2944 0.6312
C8 C 0.4499(4) 0.2073(5) 0.6597(4)
H4 H 0.4926 0.2289 0.6682
O5 O 0.1410(2) 0.3590(2) 0.6410(2)
N4 N 0.0900(4) 0.1818(7) 0.5339(6)
C15 C 0.0293(12) 0.1719(15) 0.4945(13)
H8 H -0.0059 0.2051 0.4904
N5 N 0.0276(13) 0.1133(14) 0.4653(12)
C16 C 0.0923(15) 0.0781(12) 0.4851(12)
C17 C 0.1236(14) 0.1244(12) 0.5254(13)
H11 H 0.1668 0.1162 0.5461
In1F In 0.090448(19) 0.38832(2) 0.727059(19)
In1N In -0.272941(19) 0.409552(19) 0.88832(2)
In1S In 0.090448(19) 0.11168(2) 0.227059(19)
In1K In 0.227059(19) 0.409552(19) 0.61168(2)
In1T In -0.409552(19) 0.38832(2) 0.772941(19)
In1M In 0.409552(19) -0.11168(2) 0.727059(19)
In1U In 0.272941(19) -0.090448(19) 0.61168(2)
In1G In -0.090448(19) -0.11168(2) 0.772941(19)
In1L In -0.11168(2) -0.272941(19) 0.409552(19)
In1I In -0.272941(19) 0.090448(19) 0.38832(2)
In1V In 0.227059(19) 0.090448(19) 1.11168(2)
In1P In 0.11168(2) 0.227059(19) 1.090448(19)
In1P_2 In 0.11168(2) 0.227059(19) 0.090448(19)
In1O In 0.61168(2) 0.272941(19) 0.909552(19)
In1T_2 In 0.590448(19) 0.38832(2) 0.772941(19)
In1Q In 0.38832(2) 0.772941(19) 0.590448(19)
In1U_2 In 0.272941(19) 0.909552(19) 0.61168(2)
In1O_2 In -0.38832(2) 0.272941(19) 0.909552(19)
O1F O 0.1027(2) 0.2861(2) 0.7726(2)
O1N O -0.2274(2) 0.3973(2) 0.7861(2)
O1S O 0.1027(2) 0.2139(2) 0.2726(2)
O1K O 0.2726(2) 0.3973(2) 0.7139(2)
O1Q O 0.2861(2) 0.7274(2) 0.6027(2)
O1T O -0.3973(2) 0.2861(2) 0.7274(2)
O2F O 0.0877(2) 0.2164(2) 0.6823(2)
O2N O -0.3177(2) 0.4123(2) 0.7164(2)
O2S O 0.0877(2) 0.2836(2) 0.1823(2)
O2K O 0.1823(2) 0.4123(2) 0.7836(2)
O2Q O 0.2164(2) 0.8177(2) 0.5877(2)
O2O O -0.2164(2) 0.3177(2) 0.9123(2)
O2V O 0.1823(2) 0.0877(2) 0.2836(2)
O3F O 0.1949(2) 0.0829(2) 1.0044(2)
O3N O 0.0044(2) 0.3051(2) 0.5829(2)
O3S O 0.1949(2) 0.4171(2) 0.5044(2)
O3K O 0.5044(2) 0.3051(2) 0.9171(2)
O3Q O 0.0829(2) 0.4956(2) 0.6949(2)
O3A O -0.3051(2) 0.4171(2) 0.9956(2)
O3C O 0.0829(2) 0.0044(2) 0.1949(2)
O3D O -0.4171(2) 0.4956(2) 0.8051(2)
O4F O 0.1398(2) 0.1829(2) 0.9934(2)
O4N O -0.0066(2) 0.3602(2) 0.6829(2)
O4S O 0.1398(2) 0.3171(2) 0.4934(2)
O4K O 0.4934(2) 0.3602(2) 0.8171(2)
O4Q O 0.1829(2) 0.5066(2) 0.6398(2)
O4D O -0.3171(2) 0.5066(2) 0.8602(2)
O4I O -0.0066(2) 0.1398(2) 0.1829(2)
O4K_2 O -0.5066(2) 0.3602(2) 0.8171(2)
C1F C 0.1045(3) 0.2284(3) 0.7440(3)
C1N C -0.2560(3) 0.3955(3) 0.7284(3)
C1S C 0.1045(3) 0.2716(3) 0.2440(3)
C1K C 0.2440(3) 0.3955(3) 0.7716(3)
C1Q C 0.2284(3) 0.7560(3) 0.6045(3)
C2F C 0.1566(3) 0.1190(3) 0.8945(4)
C2N C -0.1055(4) 0.3434(3) 0.6190(3)
C2S C 0.1566(3) 0.3810(3) 0.3945(4)
C2K C 0.3945(4) 0.3434(3) 0.8810(3)
C2Q C 0.1190(3) 0.6055(4) 0.6566(3)
C3F C 0.1358(3) 0.1751(3) 0.8549(3)
C3N C -0.1451(3) 0.3642(3) 0.6751(3)
C3S C 0.1358(3) 0.3249(3) 0.3549(3)
C3K C 0.3549(3) 0.3642(3) 0.8249(3)
C3Q C 0.1751(3) 0.6451(3) 0.6358(3)
H1F H 0.1275 0.2179 0.8763
H1N H -0.1237 0.3725 0.7179
H1S H 0.1275 0.2821 0.3763
H1K H 0.3763 0.3725 0.7821
H1Q H 0.2179 0.6237 0.6275
C4F C 0.1647(3) 0.1286(3) 0.9704(3)
C4N C -0.0296(3) 0.3353(3) 0.6286(3)
C4S C 0.1647(3) 0.3714(3) 0.4704(3)
C4K C 0.4704(3) 0.3353(3) 0.8714(3)
C4Q C 0.1286(3) 0.5296(3) 0.6647(3)
C5F C 0.1272(3) 0.1687(3) 0.7855(3)
C5N C -0.2145(3) 0.3728(3) 0.6687(3)
C5S C 0.1272(3) 0.3313(3) 0.2855(3)
C5K C 0.2855(3) 0.3728(3) 0.8313(3)
C5Q C 0.1687(3) 0.7145(3) 0.6272(3)
C6F C 0.1691(4) 0.0562(4) 0.8633(5)
C6N C -0.1367(5) 0.3309(4) 0.5562(4)
C6S C 0.1691(4) 0.4438(4) 0.3633(5)
C6K C 0.3633(5) 0.3309(4) 0.9438(4)
C6Q C 0.0562(4) 0.6367(5) 0.6691(4)
H2F H 0.1839 0.0181 0.8896
H2N H -0.1104 0.3161 0.5181
H2S H 0.1839 0.4819 0.3896
H2K H 0.3896 0.3161 0.9819
H2Q H 0.0181 0.6104 0.6839
C7F C 0.1383(3) 0.1054(5) 0.7534(4)
C7N C -0.2466(4) 0.3617(3) 0.6054(5)
C7S C 0.1383(3) 0.3946(5) 0.2534(4)
C7K C 0.2534(4) 0.3617(3) 0.8946(5)
C7Q C 0.1054(5) 0.7466(4) 0.6383(3)
H3F H 0.1312 0.1004 0.7056
H3N H -0.2944 0.3688 0.6004
H3S H 0.1312 0.3996 0.2056
H3K H 0.2056 0.3688 0.8996
H3Q H 0.1004 0.7944 0.6312
C8F C 0.1597(4) 0.0501(4) 0.7927(5)
C8N C -0.2073(5) 0.3403(4) 0.5501(4)
C8S C 0.1597(4) 0.4499(4) 0.2927(5)
C8K C 0.2927(5) 0.3403(4) 0.9499(4)
C8Q C 0.0501(4) 0.7073(5) 0.6597(4)
H4F H 0.1682 0.0074 0.7711
H4N H -0.2289 0.3318 0.5074
H4S H 0.1682 0.4926 0.2711
H4K H 0.2711 0.3318 0.9926
H4Q H 0.0074 0.7289 0.6682
O5O O -0.3590(2) 0.3590(2) 0.8590(2)
O5P O 0.1410(2) 0.1410(2) 0.1410(2)
N4U N 0.1818(7) -0.0339(6) 0.5900(4)
N4G N -0.0339(6) -0.0900(4) 0.6818(7)
N4L N -0.0900(4) -0.1818(7) 0.4661(6)
N4I N -0.1818(7) 0.0339(6) 0.4100(4)
N4S N 0.0339(6) 0.0900(4) 0.3182(7)
N4F N 0.0339(6) 0.4100(4) 0.8182(7)
N4N N -0.1818(7) 0.4661(6) 0.9100(4)
N4K N 0.3182(7) 0.4661(6) 0.5900(4)
N4T N -0.4661(6) 0.4100(4) 0.6818(7)
C15U C 0.1719(15) 0.0055(13) 0.5293(12)
C15G C 0.0055(13) -0.0293(12) 0.6719(15)
C15L C -0.0293(12) -0.1719(15) 0.5055(13)
C15I C -0.1719(15) -0.0055(13) 0.4707(12)
C15S C -0.0055(13) 0.0293(12) 0.3281(15)
H8S H -0.0096 -0.0059 0.2949
H8I H -0.2051 -0.0096 0.5059
H8L H 0.0059 -0.2051 0.5096
H8G H 0.0096 0.0059 0.7051
H8U H 0.2051 0.0096 0.4941
N5U N 0.1133(14) 0.0347(12) 0.5276(13)
N5G N 0.0347(12) -0.0276(13) 0.6133(14)
N5L N -0.0276(13) -0.1133(14) 0.5347(12)
N5I N -0.1133(14) -0.0347(12) 0.4724(13)
N5S N -0.0347(12) 0.0276(13) 0.3867(14)
C16U C 0.0781(12) 0.0149(12) 0.5923(15)
C16G C 0.0149(12) -0.0923(15) 0.5781(12)
C16L C -0.0923(15) -0.0781(12) 0.5149(12)
C16I C -0.0781(12) -0.0149(12) 0.4077(15)
C16S C -0.0149(12) 0.0923(15) 0.4219(12)
C17U C 0.1244(12) -0.0254(13) 0.6236(14)
C17G C -0.0254(13) -0.1236(14) 0.6244(12)
C17L C -0.1236(14) -0.1244(12) 0.4746(13)
C17I C -0.1244(12) 0.0254(13) 0.3764(14)
C17S C 0.0254(13) 0.1236(14) 0.3756(12)
H11S H 0.0461 0.1668 0.3838
H11I H -0.1162 0.0461 0.3332
H11L H -0.1668 -0.1162 0.4539
H11G H -0.0461 -0.1668 0.6162
H11U H 0.1162 -0.0461 0.6668
O6? O 0.8738(8) 0.0832(8) 0.5274(8)
C9? C 0.8500(11) 0.1247(11) 0.5680(11)
N1? N 0.8706(3) 0.1294(3) 0.6294(3)
C10? C 0.9396(12) 0.0998(12) 0.6565(12)
C11? C 0.8259(6) 0.1741(6) 0.6741(6)
N2? N 0.0900(4) 0.1818(7) 0.5339(6)
C12? C 0.0555(7) 0.1901(10) 0.4724(9)
H5? H 0.0414 0.2332 0.4551
N3? N 0.0448(7) 0.1342(8) 0.4420(7)
C13? C 0.0735(7) 0.0806(8) 0.4854(8)
H6? H 0.0736 0.0326 0.4777
C14? C 0.0999(8) 0.1153(9) 0.5395(9)
H7? H 0.1229 0.0942 0.5768
H9? H -0.0051 0.0971 0.4390
H10? H 0.1077 0.0338 0.4724
O7? O 0.0779(4) 0.1870(6) 0.5348(5)
C18? C 0.0000 0.5000 0.5000
C19? C -0.011(9) 0.434(4) 0.468(7)
N6? N 0.002(9) 0.549(7) 0.529(11)
loop_
_geom_bond_atom_site_label_1
_geom_bond_atom_site_label_2
_geom_bond_site_symmetry_1
_geom_bond_site_symmetry_2
In1 O1 1_555 1_555
O1 C1 1_555 1_555
O2 C1 1_555 1_555
O3 C4 1_555 1_555
O4 C4 1_555 1_555
C1 C5 1_555 1_555
C2 C3 1_555 1_555
C3 H1 1_555 1_555
C4 C2 1_555 1_555
C5 C3 1_555 1_555
C6 C2 1_555 1_555
H2 C6 1_555 1_555
C7 C5 1_555 1_555
H3 C7 1_555 1_555
C8 C6 1_555 1_555
H4 C8 1_555 1_555
O5 In1 1_555 1_555
N4 In1 1_555 1_555
C15 N4 1_555 1_555
H8 C15 1_555 1_555
N5 C15 1_555 1_555
C16 N5 1_555 1_555
C17 N4 1_555 1_555
H11 C17 1_555 1_555
In1F O5 1_555 1_555
In1N O1N 1_555 1_555
In1S O1S 1_555 1_555
In1K O2 1_555 1_555
In1T O1T 1_555 1_555
In1M O3 1_555 1_555
In1U O4 1_555 1_555
In1G N4G 1_555 1_555
In1L N4L 1_555 1_555
In1I N4I 1_555 1_555
In1V O3F 1_555 1_555
In1P O4F 1_555 1_555
In1P_2 O2S 1_555 1_555
In1O O3K 1_555 1_555
In1T_2 O4K 1_555 1_555
In1Q O1Q 1_555 1_555
In1U_2 O2Q 1_555 1_555
In1O_2 O5O 1_555 1_555
O1F In1F 1_555 1_555
O1N C1N 1_555 1_555
O1S C1S 1_555 1_555
O1K In1K 1_555 1_555
O1Q C1Q 1_555 1_555
O2F In1 1_555 1_555
O2N In1T 1_555 1_555
O2S C1S 1_555 1_555
O2K In1F 1_555 1_555
O2Q C1Q 1_555 1_555
O2O In1N 1_555 1_555
O2V In1S 1_555 1_555
O3F C4F 1_555 1_555
O3N In1 1_555 1_555
O3S In1K 1_555 1_555
O3K C4K 1_555 1_555
O3Q In1F 1_555 1_555
O3A In1N 1_555 1_555
O3C In1S 1_555 1_555
O3D In1T 1_555 1_555
O4F C4F 1_555 1_555
O4N In1F 1_555 1_555
O4S In1 1_555 1_555
O4K C4K 1_555 1_555
O4Q In1K 1_555 1_555
O4D In1N 1_555 1_555
O4I In1S 1_555 1_555
O4K_2 In1T 1_555 1_555
C1F O1F 1_555 1_555
C1N O2N 1_555 1_555
C1S C5S 1_555 1_555
C1K O1K 1_555 1_555
C1Q C5Q 1_555 1_555
C2F C3F 1_555 1_555
C2N C3N 1_555 1_555
C2S C3S 1_555 1_555
C2K C3K 1_555 1_555
C2Q C3Q 1_555 1_555
C3F H1F 1_555 1_555
C3N H1N 1_555 1_555
C3S H1S 1_555 1_555
C3K H1K 1_555 1_555
C3Q H1Q 1_555 1_555
C4F C2F 1_555 1_555
C4N O3N 1_555 1_555
C4S O3S 1_555 1_555
C4K C2K 1_555 1_555
C4Q O3Q 1_555 1_555
C5F C1F 1_555 1_555
C5N C1N 1_555 1_555
C5S C3S 1_555 1_555
C5K C1K 1_555 1_555
C5Q C3Q 1_555 1_555
C6F C2F 1_555 1_555
C6N C2N 1_555 1_555
C6S C2S 1_555 1_555
C6K C2K 1_555 1_555
C6Q C2Q 1_555 1_555
H2F C6F 1_555 1_555
H2N C6N 1_555 1_555
H2S C6S 1_555 1_555
H2K C6K 1_555 1_555
H2Q C6Q 1_555 1_555
C7F C5F 1_555 1_555
C7N C5N 1_555 1_555
C7S C5S 1_555 1_555
C7K C5K 1_555 1_555
C7Q C5Q 1_555 1_555
H3F C7F 1_555 1_555
H3N C7N 1_555 1_555
H3S C7S 1_555 1_555
H3K C7K 1_555 1_555
H3Q C7Q 1_555 1_555
C8F C6F 1_555 1_555
C8N C6N 1_555 1_555
C8S C6S 1_555 1_555
C8K C6K 1_555 1_555
C8Q C6Q 1_555 1_555
H4F C8F 1_555 1_555
H4N C8N 1_555 1_555
H4S C8S 1_555 1_555
H4K C8K 1_555 1_555
H4Q C8Q 1_555 1_555
O5O In1N 1_555 1_555
O5P In1S 1_555 1_555
N4U In1U 1_555 1_555
N4G C15G 1_555 1_555
N4L C15L 1_555 1_555
N4I C15I 1_555 1_555
N4S In1S 1_555 1_555
N4F In1F 1_555 1_555
N4N In1N 1_555 1_555
N4K In1K 1_555 1_555
N4T In1T 1_555 1_555
C15U N4U 1_555 1_555
C15G H8G 1_555 1_555
C15L H8L 1_555 1_555
C15I H8I 1_555 1_555
C15S N4S 1_555 1_555
H8S C15S 1_555 1_555
H8U C15U 1_555 1_555
N5U C16 1_555 1_555
N5G C15G 1_555 1_555
N5L C15L 1_555 1_555
N5I C15I 1_555 1_555
N5S C15S 1_555 1_555
C16U N5U 1_555 1_555
C16G N5G 1_555 1_555
C16L N5L 1_555 1_555
C16I N5I 1_555 1_555
C16S N5 1_555 1_555
C17U N4U 1_555 1_555
C17G N4G 1_555 1_555
C17L N4L 1_555 1_555
C17I N4I 1_555 1_555
C17S N4S 1_555 1_555
H11S C17S 1_555 1_555
H11I C17I 1_555 1_555
H11L C17L 1_555 1_555
H11G C17G 1_555 1_555
H11U C17U 1_555 1_555
C7 C8 1_555 1_555
O5 In1K 1_555 1_555
C16 C17 1_555 1_555
In1T O5O 1_555 1_555
In1P_2 O5P 1_555 1_555
O2F C1F 1_555 1_555
O2K C1K 1_555 1_555
O4N C4N 1_555 1_555
O4S C4S 1_555 1_555
O4Q C4Q 1_555 1_555
C2N C4N 1_555 1_555
C2S C4S 1_555 1_555
C2Q C4Q 1_555 1_555
C3F C5F 1_555 1_555
C3N C5N 1_555 1_555
C3K C5K 1_555 1_555
C7F C8F 1_555 1_555
C7N C8N 1_555 1_555
C7S C8S 1_555 1_555
C7K C8K 1_555 1_555
C7Q C8Q 1_555 1_555
C15U N5U 1_555 1_555
N5G C16U 1_555 1_555
N5L C16G 1_555 1_555
N5I C16L 1_555 1_555
N5S C16I 1_555 1_555
N5S C16S 1_555 1_555
C16U C17U 1_555 1_555
C16G C17G 1_555 1_555
C16L C17L 1_555 1_555
C16I C17I 1_555 1_555
C16S C17S 1_555 1_555

#END
