
#######################################################################
#
#                 Cambridge Crystallographic Data Centre
#                                CCDC 
#
#######################################################################
#
# If this CIF has been generated from an entry in the Cambridge 
# Structural Database, then it will include bibliographic, chemical, 
# crystal, experimental, refinement or atomic coordinate data resulting 
# from the CCDC's data processing and validation procedures.
#
#######################################################################

data_WAFKEU01
_chemical_formula_moiety         '(C22 H20 N2 O8 Zn2)n'
_chemical_name_systematic        
catena-[bis(\m~4~-1,4-Benzenedicarboxylato-O,O',O'',O''')-(\m~2~-1,4-diazabicyclo[2.2.2]octane)-di-zinc]
_symmetry_cell_setting           trigonal
_symmetry_space_group_name_H-M   'P -3 m 1'
_symmetry_Int_Tables_number      164
_space_group_name_Hall           '-P 3 2"'
loop_
_symmetry_equiv_pos_site_id
_symmetry_equiv_pos_as_xyz
1 x,y,z
2 -y,x-y,z
3 -x+y,-x,z
4 y,x,-z
5 x-y,-y,-z
6 -x,-x+y,-z
7 -x,-y,-z
8 y,-x+y,-z
9 x-y,x,-z
10 -y,-x,z
11 -x+y,y,z
12 x,x-y,z
_cell_length_a                   21.6195(13)
_cell_length_b                   21.6195(13)
_cell_length_c                   9.6282(8)
_cell_angle_alpha                90
_cell_angle_beta                 90
_cell_angle_gamma                120
_cell_volume                     3897.33
_cell_formula_units_Z            3
_chemical_properties_physical    moisture-sensitive
_exptl_crystal_preparation       
'The crystal was subject to vacuum prior to data collection to remove guest solvent molecules'
loop_
_atom_site_label
_atom_site_type_symbol
_atom_site_fract_x
_atom_site_fract_y
_atom_site_fract_z
Zn1 Zn 0.99999(2) 0.499995(10) 0.15107(4)
O1 O 0.92317(12) 0.52607(15) 0.1161(2)
O2 O 0.92320(12) 0.52618(11) -0.1160(2)
N1 N 0.99986(14) 0.49993(7) 0.3663(4)
C1 C 0.89857(14) 0.52939(16) 0.0000(3)
C2 C 0.83208(15) 0.53504(17) 0.0001(3)
C3 C 0.8001(2) 0.5364(3) 0.1222(3)
H1 H 0.8222 0.5373 0.2081
C4 C 0.80017(16) 0.5364(2) -0.1228(3)
H2 H 0.8224 0.5374 -0.2085
C5 C 1.06494(16) 0.5624(2) 0.4202(3)
C6 C 0.93524(16) 0.4368(2) 0.4208(3)
C7 C 0.99424(16) 0.4348(2) 0.4208(3)
Zn1A Zn 0.500005(10) 0.499995(22) 0.15107(4)
Zn1E Zn 1.00001(2) 0.500005(22) -0.15107(4)
Zn1D Zn 0.499995(22) 0.500005(10) -0.15107(4)
Zn1E_2 Zn 1.00001(2) 0.500005(22) 0.84893(4)
Zn1B Zn 0.500005(22) 0.00001(2) 0.15107(4)
Zn1C Zn 0.499995(10) -0.00001(2) -0.15107(4)
O1J O 0.60290(19) 0.52607(15) 0.1161(2)
O1K O 0.92317(12) 0.39710(19) 0.1161(2)
O1B O 0.60290(19) 0.07683(12) 0.1161(2)
O1A O 0.47393(15) 0.39710(19) 0.1161(2)
O2J O 0.60298(16) 0.52618(11) -0.1160(2)
O2K O 0.92320(12) 0.39702(16) -0.1160(2)
O2B O 0.60298(16) 0.07680(12) -0.1160(2)
O2F O 1.07680(12) 0.47382(11) 0.1160(2)
O2E O 1.07680(12) 0.60298(16) 0.1160(2)
O2G O 0.52618(11) 0.60298(16) 0.1160(2)
O2D O 0.39702(16) 0.47382(11) 0.1160(2)
N1E N 1.00014(14) 0.50007(16) 0.6337(4)
N1A N 0.50007(7) 0.49993(16) 0.3663(4)
C1J C 0.63082(21) 0.52939(16) 0.0000(3)
C1K C 0.89857(14) 0.36918(21) 0.0000(3)
C1B C 0.63082(21) 0.10143(14) 0.0000(3)
C2J C 0.70296(23) 0.53504(17) 0.0001(3)
C2K C 0.83208(15) 0.29704(23) 0.0001(3)
C2B C 0.70296(23) 0.16792(15) 0.0001(3)
C3J C 0.7363(4) 0.5364(3) 0.1222(3)
C3K C 0.8001(2) 0.2637(4) 0.1222(3)
C3B C 0.7363(4) 0.1999(2) 0.1222(3)
H1J H 0.7151 0.5373 0.2081
H1K H 0.8222 0.2849 0.2081
H1B H 0.7151 0.1778 0.2081
C4J C 0.73623(26) 0.5364(2) -0.1228(3)
C4K C 0.80017(16) 0.26377(26) -0.1228(3)
C4B C 0.73623(26) 0.19983(16) -0.1228(3)
H2J H 0.7150 0.5374 -0.2085
H2K H 0.8224 0.2850 -0.2085
H2B H 0.7150 0.1776 -0.2085
C5K C 1.06494(16) 0.50254(26) 0.4202(3)
C5F C 0.93506(16) 0.4376(2) 0.5798(3)
C5E C 0.93506(16) 0.49746(26) 0.5798(3)
C6K C 0.93524(16) 0.49844(26) 0.4208(3)
C6E C 1.06476(16) 0.50156(26) 0.5792(3)
C6F C 1.06476(16) 0.5632(2) 0.5792(3)
C7K C 0.99424(16) 0.55944(26) 0.4208(3)
C7E C 1.00576(16) 0.44056(26) 0.5792(3)
C7F C 1.00576(16) 0.5652(2) 0.5792(3)
C8? C 1.03392(16) 0.4595(2) 0.4188(3)
C9? C 0.92313(16) 0.4616(2) 0.4194(3)
C10? C 1.07712(16) 0.5386(2) 0.4201(3)
C11? C 0.95613(16) 0.4225(2) 0.4190(3)
loop_
_geom_bond_atom_site_label_1
_geom_bond_atom_site_label_2
_geom_bond_site_symmetry_1
_geom_bond_site_symmetry_2
Zn1 O1 1_555 1_555
O1 C1 1_555 1_555
O2 C1 1_555 1_555
N1 Zn1 1_555 1_555
C1 C2 1_555 1_555
C2 C3 1_555 1_555
C3 H1 1_555 1_555
C4 C2 1_555 1_555
H2 C4 1_555 1_555
C5 N1 1_555 1_555
C6 N1 1_555 1_555
C7 N1 1_555 1_555
Zn1A O1J 1_555 1_555
Zn1E O2 1_555 1_555
Zn1D O2J 1_555 1_555
Zn1E_2 N1E 1_555 1_555
Zn1B O1B 1_555 1_555
Zn1C O2B 1_555 1_555
O1J C1J 1_555 1_555
O1K Zn1 1_555 1_555
O1B C1B 1_555 1_555
O1A Zn1A 1_555 1_555
O2J C1J 1_555 1_555
O2K Zn1E 1_555 1_555
O2B C1B 1_555 1_555
O2F Zn1 1_555 1_555
O2E Zn1 1_555 1_555
O2G Zn1A 1_555 1_555
O2D Zn1A 1_555 1_555
N1E C5F 1_555 1_555
N1A Zn1A 1_555 1_555
C1J C2J 1_555 1_555
C1K O1K 1_555 1_555
C1B C2B 1_555 1_555
C2J C3J 1_555 1_555
C2K C1K 1_555 1_555
C2B C3B 1_555 1_555
C3J C3 1_555 1_555
C3K C2K 1_555 1_555
C3B C3K 1_555 1_555
H1J C3J 1_555 1_555
H1K C3K 1_555 1_555
H1B C3B 1_555 1_555
C4J C4 1_555 1_555
C4K C2K 1_555 1_555
C4B C2B 1_555 1_555
H2J C4J 1_555 1_555
H2K C4K 1_555 1_555
H2B C4B 1_555 1_555
C5K N1 1_555 1_555
C5F C6 1_555 1_555
C5E N1E 1_555 1_555
C6K N1 1_555 1_555
C6E N1E 1_555 1_555
C6F C5 1_555 1_555
C7K N1 1_555 1_555
C7E C7 1_555 1_555
C7F N1E 1_555 1_555
C5 C5K 1_555 1_555
C5 C7K 1_555 1_555
C6 C7 1_555 1_555
C6 C6K 1_555 1_555
C7 C5K 1_555 1_555
O2K C1K 1_555 1_555
N1E C6F 1_555 1_555
N1E C7E 1_555 1_555
C2J C4J 1_555 1_555
C4K C4B 1_555 1_555
C5K C6E 1_555 1_555
C5F C5E 1_555 1_555
C5F C7E 1_555 1_555
C5E C6K 1_555 1_555
C5E C7F 1_555 1_555
C6K C7K 1_555 1_555
C6E C6F 1_555 1_555
C6E C7E 1_555 1_555
C6F C7F 1_555 1_555
C7K C7F 1_555 1_555

#END
