
#######################################################################
#
#                 Cambridge Crystallographic Data Centre
#                                CCDC 
#
#######################################################################
#
# If this CIF has been generated from an entry in the Cambridge 
# Structural Database, then it will include bibliographic, chemical, 
# crystal, experimental, refinement or atomic coordinate data resulting 
# from the CCDC's data processing and validation procedures.
#
#######################################################################

data_DIWMUT
_chemical_formula_moiety         '(C114 H116 Ca7 N10 O46)n,2.4n(C3 H7 N1 O1)'
_chemical_name_systematic        
"catena-(bis(\m~6~-2,2'-dihydroxybiphenyl-4,4'-dicarboxylato)-bis(\m~5~-2-oxy-2'-hydroxybiphenyl-4,4'-dicarboxylato)-bis(\m~5~-2,2'-dihydroxybiphenyl-4,4'-dicarboxylato)-decakis(N,N-dimethylformamide)-hepta-calcium N,N-dimethylformamide solvate)"
_symmetry_cell_setting           monoclinic
_symmetry_space_group_name_H-M   'C 2/c'
_symmetry_Int_Tables_number      15
_space_group_name_Hall           '-C 2yc'
loop_
_symmetry_equiv_pos_site_id
_symmetry_equiv_pos_as_xyz
1 x,y,z
2 -x,y,1/2-z
3 1/2+x,1/2+y,z
4 1/2-x,1/2+y,1/2-z
5 -x,-y,-z
6 x,-y,1/2+z
7 1/2-x,1/2-y,-z
8 1/2+x,1/2-y,1/2+z
_cell_length_a                   43.986(2)
_cell_length_b                   14.1893(5)
_cell_length_c                   26.3617(17)
_cell_angle_alpha                90
_cell_angle_beta                 107.283(5)
_cell_angle_gamma                90
_cell_volume                     15710.3
_exptl_crystal_colour            colorless
_exptl_crystal_description       block
_cell_formula_units_Z            4
loop_
_atom_site_label
_atom_site_type_symbol
_atom_site_fract_x
_atom_site_fract_y
_atom_site_fract_z
Ca1 Ca 0.0000 0.07505(7) 0.2500
O1 O 0.2600(3) 0.0919(19) 0.7281(5)
H1 H 0.2554 0.0664 0.7537
Ca2 Ca 0.137157(15) 0.15554(4) 0.43964(3)
Ca3 Ca 0.209679(17) 0.30803(5) 0.45716(3)
Ca4 Ca 0.054985(18) 0.22706(5) 0.34374(3)
C1 C 0.05722(12) 0.4481(4) 0.11353(19)
C2 C 0.07011(13) 0.4413(4) 0.1689(2)
C3 C 0.06039(12) 0.3703(4) 0.19601(18)
H2 H 0.0697 0.3665 0.2334
C4 C 0.03796(10) 0.3048(3) 0.17162(16)
C5 C 0.02610(17) 0.3074(5) 0.1174(2)
H3 H 0.0111 0.2617 0.0989
C6 C 0.03645(17) 0.3790(6) 0.0900(2)
H4 H 0.0284 0.3792 0.0523
O2 O 0.09292(14) 0.5026(4) 0.19529(17)
C7 C 0.02611(9) 0.2336(3) 0.20301(16)
O3 O 0.04203(7) 0.2167(2) 0.25001(12)
O4 O 0.00075(6) 0.1891(2) 0.18061(12)
C8 C 0.06454(11) 0.5286(4) 0.08176(19)
C9 C 0.09456(13) 0.5673(5) 0.0890(3)
C10 C 0.09925(12) 0.6362(5) 0.0549(3)
H5 H 0.1199 0.6622 0.0606
C11 C 0.07444(11) 0.6676(4) 0.01273(19)
C12 C 0.04448(13) 0.6330(6) 0.0070(2)
H6 H 0.0269 0.6551 -0.0210
C13 C 0.03985(13) 0.5667(6) 0.0417(2)
H7 H 0.0188 0.5460 0.0380
O5 O 0.12028(11) 0.5387(5) 0.1284(3)
H8 H 0.1149 0.4963 0.1463
C14 C 0.08005(11) 0.7423(4) -0.02522(19)
O6 O 0.05816(8) 0.7545(3) -0.06764(14)
O7 O 0.10626(8) 0.7832(3) -0.01166(13)
C15 C 0.10980(11) 0.6373(3) 0.3588(2)
C16 C 0.09941(16) 0.5702(3) 0.3183(3)
C17 C 0.10640(15) 0.4749(3) 0.3304(2)
H9 H 0.0989 0.4291 0.3033
C18 C 0.12369(10) 0.4459(3) 0.38024(19)
C19 C 0.13577(11) 0.5130(3) 0.4195(2)
H10 H 0.1492 0.4944 0.4533
C20 C 0.12814(12) 0.6068(3) 0.4091(2)
H11 H 0.1355 0.6517 0.4367
O8 O 0.08397(17) 0.5964(3) 0.2690(2)
H12 H 0.0796 0.5486 0.2494
C21 C 0.12892(9) 0.3433(2) 0.39246(19)
O9 O 0.15356(6) 0.31722(17) 0.42710(12)
O10 O 0.10780(7) 0.28545(19) 0.36810(15)
C22 C 0.10074(11) 0.7397(3) 0.3504(2)
C23 C 0.07029(13) 0.7698(3) 0.3236(3)
C24 C 0.06206(11) 0.8635(3) 0.3240(3)
H13 H 0.0407 0.8823 0.3072
C25 C 0.08454(9) 0.9310(2) 0.34864(18)
C26 C 0.11540(10) 0.9030(3) 0.3721(2)
H14 H 0.1313 0.9486 0.3873
C27 C 0.12352(11) 0.8080(3) 0.3736(2)
H15 H 0.1449 0.7894 0.3906
O11 O 0.04704(10) 0.7080(3) 0.2952(3)
H16 H 0.0302 0.7379 0.2809
C28 C 0.07495(8) 1.0313(2) 0.34748(15)
O12 O 0.09385(6) 1.09165(17) 0.37473(11)
O13 O 0.04699(6) 1.05577(18) 0.32040(12)
C29 C 0.20488(17) 0.0629(9) 0.6885(3)
C30 C 0.23286(13) 0.0943(6) 0.6836(2)
C31 C 0.23510(12) 0.1340(5) 0.6371(2)
H17 H 0.2551 0.1551 0.6347
C32 C 0.20803(11) 0.1431(5) 0.59398(19)
C33 C 0.17882(15) 0.1236(9) 0.6003(3)
H18 H 0.1599 0.1406 0.5733
C34 C 0.17688(19) 0.0788(11) 0.6462(3)
H19 H 0.1568 0.0590 0.6490
C35 C 0.20995(9) 0.1810(3) 0.54173(15)
O14 O 0.23622(6) 0.2009(2) 0.53589(12)
O15 O 0.18458(6) 0.1959(2) 0.50604(10)
C36 C 0.20202(19) 0.0137(9) 0.7375(3)
O16 O 0.1720(6) 0.1571(12) 0.7631(8)
H20 H 0.1750 0.1823 0.7361
C37 C 0.1816(2) 0.0551(10) 0.7655(4)
C38 C 0.1781(2) 0.0027(8) 0.8092(4)
H21 H 0.1637 0.0246 0.8272
C39 C 0.19506(12) -0.0793(5) 0.8268(2)
C40 C 0.21301(17) -0.1146(7) 0.7983(3)
H22 H 0.2234 -0.1735 0.8080
C41 C 0.2167(2) -0.0654(10) 0.7542(3)
H23 H 0.2304 -0.0908 0.7358
C42 C 0.18965(11) -0.1325(4) 0.87278(18)
O17 O 0.20575(9) -0.2042(3) 0.88874(15)
O18 O 0.16918(7) -0.0988(3) 0.89221(13)
O19 O 0.02088(8) -0.0379(2) 0.20516(15)
C43 C 0.0302(4) -0.1036(11) 0.1931(8)
H24 H 0.0140 -0.1484 0.1781
N1 N 0.0587(2) -0.1337(6) 0.1949(5)
C44 C 0.0831(3) -0.0571(16) 0.2119(7)
H25 H 0.1038 -0.0807 0.2108
H26 H 0.0846 -0.0373 0.2482
H27 H 0.0768 -0.0032 0.1878
C45 C 0.0761(7) -0.2138(13) 0.1892(13)
H28 H 0.0978 -0.1952 0.1905
H29 H 0.0657 -0.2441 0.1551
H30 H 0.0770 -0.2581 0.2182
O20 O 0.03661(9) 0.3829(3) 0.3318(2)
C46 C 0.0418(4) 0.4446(6) 0.3657(7)
H31 H 0.0590 0.4297 0.3963
N2 N 0.0293(2) 0.5243(4) 0.3692(6)
C47 C 0.0389(7) 0.5868(10) 0.4179(9)
H32 H 0.0270 0.6460 0.4103
H33 H 0.0618 0.6001 0.4273
H34 H 0.0342 0.5547 0.4476
C48 C -0.0007(3) 0.5512(10) 0.3284(6)
H35 H -0.0064 0.6158 0.3350
H36 H -0.0177 0.5080 0.3301
H37 H 0.0024 0.5476 0.2931
O21 O 0.13965(13) 0.0132(3) 0.48588(16)
C49 C 0.1585(5) -0.0351(14) 0.5166(11)
H38 H 0.1490 -0.0550 0.5427
N3 N 0.1862(4) -0.0709(11) 0.5286(7)
C50 C 0.2086(4) -0.0487(11) 0.4940(6)
H39 H 0.2298 -0.0740 0.5114
H40 H 0.2099 0.0196 0.4899
H41 H 0.2000 -0.0779 0.4589
C51 C 0.2059(5) -0.1212(12) 0.5770(9)
H42 H 0.2280 -0.1238 0.5765
H43 H 0.1977 -0.1853 0.5775
H44 H 0.2048 -0.0873 0.6088
O22 O 0.21289(12) 0.4176(3) 0.52596(18)
C52 C 0.2175(3) 0.4225(11) 0.5729(4)
H45 H 0.2344 0.3845 0.5938
N4 N 0.2033(3) 0.4706(13) 0.5984(4)
C53 C 0.1780(4) 0.5412(17) 0.5709(7)
H46 H 0.1723 0.5796 0.5976
H47 H 0.1591 0.5077 0.5492
H48 H 0.1862 0.5820 0.5480
C54 C 0.2039(5) 0.468(3) 0.6551(5)
H49 H 0.1931 0.5236 0.6632
H50 H 0.2261 0.4674 0.6777
H51 H 0.1931 0.4109 0.6616
O23 O 0.20636(10) 0.4420(3) 0.4042(2)
C55 C 0.1971(3) 0.5007(13) 0.3772(7)
H52 H 0.1840 0.5297 0.3957
N5 N 0.1922(3) 0.5529(9) 0.3402(6)
C56 C 0.1911(11) 0.6591(15) 0.3447(13)
H53 H 0.1857 0.6871 0.3091
H54 H 0.2120 0.6823 0.3660
H55 H 0.1750 0.6767 0.3618
C57 C 0.1744(7) 0.526(3) 0.2831(8)
H56 H 0.1734 0.5802 0.2598
H57 H 0.1528 0.5056 0.2811
H58 H 0.1856 0.4740 0.2718
O1A O -0.2600(3) 0.0919(19) -0.2281(5)
H1A H -0.2554 0.0664 -0.2537
Ca2A Ca -0.137157(15) 0.15554(4) 0.06036(3)
Ca3A Ca -0.209679(17) 0.30803(5) 0.04284(3)
Ca4A Ca -0.054985(18) 0.22706(5) 0.15626(3)
C1A C -0.05722(12) 0.4481(4) 0.38647(19)
C2A C -0.07011(13) 0.4413(4) 0.3311(2)
C3A C -0.06039(12) 0.3703(4) 0.30399(18)
H2A H -0.0697 0.3665 0.2666
C4A C -0.03796(10) 0.3048(3) 0.32838(16)
C5A C -0.02610(17) 0.3074(5) 0.3826(2)
H3A H -0.0111 0.2617 0.4011
C6A C -0.03645(17) 0.3790(6) 0.4100(2)
H4A H -0.0284 0.3792 0.4477
O2A O -0.09292(14) 0.5026(4) 0.30471(17)
C7A C -0.02611(9) 0.2336(3) 0.29699(16)
O3A O -0.04203(7) 0.2167(2) 0.24999(12)
O4A O -0.00075(6) 0.1891(2) 0.31939(12)
C8A C -0.06454(11) 0.5286(4) 0.41824(19)
C9A C -0.09456(13) 0.5673(5) 0.4110(3)
C10A C -0.09925(12) 0.6362(5) 0.4451(3)
H5A H -0.1199 0.6622 0.4394
C11A C -0.07444(11) 0.6676(4) 0.48727(19)
C12A C -0.04448(13) 0.6330(6) 0.4930(2)
H6A H -0.0269 0.6551 0.5210
C13A C -0.03985(13) 0.5667(6) 0.4583(2)
H7A H -0.0188 0.5460 0.4620
O5A O -0.12028(11) 0.5387(5) 0.3716(3)
H8A H -0.1149 0.4963 0.3537
C14A C -0.08005(11) 0.7423(4) 0.52522(19)
O6A O -0.05816(8) 0.7545(3) 0.56764(14)
O7A O -0.10626(8) 0.7832(3) 0.51166(13)
C15A C -0.10980(11) 0.6373(3) 0.1412(2)
C16A C -0.09941(16) 0.5702(3) 0.1817(3)
C17A C -0.10640(15) 0.4749(3) 0.1696(2)
H9A H -0.0989 0.4291 0.1967
C18A C -0.12369(10) 0.4459(3) 0.11976(19)
C19A C -0.13577(11) 0.5130(3) 0.0805(2)
H10A H -0.1492 0.4944 0.0467
C20A C -0.12814(12) 0.6068(3) 0.0909(2)
H11A H -0.1355 0.6517 0.0633
O8A O -0.08397(17) 0.5964(3) 0.2310(2)
H12A H -0.0796 0.5486 0.2506
C21A C -0.12892(9) 0.3433(2) 0.10754(19)
O9A O -0.15356(6) 0.31722(17) 0.07290(12)
O10A O -0.10780(7) 0.28545(19) 0.13190(15)
C22A C -0.10074(11) 0.7397(3) 0.1496(2)
C23A C -0.07029(13) 0.7698(3) 0.1764(3)
C24A C -0.06206(11) 0.8635(3) 0.1760(3)
H13A H -0.0407 0.8823 0.1928
C25A C -0.08454(9) 0.9310(2) 0.15136(18)
C26A C -0.11540(10) 0.9030(3) 0.1279(2)
H14A H -0.1313 0.9486 0.1127
C27A C -0.12352(11) 0.8080(3) 0.1264(2)
H15A H -0.1449 0.7894 0.1094
O11A O -0.04704(10) 0.7080(3) 0.2048(3)
H16A H -0.0302 0.7379 0.2191
C28A C -0.07495(8) 1.0313(2) 0.15252(15)
O12A O -0.09385(6) 1.09165(17) 0.12527(11)
O13A O -0.04699(6) 1.05577(18) 0.17960(12)
C29A C -0.20488(17) 0.0629(9) -0.1885(3)
C30A C -0.23286(13) 0.0943(6) -0.1836(2)
C31A C -0.23510(12) 0.1340(5) -0.1371(2)
H17A H -0.2551 0.1551 -0.1347
C32A C -0.20803(11) 0.1431(5) -0.09398(19)
C33A C -0.17882(15) 0.1236(9) -0.1003(3)
H18A H -0.1599 0.1406 -0.0733
C34A C -0.17688(19) 0.0788(11) -0.1462(3)
H19A H -0.1568 0.0590 -0.1490
C35A C -0.20995(9) 0.1810(3) -0.04173(15)
O14A O -0.23622(6) 0.2009(2) -0.03589(12)
O15A O -0.18458(6) 0.1959(2) -0.00604(10)
C36A C -0.20202(19) 0.0137(9) -0.2375(3)
O16A O -0.1720(6) 0.1571(12) -0.2631(8)
H20A H -0.1750 0.1823 -0.2361
C37A C -0.1816(2) 0.0551(10) -0.2655(4)
C38A C -0.1781(2) 0.0027(8) -0.3092(4)
H21A H -0.1637 0.0246 -0.3272
C39A C -0.19506(12) -0.0793(5) -0.3268(2)
C40A C -0.21301(17) -0.1146(7) -0.2983(3)
H22A H -0.2234 -0.1735 -0.3080
C41A C -0.2167(2) -0.0654(10) -0.2542(3)
H23A H -0.2304 -0.0908 -0.2358
C42A C -0.18965(11) -0.1325(4) -0.37278(18)
O17A O -0.20575(9) -0.2042(3) -0.38874(15)
O18A O -0.16918(7) -0.0988(3) -0.39221(13)
O19A O -0.02088(8) -0.0379(2) 0.29484(15)
C43A C -0.0302(4) -0.1036(11) 0.3069(8)
H24A H -0.0140 -0.1484 0.3219
N1A N -0.0587(2) -0.1337(6) 0.3051(5)
C44A C -0.0831(3) -0.0571(16) 0.2881(7)
H25A H -0.1038 -0.0807 0.2892
H26A H -0.0846 -0.0373 0.2518
H27A H -0.0768 -0.0032 0.3122
C45A C -0.0761(7) -0.2138(13) 0.3108(13)
H28A H -0.0978 -0.1952 0.3095
H29A H -0.0657 -0.2441 0.3449
H30A H -0.0770 -0.2581 0.2818
O20A O -0.03661(9) 0.3829(3) 0.1682(2)
C46A C -0.0418(4) 0.4446(6) 0.1343(7)
H31A H -0.0590 0.4297 0.1037
N2A N -0.0293(2) 0.5243(4) 0.1308(6)
C47A C -0.0389(7) 0.5868(10) 0.0821(9)
H32A H -0.0270 0.6460 0.0897
H33A H -0.0618 0.6001 0.0727
H34A H -0.0342 0.5547 0.0524
C48A C 0.0007(3) 0.5512(10) 0.1716(6)
H35A H 0.0064 0.6158 0.1650
H36A H 0.0177 0.5080 0.1699
H37A H -0.0024 0.5476 0.2069
O21A O -0.13965(13) 0.0132(3) 0.01412(16)
C49A C -0.1585(5) -0.0351(14) -0.0166(11)
H38A H -0.1490 -0.0550 -0.0427
N3A N -0.1862(4) -0.0709(11) -0.0286(7)
C50A C -0.2086(4) -0.0487(11) 0.0060(6)
H39A H -0.2298 -0.0740 -0.0114
H40A H -0.2099 0.0196 0.0101
H41A H -0.2000 -0.0779 0.0411
C51A C -0.2059(5) -0.1212(12) -0.0770(9)
H42A H -0.2280 -0.1238 -0.0765
H43A H -0.1977 -0.1853 -0.0775
H44A H -0.2048 -0.0873 -0.1088
O22A O -0.21289(12) 0.4176(3) -0.02596(18)
C52A C -0.2175(3) 0.4225(11) -0.0729(4)
H45A H -0.2344 0.3845 -0.0938
N4A N -0.2033(3) 0.4706(13) -0.0984(4)
C53A C -0.1780(4) 0.5412(17) -0.0709(7)
H46A H -0.1723 0.5796 -0.0976
H47A H -0.1591 0.5077 -0.0492
H48A H -0.1862 0.5820 -0.0480
C54A C -0.2039(5) 0.468(3) -0.1551(5)
H49A H -0.1931 0.5236 -0.1632
H50A H -0.2261 0.4674 -0.1777
H51A H -0.1931 0.4109 -0.1616
O23A O -0.20636(10) 0.4420(3) 0.0958(2)
C55A C -0.1971(3) 0.5007(13) 0.1228(7)
H52A H -0.1840 0.5297 0.1043
N5A N -0.1922(3) 0.5529(9) 0.1598(6)
C56A C -0.1911(11) 0.6591(15) 0.1553(13)
H53A H -0.1857 0.6871 0.1909
H54A H -0.2120 0.6823 0.1340
H55A H -0.1750 0.6767 0.1382
C57A C -0.1744(7) 0.526(3) 0.2169(8)
H56A H -0.1734 0.5802 0.2402
H57A H -0.1528 0.5056 0.2189
H58A H -0.1856 0.4740 0.2282
Ca1_2 Ca 0.0000 1.07505(7) 0.2500
Ca2_2 Ca 0.137157(15) 1.15554(4) 0.43964(3)
Ca2A_2 Ca -0.137157(15) 1.15554(4) 0.06036(3)
Ca2D Ca -0.137157(15) -0.15554(4) -0.43964(3)
Ca2D_2 Ca -0.137157(15) 0.84446(4) 0.56036(3)
Ca2E Ca 0.137157(15) -0.15554(4) 0.93964(3)
Ca2E_2 Ca 0.137157(15) 0.84446(4) -0.06036(3)
Ca3D Ca -0.209679(17) -0.30803(5) -0.45716(3)
Ca3E Ca 0.209679(17) -0.30803(5) 0.95716(3)
Ca3F Ca 0.290321(17) 0.19197(5) 0.54284(3)
Ca3G Ca -0.290321(17) 0.19197(5) -0.04284(3)
Ca4_2 Ca 0.054985(18) 1.22706(5) 0.34374(3)
Ca4A_2 Ca -0.054985(18) 1.22706(5) 0.15626(3)
Ca4D Ca -0.054985(18) 0.77294(5) 0.65626(3)
Ca4E Ca 0.054985(18) 0.77294(5) -0.15626(3)
O6D O -0.05816(8) 0.2455(3) 0.06764(14)
O6E O 0.05816(8) 0.2455(3) 0.43236(14)
O7D O -0.10626(8) 0.2168(3) 0.01166(13)
O7E O 0.10626(8) 0.2168(3) 0.48834(13)
O12_2 O 0.09385(6) 0.09165(17) 0.37473(11)
O12A_2 O -0.09385(6) 0.09165(17) 0.12527(11)
O13_2 O 0.04699(6) 0.05577(18) 0.32040(12)
O13A_2 O -0.04699(6) 0.05577(18) 0.17960(12)
O14F O 0.26378(6) 0.2991(2) 0.46411(12)
O14G O -0.26378(6) 0.2991(2) 0.03589(12)
O17D O -0.20575(9) 0.2042(3) 0.11126(15)
O17E O 0.20575(9) 0.2042(3) 0.38874(15)
O18D O -0.16918(7) 0.0988(3) 0.10779(13)
O18E O 0.16918(7) 0.0988(3) 0.39221(13)
H59? H 0.2515 0.0888 0.7130
O24? O 0.1459(2) 0.0698(13) 0.6531(4)
H60? H 0.1322 0.0923 0.6265
H61? H 0.1711 0.1136 0.7552
O25? O 0.2372(4) -0.1100(16) 0.7272(5)
H62? H 0.2447 -0.1600 0.7431
loop_
_geom_bond_atom_site_label_1
_geom_bond_atom_site_label_2
_geom_bond_site_symmetry_1
_geom_bond_site_symmetry_2
Ca1 O3 1_555 1_555
O1 H1 1_555 1_555
Ca2 O9 1_555 1_555
Ca3 O9 1_555 1_555
Ca4 O3 1_555 1_555
C1 C2 1_555 1_555
C2 C3 1_555 1_555
C3 H2 1_555 1_555
C4 C3 1_555 1_555
C5 C4 1_555 1_555
H3 C5 1_555 1_555
C6 C1 1_555 1_555
H4 C6 1_555 1_555
O2 C2 1_555 1_555
C7 C4 1_555 1_555
O3 C7 1_555 1_555
O4 Ca1 1_555 1_555
C8 C1 1_555 1_555
C9 C8 1_555 1_555
C10 C9 1_555 1_555
H5 C10 1_555 1_555
C11 C10 1_555 1_555
C12 C11 1_555 1_555
H6 C12 1_555 1_555
C13 C8 1_555 1_555
H7 C13 1_555 1_555
O5 C9 1_555 1_555
H8 O5 1_555 1_555
C14 C11 1_555 1_555
O6 C14 1_555 1_555
O7 C14 1_555 1_555
C15 C16 1_555 1_555
C16 C17 1_555 1_555
C17 H9 1_555 1_555
C18 C17 1_555 1_555
C19 C18 1_555 1_555
H10 C19 1_555 1_555
C20 C15 1_555 1_555
H11 C20 1_555 1_555
O8 C16 1_555 1_555
H12 O8 1_555 1_555
C21 C18 1_555 1_555
O9 C21 1_555 1_555
O10 Ca2 1_555 1_555
C22 C15 1_555 1_555
C23 C22 1_555 1_555
C24 C23 1_555 1_555
H13 C24 1_555 1_555
C25 C24 1_555 1_555
C26 C25 1_555 1_555
H14 C26 1_555 1_555
C27 C22 1_555 1_555
H15 C27 1_555 1_555
O11 C23 1_555 1_555
H16 O11 1_555 1_555
C28 C25 1_555 1_555
O12 C28 1_555 1_555
O13 C28 1_555 1_555
C29 C30 1_555 1_555
C30 O1 1_555 1_555
C31 C30 1_555 1_555
H17 C31 1_555 1_555
C32 C31 1_555 1_555
C33 C32 1_555 1_555
H18 C33 1_555 1_555
C34 C29 1_555 1_555
H19 C34 1_555 1_555
C35 C32 1_555 1_555
O14 Ca3 1_555 1_555
O15 Ca2 1_555 1_555
C36 C29 1_555 1_555
O16 H20 1_555 1_555
C37 C36 1_555 1_555
C38 C37 1_555 1_555
H21 C38 1_555 1_555
C39 C38 1_555 1_555
C40 C39 1_555 1_555
H22 C40 1_555 1_555
C41 C36 1_555 1_555
H23 C41 1_555 1_555
C42 C39 1_555 1_555
O17 C42 1_555 1_555
O18 C42 1_555 1_555
O19 Ca1 1_555 1_555
C43 O19 1_555 1_555
H24 C43 1_555 1_555
N1 C43 1_555 1_555
C44 N1 1_555 1_555
H25 C44 1_555 1_555
H26 C44 1_555 1_555
H27 C44 1_555 1_555
C45 N1 1_555 1_555
H28 C45 1_555 1_555
H29 C45 1_555 1_555
H30 C45 1_555 1_555
O20 Ca4 1_555 1_555
C46 O20 1_555 1_555
H31 C46 1_555 1_555
N2 C46 1_555 1_555
C47 N2 1_555 1_555
H32 C47 1_555 1_555
H33 C47 1_555 1_555
H34 C47 1_555 1_555
C48 N2 1_555 1_555
H35 C48 1_555 1_555
H36 C48 1_555 1_555
H37 C48 1_555 1_555
O21 Ca2 1_555 1_555
C49 O21 1_555 1_555
H38 C49 1_555 1_555
N3 C49 1_555 1_555
C50 N3 1_555 1_555
H39 C50 1_555 1_555
H40 C50 1_555 1_555
H41 C50 1_555 1_555
C51 N3 1_555 1_555
H42 C51 1_555 1_555
H43 C51 1_555 1_555
H44 C51 1_555 1_555
O22 Ca3 1_555 1_555
C52 O22 1_555 1_555
H45 C52 1_555 1_555
N4 C52 1_555 1_555
C53 N4 1_555 1_555
H46 C53 1_555 1_555
H47 C53 1_555 1_555
H48 C53 1_555 1_555
C54 N4 1_555 1_555
H49 C54 1_555 1_555
H50 C54 1_555 1_555
H51 C54 1_555 1_555
O23 Ca3 1_555 1_555
C55 O23 1_555 1_555
H52 C55 1_555 1_555
N5 C55 1_555 1_555
C56 N5 1_555 1_555
H53 C56 1_555 1_555
H54 C56 1_555 1_555
H55 C56 1_555 1_555
C57 N5 1_555 1_555
H56 C57 1_555 1_555
H57 C57 1_555 1_555
H58 C57 1_555 1_555
O1A H1A 1_555 1_555
Ca2A O9A 1_555 1_555
Ca3A O9A 1_555 1_555
Ca4A O4 1_555 1_555
C1A C2A 1_555 1_555
C2A C3A 1_555 1_555
C3A H2A 1_555 1_555
C4A C3A 1_555 1_555
C5A C4A 1_555 1_555
H3A C5A 1_555 1_555
C6A C1A 1_555 1_555
H4A C6A 1_555 1_555
O2A C2A 1_555 1_555
C7A C4A 1_555 1_555
O3A Ca1 1_555 1_555
O4A Ca1 1_555 1_555
C8A C1A 1_555 1_555
C9A C8A 1_555 1_555
C10A C9A 1_555 1_555
H5A C10A 1_555 1_555
C11A C10A 1_555 1_555
C12A C11A 1_555 1_555
H6A C12A 1_555 1_555
C13A C8A 1_555 1_555
H7A C13A 1_555 1_555
O5A C9A 1_555 1_555
H8A O5A 1_555 1_555
C14A C11A 1_555 1_555
O6A C14A 1_555 1_555
O7A C14A 1_555 1_555
C15A C16A 1_555 1_555
C16A C17A 1_555 1_555
C17A H9A 1_555 1_555
C18A C17A 1_555 1_555
C19A C18A 1_555 1_555
H10A C19A 1_555 1_555
C20A C15A 1_555 1_555
H11A C20A 1_555 1_555
O8A C16A 1_555 1_555
H12A O8A 1_555 1_555
C21A C18A 1_555 1_555
O9A C21A 1_555 1_555
O10A Ca2A 1_555 1_555
C22A C15A 1_555 1_555
C23A C22A 1_555 1_555
C24A C23A 1_555 1_555
H13A C24A 1_555 1_555
C25A C24A 1_555 1_555
C26A C25A 1_555 1_555
H14A C26A 1_555 1_555
C27A C22A 1_555 1_555
H15A C27A 1_555 1_555
O11A C23A 1_555 1_555
H16A O11A 1_555 1_555
C28A C25A 1_555 1_555
O12A C28A 1_555 1_555
O13A C28A 1_555 1_555
C29A C30A 1_555 1_555
C30A O1A 1_555 1_555
C31A C30A 1_555 1_555
H17A C31A 1_555 1_555
C32A C31A 1_555 1_555
C33A C32A 1_555 1_555
H18A C33A 1_555 1_555
C34A C29A 1_555 1_555
H19A C34A 1_555 1_555
C35A C32A 1_555 1_555
O14A Ca3A 1_555 1_555
O15A Ca2A 1_555 1_555
C36A C29A 1_555 1_555
O16A H20A 1_555 1_555
C37A C36A 1_555 1_555
C38A C37A 1_555 1_555
H21A C38A 1_555 1_555
C39A C38A 1_555 1_555
C40A C39A 1_555 1_555
H22A C40A 1_555 1_555
C41A C36A 1_555 1_555
H23A C41A 1_555 1_555
C42A C39A 1_555 1_555
O17A C42A 1_555 1_555
O18A C42A 1_555 1_555
O19A Ca1 1_555 1_555
C43A O19A 1_555 1_555
H24A C43A 1_555 1_555
N1A C43A 1_555 1_555
C44A N1A 1_555 1_555
H25A C44A 1_555 1_555
H26A C44A 1_555 1_555
H27A C44A 1_555 1_555
C45A N1A 1_555 1_555
H28A C45A 1_555 1_555
H29A C45A 1_555 1_555
H30A C45A 1_555 1_555
O20A Ca4A 1_555 1_555
C46A O20A 1_555 1_555
H31A C46A 1_555 1_555
N2A C46A 1_555 1_555
C47A N2A 1_555 1_555
H32A C47A 1_555 1_555
H33A C47A 1_555 1_555
H34A C47A 1_555 1_555
C48A N2A 1_555 1_555
H35A C48A 1_555 1_555
H36A C48A 1_555 1_555
H37A C48A 1_555 1_555
O21A Ca2A 1_555 1_555
C49A O21A 1_555 1_555
H38A C49A 1_555 1_555
N3A C49A 1_555 1_555
C50A N3A 1_555 1_555
H39A C50A 1_555 1_555
H40A C50A 1_555 1_555
H41A C50A 1_555 1_555
C51A N3A 1_555 1_555
H42A C51A 1_555 1_555
H43A C51A 1_555 1_555
H44A C51A 1_555 1_555
O22A Ca3A 1_555 1_555
C52A O22A 1_555 1_555
H45A C52A 1_555 1_555
N4A C52A 1_555 1_555
C53A N4A 1_555 1_555
H46A C53A 1_555 1_555
H47A C53A 1_555 1_555
H48A C53A 1_555 1_555
C54A N4A 1_555 1_555
H49A C54A 1_555 1_555
H50A C54A 1_555 1_555
H51A C54A 1_555 1_555
O23A Ca3A 1_555 1_555
C55A O23A 1_555 1_555
H52A C55A 1_555 1_555
N5A C55A 1_555 1_555
C56A N5A 1_555 1_555
H53A C56A 1_555 1_555
H54A C56A 1_555 1_555
H55A C56A 1_555 1_555
C57A N5A 1_555 1_555
H56A C57A 1_555 1_555
H57A C57A 1_555 1_555
H58A C57A 1_555 1_555
Ca1_2 O13 1_555 1_555
Ca2_2 O12 1_555 1_555
Ca2A_2 O12A 1_555 1_555
Ca2D O18A 1_555 1_555
Ca2D_2 O7A 1_555 1_555
Ca2E O18 1_555 1_555
Ca2E_2 O7 1_555 1_555
Ca3D O17A 1_555 1_555
Ca3E O17 1_555 1_555
Ca3F O14 1_555 1_555
Ca3G O14A 1_555 1_555
Ca4_2 O12 1_555 1_555
Ca4A_2 O12A 1_555 1_555
Ca4D O6A 1_555 1_555
Ca4E O6 1_555 1_555
O6D Ca4A 1_555 1_555
O6E Ca4 1_555 1_555
O7D Ca2A 1_555 1_555
O7E Ca2 1_555 1_555
O12_2 Ca2 1_555 1_555
O12A_2 Ca2A 1_555 1_555
O13_2 Ca1 1_555 1_555
O13A_2 Ca1 1_555 1_555
O14F Ca3 1_555 1_555
O14G Ca3A 1_555 1_555
O17D Ca3A 1_555 1_555
O17E Ca3 1_555 1_555
O18D Ca2A 1_555 1_555
O18E Ca2 1_555 1_555
Ca3 O15 1_555 1_555
Ca4 O10 1_555 1_555
Ca4 O4A 1_555 1_555
Ca4 O12_2 1_555 1_555
Ca4 O13_2 1_555 1_555
C5 C6 1_555 1_555
C7 O4 1_555 1_555
C12 C13 1_555 1_555
C19 C20 1_555 1_555
C21 O10 1_555 1_555
C26 C27 1_555 1_555
O13 Ca4_2 1_555 1_555
C33 C34 1_555 1_555
C35 O14 1_555 1_555
C35 O15 1_555 1_555
O16 C37 1_555 1_555
C40 C41 1_555 1_555
Ca3A O15A 1_555 1_555
Ca4A O3A 1_555 1_555
Ca4A O10A 1_555 1_555
Ca4A O12A_2 1_555 1_555
Ca4A O13A_2 1_555 1_555
C5A C6A 1_555 1_555
C7A O3A 1_555 1_555
C7A O4A 1_555 1_555
C12A C13A 1_555 1_555
C19A C20A 1_555 1_555
C21A O10A 1_555 1_555
C26A C27A 1_555 1_555
O13A Ca1_2 1_555 1_555
O13A Ca4A_2 1_555 1_555
C33A C34A 1_555 1_555
C35A O14A 1_555 1_555
C35A O15A 1_555 1_555
O16A C37A 1_555 1_555
C40A C41A 1_555 1_555
Ca3F O14F 1_555 1_555
Ca3G O14G 1_555 1_555

#END
