
#######################################################################
#
#                 Cambridge Crystallographic Data Centre
#                                CCDC 
#
#######################################################################
#
# If this CIF has been generated from an entry in the Cambridge 
# Structural Database, then it will include bibliographic, chemical, 
# crystal, experimental, refinement or atomic coordinate data resulting 
# from the CCDC's data processing and validation procedures.
#
#######################################################################

data_DIWNAA
_chemical_formula_moiety         '(C20 H22 Mg1 N2 O8)n,n(C3 H7 N1 O1)'
_chemical_name_systematic        
"catena-[(\m~3~-2,2'-dihydroxybiphenyl-4,4'-dicarboxylate)-bis(dimethylformamide)-magnesium(ii) N,N-dimethylformamide solvate]"
_symmetry_cell_setting           trigonal
_symmetry_space_group_name_H-M   'P 32 2 1'
_symmetry_Int_Tables_number      154
_space_group_name_Hall           'P 32 2"'
loop_
_symmetry_equiv_pos_site_id
_symmetry_equiv_pos_as_xyz
1 x,y,z
2 -y,x-y,2/3+z
3 -x+y,-x,1/3+z
4 x-y,-y,1/3-z
5 -x,-x+y,2/3-z
6 y,x,-z
_cell_length_a                   17.4446(8)
_cell_length_b                   17.4446(8)
_cell_length_c                   8.5897(5)
_cell_angle_alpha                90
_cell_angle_beta                 90
_cell_angle_gamma                120
_cell_volume                     2263.76
_exptl_crystal_colour            brown
_exptl_crystal_description       block
_chemical_melting_point          '220 deg.C'
_cell_formula_units_Z            3
loop_
_atom_site_label
_atom_site_type_symbol
_atom_site_fract_x
_atom_site_fract_y
_atom_site_fract_z
Mg1 Mg 0.46484(8) 0.46484(8) 0.0000
O1 O 0.51598(14) 0.59260(13) 0.0979(2)
O2 O 0.57019(14) 0.91569(20) -0.2408(3)
O3 O 0.44304(14) 0.81149(20) -0.1378(2)
O4 O 0.43281(16) 0.51061(17) -0.2003(2)
C1 C 0.56297(18) 0.66951(17) 0.0130(4)
C2 C 0.52301(19) 0.71689(18) -0.0343(3)
H1 H 0.4628 0.6960 -0.0083
C3 C 0.52509(18) 0.84460(26) -0.1695(3)
C4 C 0.5698(2) 0.79476(19) -0.1194(4)
C5 C 0.6522(2) 0.6987(2) -0.0240(4)
N1 N 0.4637(2) 0.6123(2) -0.3930(3)
C6 C 0.4841(2) 0.5663(2) -0.2964(4)
H2 H 0.5428 0.5764 -0.3004
C7 C 0.6967(2) 0.7774(2) -0.1077(5)
H3 H 0.7570 0.7993 -0.1341
C8 C 0.6566(2) 0.8251(2) -0.1540(5)
H4 H 0.6897 0.8789 -0.2098
C9 C 0.3760(3) 0.6025(3) -0.3895(5)
H5 H 0.3724 0.6415 -0.4677
H6 H 0.3648 0.6184 -0.2860
H7 H 0.3317 0.5409 -0.4125
C10 C 0.5302(3) 0.6802(3) -0.4951(4)
H8 H 0.5026 0.7071 -0.5570
H9 H 0.5545 0.6532 -0.5648
H10 H 0.5780 0.7259 -0.4319
H11 H 0.454(2) 0.582(2) 0.132(4)
O1E O 0.59260(13) 0.51598(14) -0.0979(2)
C1E C 0.66951(17) 0.56297(18) -0.0130(4)
C2E C 0.71689(18) 0.52301(19) 0.0343(3)
H1E H 0.6960 0.4628 0.0083
C4E C 0.79476(19) 0.5698(2) 0.1194(4)
C5E C 0.6987(2) 0.6522(2) 0.0240(4)
C7E C 0.7774(2) 0.6967(2) 0.1077(5)
H3E H 0.7993 0.7570 0.1341
C8E C 0.8251(2) 0.6566(2) 0.1540(5)
H4E H 0.8789 0.6897 0.2098
H11E H 0.582(2) 0.454(2) -0.132(4)
O2E O 0.91569(20) 0.57019(14) 0.2408(3)
O3E O 0.81149(20) 0.44304(14) 0.1378(2)
C3E C 0.84460(26) 0.52509(18) 0.1695(3)
O4E O 0.51061(17) 0.43281(16) 0.2003(2)
N1E N 0.6123(2) 0.4637(2) 0.3930(3)
C6E C 0.5663(2) 0.4841(2) 0.2964(4)
H2E H 0.5764 0.5428 0.3004
C9E C 0.6025(3) 0.3760(3) 0.3895(5)
H5E H 0.6415 0.3724 0.4677
H6E H 0.6184 0.3648 0.2860
H7E H 0.5409 0.3317 0.4125
C10E C 0.6802(3) 0.5302(3) 0.4951(4)
H8E H 0.7071 0.5026 0.5570
H9E H 0.6532 0.5545 0.5648
H10E H 0.7259 0.5780 0.4319
Mg1A Mg 0.53516(8) 1.00000(11) -0.3333
Mg1B Mg 1.00000(11) 0.53516(8) 0.3333
O2B O 0.34550(24) 0.42981(14) 0.0925(3)
O2D O 0.42981(14) 0.34550(24) -0.0925(3)
H12? H 0.3402 0.5590 -0.3098
H13? H 0.3478 0.5821 -0.4915
H14? H 0.3810 0.6596 -0.3650
H15? H 0.5874 0.6837 -0.4788
H16? H 0.5356 0.7376 -0.4710
H17? H 0.5121 0.6649 -0.6039
loop_
_geom_bond_atom_site_label_1
_geom_bond_atom_site_label_2
_geom_bond_site_symmetry_1
_geom_bond_site_symmetry_2
Mg1 O1 1_555 1_555
O1 C1 1_555 1_555
O2 C3 1_555 1_555
O3 C3 1_555 1_555
O4 Mg1 1_555 1_555
C1 C2 1_555 1_555
C2 H1 1_555 1_555
C3 C4 1_555 1_555
C4 C2 1_555 1_555
C5 C1 1_555 1_555
N1 C6 1_555 1_555
C6 O4 1_555 1_555
H2 C6 1_555 1_555
C7 C5 1_555 1_555
H3 C7 1_555 1_555
C8 C4 1_555 1_555
H4 C8 1_555 1_555
C9 N1 1_555 1_555
H5 C9 1_555 1_555
H6 C9 1_555 1_555
H7 C9 1_555 1_555
C10 N1 1_555 1_555
H8 C10 1_555 1_555
H9 C10 1_555 1_555
H10 C10 1_555 1_555
H11 O1 1_555 1_555
O1E Mg1 1_555 1_555
C1E O1E 1_555 1_555
C2E C1E 1_555 1_555
H1E C2E 1_555 1_555
C4E C2E 1_555 1_555
C5E C5 1_555 1_555
C7E C5E 1_555 1_555
H3E C7E 1_555 1_555
C8E C4E 1_555 1_555
H4E C8E 1_555 1_555
H11E O1E 1_555 1_555
O2E C3E 1_555 1_555
O3E C3E 1_555 1_555
C3E C4E 1_555 1_555
O4E Mg1 1_555 1_555
N1E C6E 1_555 1_555
C6E O4E 1_555 1_555
H2E C6E 1_555 1_555
C9E N1E 1_555 1_555
H5E C9E 1_555 1_555
H6E C9E 1_555 1_555
H7E C9E 1_555 1_555
C10E N1E 1_555 1_555
H8E C10E 1_555 1_555
H9E C10E 1_555 1_555
H10E C10E 1_555 1_555
Mg1A O2 1_555 1_555
Mg1B O2E 1_555 1_555
O2B Mg1 1_555 1_555
O2D Mg1 1_555 1_555
C7 C8 1_555 1_555
C1E C5E 1_555 1_555
C7E C8E 1_555 1_555

#END
