
#######################################################################
#
#                 Cambridge Crystallographic Data Centre
#                                CCDC 
#
#######################################################################
#
# If this CIF has been generated from an entry in the Cambridge 
# Structural Database, then it will include bibliographic, chemical, 
# crystal, experimental, refinement or atomic coordinate data resulting 
# from the CCDC's data processing and validation procedures.
#
#######################################################################

data_ECASOS
_chemical_formula_moiety         '(C16 H18 Cu2 N8 O12 P4)n,4n(H2 O1)'
_chemical_name_systematic        
'catena-[bis(\m~4~-benzene-1,4-bis(hydrogen phosphonato))-bis(\m~2~-3-amino-1,2,4-triazolato)-di-copper tetrahydrate]'
_symmetry_cell_setting           monoclinic
_symmetry_space_group_name_H-M   'P 21/n'
_symmetry_Int_Tables_number      14
_space_group_name_Hall           '-P 2yn'
loop_
_symmetry_equiv_pos_site_id
_symmetry_equiv_pos_as_xyz
1 x,y,z
2 1/2-x,1/2+y,1/2-z
3 -x,-y,-z
4 1/2+x,1/2-y,1/2+z
_cell_length_a                   7.03030(10)
_cell_length_b                   15.6408(2)
_cell_length_c                   12.5619(2)
_cell_angle_alpha                90
_cell_angle_beta                 100.9180(10)
_cell_angle_gamma                90
_cell_volume                     1356.3
_exptl_crystal_colour            green
_exptl_crystal_description       parallelepiped
_cell_formula_units_Z            2
loop_
_atom_site_label
_atom_site_type_symbol
_atom_site_fract_x
_atom_site_fract_y
_atom_site_fract_z
Cu1 Cu 0.5000 0.5000 1.0000
Cu2 Cu 1.0000 0.5000 1.0000
P1 P 0.25916(15) 0.58620(6) 0.78364(8)
P2 P 0.73929(15) 0.92586(6) 0.73177(8)
C1 C 0.3930(6) 0.6828(2) 0.7718(3)
C2 C 0.3137(6) 0.7629(3) 0.7827(3)
H1 H 0.1895 0.7676 0.7976
C3 C 0.4207(6) 0.8364(3) 0.7713(3)
H2 H 0.3678 0.8900 0.7790
C4 C 0.6073(6) 0.8295(3) 0.7483(3)
C5 C 0.6871(6) 0.7496(3) 0.7380(3)
H3 H 0.8114 0.7449 0.7231
C6 C 0.5801(6) 0.6763(3) 0.7500(3)
H4 H 0.6338 0.6226 0.7435
C7 C 0.8985(6) 0.6868(3) 0.9941(3)
C8 C 0.6054(6) 0.6859(3) 1.0225(3)
N1 N 0.8465(5) 0.6063(2) 0.9979(3)
N2 N 0.6565(5) 0.6057(2) 1.0144(3)
N3 N 0.7515(6) 0.7393(2) 1.0098(3)
N4 N 0.4446(12) 0.7116(5) 1.0437(6)
H5 H 0.3584 0.6751 1.0541
H6 H 0.4222 0.7655 1.0476
O1 O 0.0451(5) 0.61529(19) 0.7485(3)
H7 H -0.041(11) 0.589(5) 0.731(6)
O2 O 0.3141(4) 0.52049(18) 0.7068(2)
O3 O 0.2886(4) 0.55717(19) 0.9013(2)
O4 O 0.7060(4) 0.95324(18) 0.6136(2)
O5 O 0.6869(4) 0.99303(17) 0.8082(2)
O6 O 0.9535(5) 0.8968(2) 0.7662(3)
H8 H 1.012(10) 0.931(5) 0.772(6)
Cu1A Cu 1.0000 1.0000 0.5000
Cu1A_2 Cu 0.0000 0.0000 1.5000
Cu2_2 Cu 0.0000 0.5000 1.0000
Cu2A Cu 0.5000 1.0000 0.5000
Cu2A_2 Cu 0.5000 0.0000 1.5000
P1B P 0.74084(15) 0.41380(6) 1.21636(8)
P2B P 0.26071(15) 0.07414(6) 1.26823(8)
C1B C 0.6070(6) 0.3172(2) 1.2282(3)
C2B C 0.6863(6) 0.2371(3) 1.2173(3)
H1B H 0.8105 0.2324 1.2024
C3B C 0.5793(6) 0.1636(3) 1.2287(3)
H2B H 0.6322 0.1100 1.2210
C4B C 0.3927(6) 0.1705(3) 1.2517(3)
C5B C 0.3129(6) 0.2504(3) 1.2620(3)
H3B H 0.1886 0.2551 1.2769
C6B C 0.4199(6) 0.3237(3) 1.2500(3)
H4B H 0.3662 0.3774 1.2565
C7B C 0.1015(6) 0.3132(3) 1.0059(3)
C8B C 0.3946(6) 0.3141(3) 0.9775(3)
N1B N 0.1535(5) 0.3937(2) 1.0021(3)
N1B_2 N 1.1535(5) 0.3937(2) 1.0021(3)
N2B N 0.3435(5) 0.3943(2) 0.9856(3)
N3B N 0.2485(6) 0.2607(2) 0.9902(3)
N4B N 0.5554(12) 0.2884(5) 0.9563(6)
H5B H 0.6416 0.3249 0.9459
H6B H 0.5778 0.2345 0.9524
O1B O 0.9549(5) 0.38471(19) 1.2515(3)
H7B H 1.041(11) 0.411(5) 1.269(6)
O2B O 0.6859(4) 0.47951(18) 1.2932(2)
O3B O 0.7114(4) 0.44283(19) 1.0987(2)
O3_2 O 1.2886(4) 0.55717(19) 0.9013(2)
O4B O 0.2940(4) 0.04676(18) 1.3864(2)
O4A O 0.7940(4) 0.45324(18) 0.8864(2)
O4C O 0.2060(4) 0.54676(18) 1.1136(2)
O4C_2 O 1.2060(4) 0.54676(18) 1.1136(2)
O5B O 0.3131(4) 0.00697(17) 1.1918(2)
O6B O 0.0465(5) 0.1032(2) 1.2338(3)
H8B H -0.012(10) 0.069(5) 1.228(6)
O7 O 0.2309(9) 0.8716(4) 0.0088(3)
O8 O 0.6653(9) 0.9100(3) 0.0048(4)
H9? H 1.1485 0.6776 0.9673
H10? H 1.0834 0.7675 0.9761
N5? N 1.0610(11) 0.7135(5) 0.9774(6)
O9? O 0.8140(14) 0.9102(6) 0.0084(7)
loop_
_geom_bond_atom_site_label_1
_geom_bond_atom_site_label_2
_geom_bond_site_symmetry_1
_geom_bond_site_symmetry_2
Cu1 N2 1_555 1_555
Cu2 N1 1_555 1_555
P1 C1 1_555 1_555
P2 C4 1_555 1_555
C1 C2 1_555 1_555
C2 H1 1_555 1_555
C3 C2 1_555 1_555
H2 C3 1_555 1_555
C4 C3 1_555 1_555
C5 C4 1_555 1_555
H3 C5 1_555 1_555
C6 C1 1_555 1_555
H4 C6 1_555 1_555
C7 N1 1_555 1_555
C8 N2 1_555 1_555
N1 N2 1_555 1_555
N3 C7 1_555 1_555
N4 C8 1_555 1_555
H5 N4 1_555 1_555
H6 N4 1_555 1_555
O1 P1 1_555 1_555
H7 O1 1_555 1_555
O2 P1 1_555 1_555
O3 Cu1 1_555 1_555
O4 P2 1_555 1_555
O5 P2 1_555 1_555
O6 P2 1_555 1_555
H8 O6 1_555 1_555
Cu1A O4 1_555 1_555
Cu1A_2 O4B 1_555 1_555
Cu2_2 O3 1_555 1_555
Cu2A O4 1_555 1_555
Cu2A_2 O4B 1_555 1_555
P1B C1B 1_555 1_555
P2B C4B 1_555 1_555
C1B C2B 1_555 1_555
C2B H1B 1_555 1_555
C3B C2B 1_555 1_555
H2B C3B 1_555 1_555
C4B C3B 1_555 1_555
C5B C4B 1_555 1_555
H3B C5B 1_555 1_555
C6B C1B 1_555 1_555
H4B C6B 1_555 1_555
C7B N1B 1_555 1_555
C8B N2B 1_555 1_555
N1B Cu2_2 1_555 1_555
N1B_2 Cu2 1_555 1_555
N2B Cu1 1_555 1_555
N3B C7B 1_555 1_555
N4B C8B 1_555 1_555
H5B N4B 1_555 1_555
H6B N4B 1_555 1_555
O1B P1B 1_555 1_555
H7B O1B 1_555 1_555
O2B P1B 1_555 1_555
O3B Cu1 1_555 1_555
O3_2 Cu2 1_555 1_555
O4B P2B 1_555 1_555
O4A Cu1 1_555 1_555
O4C Cu1 1_555 1_555
O4C_2 Cu2 1_555 1_555
O5B P2B 1_555 1_555
O6B P2B 1_555 1_555
H8B O6B 1_555 1_555
Cu2 O3B 1_555 1_555
Cu2 O4A 1_555 1_555
P1 O3 1_555 1_555
C5 C6 1_555 1_555
C8 N3 1_555 1_555
Cu2_2 O4C 1_555 1_555
P1B O3B 1_555 1_555
C5B C6B 1_555 1_555
C8B N3B 1_555 1_555
N1B N2B 1_555 1_555

#END
