
#######################################################################
#
#                 Cambridge Crystallographic Data Centre
#                                CCDC 
#
#######################################################################
#
# If this CIF has been generated from an entry in the Cambridge 
# Structural Database, then it will include bibliographic, chemical, 
# crystal, experimental, refinement or atomic coordinate data resulting 
# from the CCDC's data processing and validation procedures.
#
#######################################################################

data_HOKLIE
_chemical_formula_moiety         
'(C2 H8 N1 1+)3n,n(C87 H43 N4 O30 Zn6 3-),n(C3 H7 N1 O1)'
_chemical_name_systematic        
'catena-[tris(Dimethylammonium) bis(\m~6~-9-(4-carboxylatophenyl)-9H-carbazole-3,6-dicarboxylato)-bis(\m~5~-9-(4-carboxylatophenyl)-9H-carbazole-3,6-dicarboxylato)-tris(\m~2~-formato)-hexa-zinc N,N-dimethylformamide solvate]'
_symmetry_cell_setting           monoclinic
_symmetry_space_group_name_H-M   'C 2/c'
_symmetry_Int_Tables_number      15
_space_group_name_Hall           '-C 2yc'
loop_
_symmetry_equiv_pos_site_id
_symmetry_equiv_pos_as_xyz
1 x,y,z
2 -x,y,1/2-z
3 1/2+x,1/2+y,z
4 1/2-x,1/2+y,1/2-z
5 -x,-y,-z
6 x,-y,1/2+z
7 1/2-x,1/2-y,-z
8 1/2+x,1/2-y,1/2+z
_cell_length_a                   20.2644(6)
_cell_length_b                   19.1216(7)
_cell_length_c                   26.8248(8)
_cell_angle_alpha                90
_cell_angle_beta                 101.184(3)
_cell_angle_gamma                90
_cell_volume                     10196.9
_cell_formula_units_Z            4
loop_
_atom_site_label
_atom_site_type_symbol
_atom_site_fract_x
_atom_site_fract_y
_atom_site_fract_z
C45 C 0.5908(12) 0.4062(9) 0.8153(8)
C46 C 0.6783(11) 0.3739(11) 0.7649(10)
N3 N 0.6072(8) 0.3888(6) 0.7636(6)
N4 N 0.3961(18) 0.9661(17) 0.9359(12)
C47 C 0.465(2) 0.939(4) 0.9494(19)
C48 C 0.3697(18) 0.962(2) 0.8817(13)
Zn1 Zn 0.51337(4) 0.51578(5) 0.05510(3)
Zn2 Zn 0.63651(5) 0.40722(6) 0.24283(4)
Zn3 Zn 0.78723(5) 0.34237(5) 0.26384(4)
C1 C 0.6572(5) 0.8042(5) -0.0430(3)
C2 C 0.6214(5) 0.7660(5) -0.0841(3)
H1 H 0.6201 0.7807 -0.1173
C3 C 0.5883(5) 0.7067(5) -0.0743(3)
H2 H 0.5642 0.6808 -0.1011
C4 C 0.5905(4) 0.6843(4) -0.0236(3)
C5 C 0.6252(4) 0.7213(4) 0.0158(3)
H3 H 0.6256 0.7066 0.0489
C6 C 0.6609(4) 0.7821(4) 0.0072(3)
C7 C 0.7057(4) 0.8279(4) 0.0393(3)
C8 C 0.7299(4) 0.8343(4) 0.0915(3)
H4 H 0.7156 0.8032 0.1139
C9 C 0.7750(4) 0.8865(4) 0.1099(3)
C10 C 0.7958(5) 0.9346(5) 0.0770(3)
H5 H 0.8262 0.9696 0.0900
C11 C 0.7717(5) 0.9306(5) 0.0253(4)
H6 H 0.7844 0.9635 0.0035
C12 C 0.7282(5) 0.8767(5) 0.0065(3)
C13 C 0.7050(5) 0.9022(4) -0.0866(3)
C14 C 0.7670(5) 0.9070(6) -0.1004(4)
H7 H 0.8036 0.8827 -0.0821
C15 C 0.7745(5) 0.9473(6) -0.1406(4)
H8 H 0.8164 0.9501 -0.1499
C16 C 0.7207(5) 0.9843(5) -0.1680(3)
C17 C 0.6593(5) 0.9780(5) -0.1540(4)
H9 H 0.6224 1.0021 -0.1720
C18 C 0.6518(5) 0.9369(5) -0.1141(4)
H10 H 0.6096 0.9326 -0.1056
C19 C 0.5567(4) 0.6163(4) -0.0150(4)
C20 C 0.8024(4) 0.8922(5) 0.1655(3)
C21 C 0.7335(7) 1.0324(6) -0.2095(4)
C22 C 0.6376(4) 0.2204(5) 0.0275(3)
C23 C 0.5902(4) 0.2581(6) 0.0474(4)
H11 H 0.5475 0.2668 0.0284
C24 C 0.6093(4) 0.2820(5) 0.0967(3)
H12 H 0.5791 0.3083 0.1110
C25 C 0.6739(4) 0.2672(5) 0.1260(3)
C26 C 0.7194(4) 0.2287(5) 0.1058(3)
H13 H 0.7617 0.2190 0.1250
C27 C 0.7015(4) 0.2043(4) 0.0562(3)
C28 C 0.7361(4) 0.1640(4) 0.0230(3)
C29 C 0.6928(4) 0.1600(4) -0.0242(3)
C30 C 0.7106(5) 0.1256(5) -0.0654(3)
H14 H 0.6808 0.1220 -0.0963
C31 C 0.7749(4) 0.0967(5) -0.0584(3)
H15 H 0.7888 0.0754 -0.0858
C32 C 0.8196(4) 0.0989(4) -0.0109(3)
C33 C 0.7998(4) 0.1340(4) 0.0299(3)
H16 H 0.8291 0.1371 0.0612
C34 C 0.5726(4) 0.1958(6) -0.0594(4)
C35 C 0.5412(5) 0.2581(7) -0.0741(4)
H17 H 0.5587 0.2999 -0.0595
C36 C 0.4822(6) 0.2577(9) -0.1115(4)
H18 H 0.4622 0.3006 -0.1213
C37 C 0.4529(5) 0.2010(11) -0.1339(4)
C38 C 0.4864(6) 0.1370(10) -0.1172(5)
H19 H 0.4678 0.0956 -0.1318
C39 C 0.5455(5) 0.1327(7) -0.0803(5)
H20 H 0.5656 0.0900 -0.0702
C40 C 0.6918(4) 0.2999(5) 0.1774(3)
C41 C 0.8863(4) 0.0652(4) -0.0050(3)
C42 C 0.3906(6) 0.2061(8) -0.1746(6)
C43 C 0.5000 0.3744(9) 0.2500
H21 H 0.5000 0.4231 0.2500
C44 C 0.5600(5) 0.4813(5) 0.1573(3)
H22 H 0.5645 0.4384 0.1419
N1 N 0.6985(4) 0.8617(4) -0.0432(3)
N2 N 0.6321(4) 0.1925(4) -0.0206(3)
O1 O 0.5566(3) 0.6013(3) 0.0307(3)
O2 O 0.5312(3) 0.5802(3) -0.0529(2)
O3 O 0.7860(3) 0.8464(3) 0.1963(2)
O4 O 0.8437(3) 0.9394(4) 0.1823(2)
O5 O 0.7829(5) 1.0260(5) -0.2289(3)
O6 O 0.6909(5) 1.0790(5) -0.2221(4)
O7 O 0.6522(4) 0.3438(4) 0.1885(3)
O8 O 0.7472(3) 0.2824(3) 0.2062(2)
O9 O 0.9223(3) 0.0636(3) 0.0388(2)
O10 O 0.9007(3) 0.0381(3) -0.0443(3)
O11 O 0.3698(6) 0.1468(6) -0.1845(5)
O12 O 0.3642(8) 0.2617(7) -0.1888(7)
O13 O 0.5549(4) 0.3478(4) 0.2500(4)
O14 O 0.5782(4) 0.4852(3) 0.2055(2)
O15 O 0.5372(3) 0.5301(3) 0.1300(2)
O13A O 0.4451(4) 0.3478(4) 0.2500(4)
Zn1A Zn 0.48663(4) 0.51578(5) 0.44490(3)
Zn2A Zn 0.36349(5) 0.40722(6) 0.25717(4)
Zn3A Zn 0.21277(5) 0.34237(5) 0.23616(4)
C1A C 0.3428(5) 0.8042(5) 0.5430(3)
C2A C 0.3786(5) 0.7660(5) 0.5841(3)
H1A H 0.3799 0.7807 0.6173
C3A C 0.4117(5) 0.7067(5) 0.5743(3)
H2A H 0.4358 0.6808 0.6011
C4A C 0.4095(4) 0.6843(4) 0.5236(3)
C5A C 0.3748(4) 0.7213(4) 0.4842(3)
H3A H 0.3744 0.7066 0.4511
C6A C 0.3391(4) 0.7821(4) 0.4928(3)
C7A C 0.2943(4) 0.8279(4) 0.4607(3)
C8A C 0.2701(4) 0.8343(4) 0.4085(3)
H4A H 0.2844 0.8032 0.3861
C9A C 0.2250(4) 0.8865(4) 0.3901(3)
C10A C 0.2042(5) 0.9346(5) 0.4230(3)
H5A H 0.1738 0.9696 0.4100
C11A C 0.2283(5) 0.9306(5) 0.4747(4)
H6A H 0.2156 0.9635 0.4965
C12A C 0.2718(5) 0.8767(5) 0.4935(3)
C13A C 0.2950(5) 0.9022(4) 0.5866(3)
C14A C 0.2330(5) 0.9070(6) 0.6004(4)
H7A H 0.1964 0.8827 0.5821
C15A C 0.2255(5) 0.9473(6) 0.6406(4)
H8A H 0.1836 0.9501 0.6499
C16A C 0.2793(5) 0.9843(5) 0.6680(3)
C17A C 0.3407(5) 0.9780(5) 0.6540(4)
H9A H 0.3776 1.0021 0.6720
C18A C 0.3482(5) 0.9369(5) 0.6141(4)
H10A H 0.3904 0.9326 0.6056
C19A C 0.4433(4) 0.6163(4) 0.5150(4)
C20A C 0.1976(4) 0.8922(5) 0.3345(3)
C21A C 0.2665(7) 1.0324(6) 0.7095(4)
C22A C 0.3624(4) 0.2204(5) 0.4725(3)
C23A C 0.4098(4) 0.2581(6) 0.4526(4)
H11A H 0.4525 0.2668 0.4716
C24A C 0.3907(4) 0.2820(5) 0.4033(3)
H12A H 0.4209 0.3083 0.3890
C25A C 0.3261(4) 0.2672(5) 0.3740(3)
C26A C 0.2806(4) 0.2287(5) 0.3942(3)
H13A H 0.2383 0.2190 0.3750
C27A C 0.2985(4) 0.2043(4) 0.4438(3)
C28A C 0.2639(4) 0.1640(4) 0.4770(3)
C29A C 0.3072(4) 0.1600(4) 0.5242(3)
C30A C 0.2894(5) 0.1256(5) 0.5654(3)
H14A H 0.3192 0.1220 0.5963
C31A C 0.2251(4) 0.0967(5) 0.5584(3)
H15A H 0.2112 0.0754 0.5858
C32A C 0.1804(4) 0.0989(4) 0.5109(3)
C33A C 0.2002(4) 0.1340(4) 0.4701(3)
H16A H 0.1709 0.1371 0.4388
C34A C 0.4274(4) 0.1958(6) 0.5594(4)
C35A C 0.4588(5) 0.2581(7) 0.5741(4)
H17A H 0.4413 0.2999 0.5595
C36A C 0.5178(6) 0.2577(9) 0.6115(4)
H18A H 0.5378 0.3006 0.6213
C37A C 0.5471(5) 0.2010(11) 0.6339(4)
C38A C 0.5136(6) 0.1370(10) 0.6172(5)
H19A H 0.5322 0.0956 0.6318
C39A C 0.4545(5) 0.1327(7) 0.5803(5)
H20A H 0.4344 0.0900 0.5702
C40A C 0.3082(4) 0.2999(5) 0.3226(3)
C41A C 0.1137(4) 0.0652(4) 0.5050(3)
C42A C 0.6094(6) 0.2061(8) 0.6746(6)
C44A C 0.4400(5) 0.4813(5) 0.3427(3)
H22A H 0.4355 0.4384 0.3581
N1A N 0.3015(4) 0.8617(4) 0.5432(3)
N2A N 0.3679(4) 0.1925(4) 0.5206(3)
O1A O 0.4434(3) 0.6013(3) 0.4693(3)
O2A O 0.4688(3) 0.5802(3) 0.5529(2)
O3A O 0.2140(3) 0.8464(3) 0.3037(2)
O4A O 0.1563(3) 0.9394(4) 0.3177(2)
O5A O 0.2171(5) 1.0260(5) 0.7289(3)
O6A O 0.3091(5) 1.0790(5) 0.7221(4)
O7A O 0.3478(4) 0.3438(4) 0.3115(3)
O8A O 0.2528(3) 0.2824(3) 0.2938(2)
O9A O 0.0777(3) 0.0636(3) 0.4612(2)
O10A O 0.0993(3) 0.0381(3) 0.5443(3)
O11A O 0.6302(6) 0.1468(6) 0.6845(5)
O12A O 0.6358(8) 0.2617(7) 0.6888(7)
O14A O 0.4218(4) 0.4852(3) 0.2945(2)
O15A O 0.4628(3) 0.5301(3) 0.3700(2)
Zn1B Zn 1.01337(4) 0.01578(5) 0.05510(3)
Zn1C Zn -0.01337(4) 0.01578(5) 0.44490(3)
Zn1D Zn 0.48663(4) 0.48422(5) -0.05510(3)
Zn1E Zn 0.51337(4) 0.48422(5) 0.55510(3)
Zn1F Zn 0.98663(4) -0.01578(5) -0.05510(3)
Zn1G Zn 0.01337(4) -0.01578(5) 0.55510(3)
Zn2B Zn 0.13651(5) 0.90722(6) 0.24283(4)
Zn2C Zn 0.86349(5) 0.90722(6) 0.25717(4)
Zn2F Zn 0.86349(5) 1.09278(6) -0.24283(4)
Zn2G Zn 0.13651(5) 1.09278(6) 0.74283(4)
Zn3B Zn 0.28723(5) 0.84237(5) 0.26384(4)
Zn3C Zn 0.71277(5) 0.84237(5) 0.23616(4)
Zn3F Zn 0.71277(5) 0.15763(5) 0.73616(4)
Zn3F_2 Zn 0.71277(5) 1.15763(5) -0.26384(4)
Zn3G Zn 0.28723(5) 0.15763(5) -0.23616(4)
Zn3G_2 Zn 0.28723(5) 1.15763(5) 0.76384(4)
O2D O 0.4688(3) 0.4198(3) 0.0529(2)
O2E O 0.5312(3) 0.4198(3) 0.4471(2)
O3B O 0.2860(3) 0.3464(3) 0.1963(2)
O3C O 0.7140(3) 0.3464(3) 0.3037(2)
O4B O 0.3437(3) 0.4394(4) 0.1823(2)
O4C O 0.6563(3) 0.4394(4) 0.3177(2)
O5F O 0.7171(5) 0.4740(5) 0.2289(3)
O5G O 0.2829(5) 0.4740(5) 0.2711(3)
O6F O 0.8091(5) 0.4210(5) 0.2221(4)
O6G O 0.1909(5) 0.4210(5) 0.2779(4)
O9B O 0.4223(3) 0.5636(3) 0.0388(2)
O9C O 0.5777(3) 0.5636(3) 0.4612(2)
O10F O 0.5993(3) 0.4619(3) 0.0443(3)
O10G O 0.4007(3) 0.4619(3) 0.4557(3)
O11F O 0.1302(6) 0.3532(6) 0.1845(5)
O11G O 0.8698(6) 0.3532(6) 0.3155(5)
O16? O 0.5000 0.2908(8) 0.7500
C49? C 0.5000 0.0961(9) 0.7500
N5? N 0.5256(12) 0.1623(8) 0.7705(9)
C50? C 0.5000 0.2268(9) 0.7500
C51? C 0.5838(12) 0.1943(14) 0.8021(10)
loop_
_geom_bond_atom_site_label_1
_geom_bond_atom_site_label_2
_geom_bond_site_symmetry_1
_geom_bond_site_symmetry_2
Zn1 O1 1_555 1_555
Zn2 O7 1_555 1_555
Zn3 O8 1_555 1_555
C1 C2 1_555 1_555
C2 H1 1_555 1_555
C3 C2 1_555 1_555
H2 C3 1_555 1_555
C4 C3 1_555 1_555
C5 C4 1_555 1_555
H3 C5 1_555 1_555
C6 C1 1_555 1_555
C7 C6 1_555 1_555
C8 C7 1_555 1_555
H4 C8 1_555 1_555
C9 C8 1_555 1_555
C10 C9 1_555 1_555
H5 C10 1_555 1_555
C11 C10 1_555 1_555
H6 C11 1_555 1_555
C12 C7 1_555 1_555
C13 C14 1_555 1_555
C14 H7 1_555 1_555
C15 C14 1_555 1_555
H8 C15 1_555 1_555
C16 C15 1_555 1_555
C17 C16 1_555 1_555
H9 C17 1_555 1_555
C18 C13 1_555 1_555
H10 C18 1_555 1_555
C19 C4 1_555 1_555
C20 C9 1_555 1_555
C21 C16 1_555 1_555
C22 C23 1_555 1_555
C23 H11 1_555 1_555
C24 C23 1_555 1_555
H12 C24 1_555 1_555
C25 C24 1_555 1_555
C26 C25 1_555 1_555
H13 C26 1_555 1_555
C27 C22 1_555 1_555
C28 C27 1_555 1_555
C29 C28 1_555 1_555
C30 C29 1_555 1_555
H14 C30 1_555 1_555
C31 C30 1_555 1_555
H15 C31 1_555 1_555
C32 C31 1_555 1_555
C33 C28 1_555 1_555
H16 C33 1_555 1_555
C34 C35 1_555 1_555
C35 H17 1_555 1_555
C36 C35 1_555 1_555
H18 C36 1_555 1_555
C37 C36 1_555 1_555
C38 C37 1_555 1_555
H19 C38 1_555 1_555
C39 C34 1_555 1_555
H20 C39 1_555 1_555
C40 C25 1_555 1_555
C41 C32 1_555 1_555
C42 C37 1_555 1_555
C43 H21 1_555 1_555
C44 H22 1_555 1_555
N1 C1 1_555 1_555
N2 C22 1_555 1_555
O1 C19 1_555 1_555
O2 C19 1_555 1_555
O3 C20 1_555 1_555
O4 C20 1_555 1_555
O5 C21 1_555 1_555
O6 C21 1_555 1_555
O7 C40 1_555 1_555
O8 C40 1_555 1_555
O9 C41 1_555 1_555
O10 C41 1_555 1_555
O11 C42 1_555 1_555
O12 C42 1_555 1_555
O13 Zn2 1_555 1_555
O14 Zn2 1_555 1_555
O15 Zn1 1_555 1_555
C45 N3 1_555 1_555
C46 N3 1_555 1_555
N4 C47 1_555 1_555
C48 N4 1_555 1_555
O13A C43 1_555 1_555
Zn1A O1A 1_555 1_555
Zn2A O13A 1_555 1_555
Zn3A O8A 1_555 1_555
C1A C2A 1_555 1_555
C2A H1A 1_555 1_555
C3A C2A 1_555 1_555
H2A C3A 1_555 1_555
C4A C3A 1_555 1_555
C5A C4A 1_555 1_555
H3A C5A 1_555 1_555
C6A C1A 1_555 1_555
C7A C6A 1_555 1_555
C8A C7A 1_555 1_555
H4A C8A 1_555 1_555
C9A C8A 1_555 1_555
C10A C9A 1_555 1_555
H5A C10A 1_555 1_555
C11A C10A 1_555 1_555
H6A C11A 1_555 1_555
C12A C7A 1_555 1_555
C13A C14A 1_555 1_555
C14A H7A 1_555 1_555
C15A C14A 1_555 1_555
H8A C15A 1_555 1_555
C16A C15A 1_555 1_555
C17A C16A 1_555 1_555
H9A C17A 1_555 1_555
C18A C13A 1_555 1_555
H10A C18A 1_555 1_555
C19A C4A 1_555 1_555
C20A C9A 1_555 1_555
C21A C16A 1_555 1_555
C22A C23A 1_555 1_555
C23A H11A 1_555 1_555
C24A C23A 1_555 1_555
H12A C24A 1_555 1_555
C25A C24A 1_555 1_555
C26A C25A 1_555 1_555
H13A C26A 1_555 1_555
C27A C22A 1_555 1_555
C28A C27A 1_555 1_555
C29A C28A 1_555 1_555
C30A C29A 1_555 1_555
H14A C30A 1_555 1_555
C31A C30A 1_555 1_555
H15A C31A 1_555 1_555
C32A C31A 1_555 1_555
C33A C28A 1_555 1_555
H16A C33A 1_555 1_555
C34A C35A 1_555 1_555
C35A H17A 1_555 1_555
C36A C35A 1_555 1_555
H18A C36A 1_555 1_555
C37A C36A 1_555 1_555
C38A C37A 1_555 1_555
H19A C38A 1_555 1_555
C39A C34A 1_555 1_555
H20A C39A 1_555 1_555
C40A C25A 1_555 1_555
C41A C32A 1_555 1_555
C42A C37A 1_555 1_555
C44A H22A 1_555 1_555
N1A C1A 1_555 1_555
N2A C22A 1_555 1_555
O1A C19A 1_555 1_555
O2A C19A 1_555 1_555
O3A C20A 1_555 1_555
O4A C20A 1_555 1_555
O5A C21A 1_555 1_555
O6A C21A 1_555 1_555
O7A Zn2A 1_555 1_555
O8A C40A 1_555 1_555
O9A C41A 1_555 1_555
O10A C41A 1_555 1_555
O11A C42A 1_555 1_555
O12A C42A 1_555 1_555
O14A Zn2A 1_555 1_555
O15A Zn1A 1_555 1_555
Zn1B O9 1_555 1_555
Zn1C O9A 1_555 1_555
Zn1D O2 1_555 1_555
Zn1E O2A 1_555 1_555
Zn1F O10 1_555 1_555
Zn1G O10A 1_555 1_555
Zn2B O3A 1_555 1_555
Zn2C O3 1_555 1_555
Zn2F O5 1_555 1_555
Zn2G O5A 1_555 1_555
Zn3B O3A 1_555 1_555
Zn3C O3 1_555 1_555
Zn3F O11A 1_555 1_555
Zn3F_2 O6 1_555 1_555
Zn3G O11 1_555 1_555
Zn3G_2 O6A 1_555 1_555
O2D Zn1 1_555 1_555
O2E Zn1A 1_555 1_555
O3B Zn2A 1_555 1_555
O3C Zn2 1_555 1_555
O4B Zn2A 1_555 1_555
O4C Zn2 1_555 1_555
O5F Zn2 1_555 1_555
O5G Zn2A 1_555 1_555
O6F Zn3 1_555 1_555
O6G Zn3A 1_555 1_555
O9B Zn1 1_555 1_555
O9C Zn1A 1_555 1_555
O10F Zn1 1_555 1_555
O10G Zn1A 1_555 1_555
O11F Zn3A 1_555 1_555
O11G Zn3 1_555 1_555
Zn3 O3C 1_555 1_555
C5 C6 1_555 1_555
C11 C12 1_555 1_555
C12 N1 1_555 1_555
C13 N1 1_555 1_555
C17 C18 1_555 1_555
C26 C27 1_555 1_555
C29 N2 1_555 1_555
C32 C33 1_555 1_555
C34 N2 1_555 1_555
C38 C39 1_555 1_555
C43 O13 1_555 1_555
C44 O14 1_555 1_555
C44 O15 1_555 1_555
O4 Zn2C 1_555 1_555
Zn3A O3B 1_555 1_555
C5A C6A 1_555 1_555
C11A C12A 1_555 1_555
C12A N1A 1_555 1_555
C13A N1A 1_555 1_555
C17A C18A 1_555 1_555
C26A C27A 1_555 1_555
C29A N2A 1_555 1_555
C32A C33A 1_555 1_555
C34A N2A 1_555 1_555
C38A C39A 1_555 1_555
C40A O7A 1_555 1_555
C44A O14A 1_555 1_555
C44A O15A 1_555 1_555
O4A Zn2B 1_555 1_555

#END
