
#######################################################################
#
#                 Cambridge Crystallographic Data Centre
#                                CCDC 
#
#######################################################################
#
# If this CIF has been generated from an entry in the Cambridge 
# Structural Database, then it will include bibliographic, chemical, 
# crystal, experimental, refinement or atomic coordinate data resulting 
# from the CCDC's data processing and validation procedures.
#
#######################################################################

data_SEJFOE
_chemical_formula_moiety         
'(C134 H135 Co7 N3 O33)n,2n(C4 H9 N1 O1),4n(H2 O1)'
_chemical_name_systematic        
"catena-((\m~4~-4',4''-benzene-1,3,5-triyl-tribenzoato)-bis(\m~3~-hydroxo)-(\m~3~-4',4''-benzene-1,3,5-triyl-tribenzoato)-hexakis(\m~2~-acetato)-tris(dimethylacetamide)-bis(4',4''-benzene-1,3,5-triyl-tribenzoato)-tetrahydroxy-(acetato-O)-hepta-cobalt dimethylacetamide solvate tetrahydrate)"
_symmetry_cell_setting           rhombohedral
_symmetry_space_group_name_H-M   'R -3'
_symmetry_Int_Tables_number      148
_space_group_name_Hall           '-R 3'
loop_
_symmetry_equiv_pos_site_id
_symmetry_equiv_pos_as_xyz
1 x,y,z
2 -y,x-y,z
3 -x+y,-x,z
4 1/3+x,2/3+y,2/3+z
5 1/3-y,2/3+x-y,2/3+z
6 1/3-x+y,2/3-x,2/3+z
7 2/3+x,1/3+y,1/3+z
8 2/3-y,1/3+x-y,1/3+z
9 2/3-x+y,1/3-x,1/3+z
10 -x,-y,-z
11 y,-x+y,-z
12 x-y,x,-z
13 2/3-x,1/3-y,1/3-z
14 2/3+y,1/3-x+y,1/3-z
15 2/3+x-y,1/3+x,1/3-z
16 1/3-x,2/3-y,2/3-z
17 1/3+y,2/3-x+y,2/3-z
18 1/3+x-y,2/3+x,2/3-z
_cell_length_a                   36.820(5)
_cell_length_b                   36.820(5)
_cell_length_c                   45.036(9)
_cell_angle_alpha                90
_cell_angle_beta                 90
_cell_angle_gamma                120
_cell_volume                     52875.9
_exptl_crystal_colour            purple
_exptl_crystal_description       block
_cell_formula_units_Z            18
loop_
_atom_site_label
_atom_site_type_symbol
_atom_site_fract_x
_atom_site_fract_y
_atom_site_fract_z
O39 O 0.6667 0.3333 0.3333
O40 O 0.3333 0.6667 0.0651(12)
O41 O -0.3333 0.3333 0.270(2)
Co1 Co 0.5000 0.5000 0.0000
Co2 Co 0.502167(15) 0.502891(15) 0.077643(11)
Co3 Co 0.530690(14) 0.466680(14) 0.136650(11)
Co4 Co 0.168240(13) 0.581610(14) -0.164540(11)
Co5 Co 0.272910(14) 0.632450(14) -0.192260(11)
Co6 Co 0.532617(15) 0.559597(15) 0.140870(11)
Co7 Co 0.579650(17) 0.660890(17) 0.169080(13)
O1 O 0.50373(7) 0.50120(7) 0.12309(5)
H1 H 0.4741 0.4864 0.1303
O2 O 0.3333 0.6667 -0.20638(9)
H2 H 0.3333 0.6667 -0.2286
O3 O 0.28079(8) 0.61835(8) -0.15209(6)
O4 O 0.21385(9) 0.56950(9) -0.14885(7)
O6 O 0.51342(8) 0.58806(9) 0.11308(6)
O7 O 0.52382(8) 0.63740(9) 0.14587(7)
O8 O 0.45109(8) 0.50662(9) 0.06992(6)
O9 O 0.47788(9) 0.53291(9) 0.02598(7)
C1 C 0.27256(12) 0.56743(14) -0.01412(9)
C2 C 0.24161(12) 0.55830(14) 0.00762(9)
H3 H 0.2185 0.5620 0.0030
C3 C 0.24413(13) 0.54383(14) 0.03600(9)
C4 C 0.27824(13) 0.53882(14) 0.04219(9)
H4 H 0.2802 0.5288 0.0612
C5 C 0.31029(12) 0.54819(14) 0.02096(9)
C6 C 0.30602(12) 0.56188(13) -0.00739(9)
H5 H 0.3266 0.5674 -0.0221
C7 C 0.26654(12) 0.57813(13) -0.04456(9)
C8 C 0.30072(12) 0.59936(13) -0.06436(9)
H6 H 0.3284 0.6105 -0.0569
C9 C 0.29559(11) 0.60437(12) -0.09332(9)
H7 H 0.3193 0.6187 -0.1059
C10 C 0.25533(11) 0.58843(12) -0.10483(9)
C11 C 0.22135(14) 0.56664(18) -0.08623(11)
H8 H 0.1937 0.5543 -0.0940
C12 C 0.22722(13) 0.56263(15) -0.05659(10)
H9 H 0.2034 0.5487 -0.0440
C13 C 0.21029(13) 0.53193(15) 0.05837(10)
C14 C 0.17158(18) 0.5251(2) 0.05031(13)
H10 H 0.1668 0.5293 0.0302
C15 C 0.13912(16) 0.5121(2) 0.07061(14)
H11 H 0.1128 0.5081 0.0641
C16 C 0.14362(12) 0.50512(13) 0.09892(10)
C17 C 0.18241(16) 0.5137(2) 0.10793(12)
H12 H 0.1869 0.5108 0.1283
C18 C 0.21624(17) 0.5270(2) 0.08789(12)
H13 H 0.2429 0.5324 0.0948
C19 C 0.34537(12) 0.53998(13) 0.02705(9)
C20 C 0.3467(2) 0.5208(3) 0.05231(14)
H14 H 0.3245 0.5119 0.0663
C21 C 0.38028(19) 0.5138(3) 0.05836(12)
H15 H 0.3807 0.5009 0.0765
C22 C 0.41187(13) 0.52526(14) 0.03865(9)
C23 C 0.4088(2) 0.5425(3) 0.01263(13)
H16 H 0.4306 0.5510 -0.0016
C24 C 0.3753(2) 0.5479(3) 0.00633(13)
H17 H 0.3730 0.5573 -0.0128
C25 C 0.24914(13) 0.59191(15) -0.13748(10)
C27 C 0.51221(11) 0.62025(11) 0.12086(8)
C28 C 0.44921(16) 0.52010(17) 0.04509(10)
O11 O 0.12852(9) 0.51695(9) -0.16602(7)
O13 O 0.48411(8) 0.40842(8) 0.13428(6)
O14 O 0.20862(9) 0.64708(9) -0.16352(7)
O16 O 0.25649(8) 0.67478(8) -0.19888(7)
O17 O 0.60965(9) 0.64309(9) 0.13848(7)
O18 O 0.59203(8) 0.57635(9) 0.13813(7)
C30 C 0.15434(12) 0.36114(11) -0.12855(11)
C31 C 0.12323(12) 0.31897(11) -0.13012(10)
H18 H 0.0948 0.3119 -0.1328
C32 C 0.13285(12) 0.28726(12) -0.12789(10)
C33 C 0.17433(12) 0.29768(12) -0.12469(10)
H19 H 0.1808 0.2759 -0.1229
C34 C 0.20682(12) 0.33918(12) -0.12408(11)
C35 C 0.19581(12) 0.37043(11) -0.12488(10)
H20 H 0.2172 0.3989 -0.1229
C36 C 0.14310(12) 0.39436(11) -0.13177(10)
C37 C 0.17126(13) 0.43334(13) -0.14378(12)
H21 H 0.1992 0.4398 -0.1479
C38 C 0.15927(13) 0.46346(13) -0.14993(12)
H22 H 0.1782 0.4890 -0.1596
C39 C 0.11968(12) 0.45560(11) -0.14185(10)
C40 C 0.09155(12) 0.41723(12) -0.12952(10)
H23 H 0.0640 0.4112 -0.1247
C41 C 0.10354(12) 0.38737(11) -0.12414(11)
H24 H 0.0841 0.3616 -0.1150
C42 C 0.09896(12) 0.24204(11) -0.13173(10)
C43 C 0.06425(13) 0.23129(13) -0.14992(11)
H25 H 0.0609 0.2531 -0.1583
C44 C 0.03468(13) 0.19006(13) -0.15608(12)
H26 H 0.0122 0.1838 -0.1693
C45 C 0.03821(12) 0.15752(12) -0.14252(11)
C46 C 0.07276(12) 0.16783(12) -0.12519(11)
H27 H 0.0759 0.1461 -0.1165
C47 C 0.10262(13) 0.20860(12) -0.12026(12)
H28 H 0.1266 0.2145 -0.1087
C48 C 0.25152(12) 0.35019(12) -0.12448(11)
C49 C 0.26303(13) 0.32171(13) -0.13418(12)
H29 H 0.2416 0.2940 -0.1390
C50 C 0.30440(13) 0.33200(13) -0.13713(12)
H30 H 0.3113 0.3113 -0.1427
C51 C 0.33658(13) 0.37395(12) -0.13175(10)
C52 C 0.32594(13) 0.40211(14) -0.12087(12)
H31 H 0.3474 0.4297 -0.1159
C53 C 0.28336(13) 0.39061(12) -0.11691(12)
H32 H 0.2764 0.4103 -0.1091
C54 C 0.10747(13) 0.48839(12) -0.14722(12)
C56 C 0.22698(15) 0.67357(14) -0.18262(13)
C58 C 0.61796(12) 0.61475(12) 0.13677(9)
O19 O 0.54382(8) 0.48739(8) 0.17776(6)
O20 O 0.12304(10) 0.59440(10) -0.17872(7)
O22 O 0.24492(8) 0.58728(9) -0.22191(7)
O23 O 0.18221(10) 0.57684(10) -0.20833(7)
O25 O 0.55615(8) 0.55197(8) 0.06833(6)
O26 O 0.55444(9) 0.52112(9) 0.02485(7)
C59 C 0.61469(14) 0.54678(18) 0.31144(10)
C60 C 0.62612(14) 0.52638(17) 0.33215(10)
H33 H 0.6268 0.5019 0.3264
C61 C 0.63659(14) 0.54103(16) 0.36137(10)
C62 C 0.63709(14) 0.57824(16) 0.36836(10)
H34 H 0.6446 0.5890 0.3879
C63 C 0.62693(12) 0.60030(14) 0.34769(10)
C64 C 0.61598(15) 0.58337(18) 0.31952(11)
H35 H 0.6090 0.5977 0.3051
C65 C 0.60330(14) 0.5297(2) 0.28059(11)
C66 C 0.57300(15) 0.5329(2) 0.26511(12)
H36 H 0.5587 0.5454 0.2742
C67 C 0.56284(14) 0.51785(18) 0.23620(10)
H37 H 0.5419 0.5207 0.2259
C68 C 0.58189(13) 0.49919(17) 0.22222(11)
C69 C 0.61640(17) 0.5005(2) 0.23591(13)
H38 H 0.6329 0.4917 0.2252
C70 C 0.62730(17) 0.5145(2) 0.26530(14)
H39 H 0.6500 0.5139 0.2748
C71 C 0.65027(13) 0.51997(15) 0.38353(10)
C72 C 0.63718(15) 0.47770(17) 0.38098(11)
H40 H 0.6190 0.4617 0.3653
C73 C 0.65057(14) 0.45883(17) 0.40122(12)
H41 H 0.6411 0.4297 0.3993
C74 C 0.67717(13) 0.48084(13) 0.42410(9)
C75 C 0.6910(2) 0.5222(3) 0.42609(16)
H42 H 0.7118 0.5389 0.4403
C76 C 0.6745(2) 0.5405(3) 0.40708(16)
H43 H 0.6807 0.5684 0.4109
C77 C 0.63103(13) 0.64112(16) 0.35554(10)
C78 C 0.64800(17) 0.6614(2) 0.38242(12)
H44 H 0.6562 0.6480 0.3967
C79 C 0.65310(16) 0.6998(2) 0.38884(11)
H45 H 0.6643 0.7123 0.4076
C80 C 0.64245(12) 0.72075(13) 0.36894(9)
C81 C 0.62194(16) 0.70058(17) 0.34284(11)
H46 H 0.6114 0.7132 0.3296
C82 C 0.61725(16) 0.66092(19) 0.33663(12)
H47 H 0.6040 0.6473 0.3186
C83 C 0.57333(14) 0.48549(15) 0.19048(10)
C85 C 0.20633(13) 0.56641(14) -0.22188(9)
C86 C 0.57079(15) 0.55086(17) 0.04317(10)
O28 O 0.55853(10) 0.60605(10) 0.19259(7)
O29 O 0.50133(9) 0.54797(10) 0.17905(7)
O30 O 0.49142(9) 0.44599(8) 0.06939(6)
O31 O 0.46622(10) 0.44627(9) 0.02476(7)
O33 O 0.15337(10) 0.58689(10) -0.12049(7)
O35 O 0.57698(8) 0.48598(8) 0.10895(6)
C88 C 0.45823(14) 0.55938(13) 0.31761(9)
C89 C 0.42107(13) 0.52276(12) 0.32595(9)
H48 H 0.4075 0.5006 0.3120
C90 C 0.40364(13) 0.51825(12) 0.35438(9)
C91 C 0.42445(14) 0.55008(12) 0.37487(10)
H49 H 0.4139 0.5466 0.3945
C92 C 0.46149(13) 0.58797(12) 0.36687(9)
C93 C 0.47743(13) 0.59161(12) 0.33879(9)
H50 H 0.5022 0.6167 0.3335
C94 C 0.47392(14) 0.56393(13) 0.28638(10)
C95 C 0.51505(18) 0.59407(15) 0.27910(11)
H51 H 0.5334 0.6117 0.2942
C96 C 0.52950(19) 0.59876(15) 0.25040(11)
H52 H 0.5569 0.6208 0.2458
C97 C 0.50507(13) 0.57222(13) 0.22839(10)
C98 C 0.4641(2) 0.54380(19) 0.23470(12)
H53 H 0.4461 0.5267 0.2193
C99 C 0.4487(3) 0.5398(2) 0.26313(14)
H54 H 0.4201 0.5201 0.2669
C100 C 0.36238(15) 0.48089(13) 0.36178(10)
C101 C 0.3379(3) 0.45504(19) 0.33946(14)
H55 H 0.3480 0.4606 0.3196
C102 C 0.2977(3) 0.4199(2) 0.34551(14)
H56 H 0.2829 0.3998 0.3304
C103 C 0.28075(16) 0.41508(13) 0.37258(10)
C104 C 0.30471(15) 0.44115(12) 0.39519(10)
H57 H 0.2935 0.4375 0.4147
C105 C 0.34544(17) 0.47284(13) 0.38944(10)
H58 H 0.3621 0.4895 0.4055
C106 C 0.48109(13) 0.62340(11) 0.38795(9)
C107 C 0.45851(17) 0.63060(13) 0.40914(11)
H59 H 0.4299 0.6100 0.4121
C108 C 0.47569(16) 0.66651(13) 0.42624(11)
H60 H 0.4588 0.6707 0.4402
C109 C 0.51775(13) 0.69654(12) 0.42305(10)
C110 C 0.54074(14) 0.68972(12) 0.40198(10)
H61 H 0.5694 0.7103 0.3991
C111 C 0.52333(15) 0.65393(13) 0.38504(11)
H62 H 0.5403 0.6498 0.3711
C112 C 0.52244(12) 0.57620(14) 0.19799(10)
C113 C 0.47541(16) 0.42927(14) 0.04423(11)
C115 C 0.13063(16) 0.59749(15) -0.10725(11)
O36 O 0.63223(12) 0.68484(12) 0.19602(10)
C118 C 0.6539(3) 0.6334(3) 0.2153(2)
H63 H 0.6647 0.6302 0.2344
H64 H 0.6748 0.6394 0.1998
H65 H 0.6280 0.6074 0.2105
C119 C 0.6810(3) 0.6806(3) 0.26497(18)
H66 H 0.6854 0.6963 0.2835
H67 H 0.7082 0.6887 0.2559
H68 H 0.6661 0.6505 0.2693
N2 N 0.6544(5) 0.6642(5) 0.2373(4)
C121 C 0.6438(6) 0.6907(9) 0.2229(4)
C122 C 0.6477(3) 0.7264(3) 0.2456(3)
H72 H 0.6578 0.7228 0.2649
H73 H 0.6202 0.7241 0.2481
H74 H 0.6676 0.7542 0.2376
O37 O 0.54855(11) 0.67956(12) 0.19954(8)
N3 N 0.49330(16) 0.6890(2) 0.19659(13)
C125 C 0.5343(2) 0.7032(3) 0.19627(16)
C126 C 0.5648(3) 0.7520(3) 0.1924(2)
H81 H 0.5593 0.7671 0.2080
H82 H 0.5601 0.7608 0.1729
H83 H 0.5939 0.7582 0.1937
C127 C 0.4657(3) 0.6431(2) 0.2005(2)
H84 H 0.4720 0.6283 0.1851
H85 H 0.4363 0.6359 0.1990
H86 H 0.4707 0.6348 0.2201
C128 C 0.4741(3) 0.7147(4) 0.1938(3)
H87 H 0.4738 0.7266 0.2132
H88 H 0.4453 0.6975 0.1867
H89 H 0.4901 0.7374 0.1797
O38 O 0.60195(11) 0.71427(12) 0.14343(9)
N4 N 0.6417(2) 0.7383(2) 0.10384(18)
C129 C 0.63460(19) 0.7376(2) 0.13271(18)
C130 C 0.6725(3) 0.7704(3) 0.15117(19)
H90 H 0.6719 0.7967 0.1519
H91 H 0.6986 0.7754 0.1419
H92 H 0.6707 0.7598 0.1714
C131 C 0.6077(3) 0.7040(3) 0.08541(15)
H93 H 0.6013 0.6766 0.0933
H94 H 0.6171 0.7066 0.0648
H95 H 0.5824 0.7065 0.0862
C132 C 0.6800(3) 0.7684(3) 0.0869(2)
H96 H 0.6799 0.7947 0.0839
H97 H 0.6802 0.7562 0.0676
H98 H 0.7051 0.7740 0.0981
Co5B Co 0.359540(20) 0.727090(14) -0.192260(11)
Co5A Co 0.367550(14) 0.640460(20) -0.192260(11)
O9I O 0.52212(9) 0.46709(9) -0.02598(7)
C16A C 0.49488(13) 0.63850(18) 0.09892(10)
C27B C 0.10804(16) 0.48779(11) 0.12086(8)
O13K O 0.07569(11) 0.48411(8) -0.13428(6)
C45Q C 0.21402(17) 0.70488(12) -0.19081(11)
C51I C 0.66342(13) 0.62605(12) 0.13175(10)
C54J C 0.48839(12) 0.38092(18) 0.14722(12)
C56P C 0.00690(14) 0.11326(21) -0.15071(13)
C58I C 0.38204(12) 0.38525(12) -0.13677(9)
O20J O 0.59440(10) 0.47136(14) 0.17872(7)
O26I O 0.44556(9) 0.47888(9) -0.02485(7)
C74G C 0.18583(13) 0.52966(18) -0.24257(9)
C80D C 0.61258(13) 0.58837(18) 0.03561(9)
C83K C 0.08784(21) 0.57333(14) -0.19048(10)
C85E C 0.69341(19) 0.46034(13) 0.44479(9)
C86H C 0.64674(23) 0.76254(15) 0.37650(10)
O31I O 0.53378(10) 0.55373(9) -0.02476(7)
O35K O 0.09100(11) 0.57698(8) -0.10895(6)
C103E C 0.46766(21) 0.38592(16) 0.03925(10)
C109L C 0.14892(13) 0.63679(12) -0.08972(10)
C113G C 0.23740(14) 0.37947(21) 0.37756(11)
C115J C 0.59749(15) 0.46686(22) 0.10725(11)
C115L C 0.53604(16) 0.73584(15) 0.44058(11)
O5? O 0.2195(4) 0.6123(4) -0.1390(3)
O10? O 0.4460(4) 0.4866(4) 0.0257(3)
C26? C 0.2482(5) 0.6101(6) -0.1342(4)
C29? C 0.4362(7) 0.5004(8) 0.0443(5)
O12? O 0.8546(5) 0.4696(5) 0.1367(4)
O15? O 1.0372(4) 0.8920(4) 0.1371(3)
C55? C 0.8907(11) 0.5108(11) 0.1296(9)
C57? C 1.0012(6) 0.8857(6) 0.1385(5)
O21? O 0.8853(4) 0.4536(4) 0.1927(3)
O24? O 0.7815(4) 0.3107(4) 0.4767(3)
O27? O 1.1137(5) 0.3173(5) 0.3578(4)
C84? C 0.9177(6) 0.4479(7) 0.1963(5)
C87? C 1.1031(6) 0.3352(7) 0.3795(5)
O32? O 0.1824(4) 0.7960(4) 0.3595(3)
O34? O 0.1979(4) 0.4762(4) 0.4753(3)
C114? C 0.1657(8) 0.7727(7) 0.3796(5)
C116? C 0.1875(7) 0.4599(6) 0.4500(5)
N1? N 0.0334(3) 0.3434(3) 0.2449(2)
C117? C 0.0257(3) 0.3554(3) 0.2173(2)
C120? C 0.0787(3) 0.3523(3) 0.2456(3)
H69? H 0.0848 0.3451 0.2652
H70? H 0.0979 0.3821 0.2416
H71? H 0.0825 0.3354 0.2304
C123? C -0.0004(3) 0.3190(3) 0.26497(18)
H75? H -0.0263 0.3154 0.2738
H76? H 0.0226 0.3329 0.2793
H77? H -0.0040 0.2915 0.2598
C124? C -0.0205(3) 0.3461(3) 0.2153(2)
H78? H -0.0465 0.3398 0.2256
H79? H -0.0266 0.3250 0.2000
H80? H -0.0081 0.3739 0.2061
loop_
_geom_bond_atom_site_label_1
_geom_bond_atom_site_label_2
_geom_bond_site_symmetry_1
_geom_bond_site_symmetry_2
Co1 O9 1_555 1_555
Co2 O1 1_555 1_555
Co3 O1 1_555 1_555
Co4 O4 1_555 1_555
Co5 O2 1_555 1_555
Co6 O1 1_555 1_555
Co7 O7 1_555 1_555
O1 H1 1_555 1_555
O2 H2 1_555 1_555
O3 Co5 1_555 1_555
O4 C25 1_555 1_555
O6 Co6 1_555 1_555
O7 C27 1_555 1_555
O8 Co2 1_555 1_555
O9 C28 1_555 1_555
C1 C2 1_555 1_555
C2 H3 1_555 1_555
C3 C2 1_555 1_555
C4 C3 1_555 1_555
H4 C4 1_555 1_555
C5 C4 1_555 1_555
C6 C1 1_555 1_555
H5 C6 1_555 1_555
C7 C1 1_555 1_555
C8 C7 1_555 1_555
H6 C8 1_555 1_555
C9 C8 1_555 1_555
H7 C9 1_555 1_555
C10 C9 1_555 1_555
C11 C10 1_555 1_555
H8 C11 1_555 1_555
C12 C7 1_555 1_555
H9 C12 1_555 1_555
C13 C3 1_555 1_555
C14 C13 1_555 1_555
H10 C14 1_555 1_555
C15 C14 1_555 1_555
H11 C15 1_555 1_555
C16 C15 1_555 1_555
C17 C16 1_555 1_555
H12 C17 1_555 1_555
C18 C13 1_555 1_555
H13 C18 1_555 1_555
C19 C5 1_555 1_555
C20 C19 1_555 1_555
H14 C20 1_555 1_555
C21 C20 1_555 1_555
H15 C21 1_555 1_555
C22 C21 1_555 1_555
C23 C22 1_555 1_555
H16 C23 1_555 1_555
C24 C19 1_555 1_555
H17 C24 1_555 1_555
C25 O3 1_555 1_555
C27 O6 1_555 1_555
C28 O8 1_555 1_555
O11 Co4 1_555 1_555
O13 Co3 1_555 1_555
O14 Co4 1_555 1_555
O16 Co5 1_555 1_555
O17 Co7 1_555 1_555
O18 Co6 1_555 1_555
C30 C31 1_555 1_555
C31 H18 1_555 1_555
C32 C31 1_555 1_555
C33 C32 1_555 1_555
H19 C33 1_555 1_555
C34 C33 1_555 1_555
C35 C30 1_555 1_555
H20 C35 1_555 1_555
C36 C30 1_555 1_555
C37 C36 1_555 1_555
H21 C37 1_555 1_555
C38 C37 1_555 1_555
H22 C38 1_555 1_555
C39 C38 1_555 1_555
C40 C39 1_555 1_555
H23 C40 1_555 1_555
C41 C36 1_555 1_555
H24 C41 1_555 1_555
C42 C32 1_555 1_555
C43 C42 1_555 1_555
H25 C43 1_555 1_555
C44 C43 1_555 1_555
H26 C44 1_555 1_555
C45 C44 1_555 1_555
C46 C45 1_555 1_555
H27 C46 1_555 1_555
C47 C42 1_555 1_555
H28 C47 1_555 1_555
C48 C34 1_555 1_555
C49 C48 1_555 1_555
H29 C49 1_555 1_555
C50 C49 1_555 1_555
H30 C50 1_555 1_555
C51 C50 1_555 1_555
C52 C51 1_555 1_555
H31 C52 1_555 1_555
C53 C48 1_555 1_555
H32 C53 1_555 1_555
C54 O11 1_555 1_555
C56 O14 1_555 1_555
C58 O17 1_555 1_555
O19 Co3 1_555 1_555
O20 Co4 1_555 1_555
O22 Co5 1_555 1_555
O23 Co4 1_555 1_555
O25 Co2 1_555 1_555
O26 Co1 1_555 1_555
C59 C60 1_555 1_555
C60 H33 1_555 1_555
C61 C60 1_555 1_555
C62 C61 1_555 1_555
H34 C62 1_555 1_555
C63 C62 1_555 1_555
C64 C59 1_555 1_555
H35 C64 1_555 1_555
C65 C59 1_555 1_555
C66 C65 1_555 1_555
H36 C66 1_555 1_555
C67 C66 1_555 1_555
H37 C67 1_555 1_555
C68 C67 1_555 1_555
C69 C68 1_555 1_555
H38 C69 1_555 1_555
C70 C65 1_555 1_555
H39 C70 1_555 1_555
C71 C61 1_555 1_555
C72 C71 1_555 1_555
H40 C72 1_555 1_555
C73 C72 1_555 1_555
H41 C73 1_555 1_555
C74 C73 1_555 1_555
C75 C74 1_555 1_555
H42 C75 1_555 1_555
C76 C71 1_555 1_555
H43 C76 1_555 1_555
C77 C63 1_555 1_555
C78 C77 1_555 1_555
H44 C78 1_555 1_555
C79 C78 1_555 1_555
H45 C79 1_555 1_555
C80 C79 1_555 1_555
C81 C80 1_555 1_555
H46 C81 1_555 1_555
C82 C77 1_555 1_555
H47 C82 1_555 1_555
C83 O19 1_555 1_555
C85 O22 1_555 1_555
C86 O25 1_555 1_555
O28 Co7 1_555 1_555
O29 Co6 1_555 1_555
O30 Co2 1_555 1_555
O31 Co1 1_555 1_555
O33 Co4 1_555 1_555
O35 Co3 1_555 1_555
C88 C89 1_555 1_555
C89 H48 1_555 1_555
C90 C89 1_555 1_555
C91 C90 1_555 1_555
H49 C91 1_555 1_555
C92 C91 1_555 1_555
C93 C88 1_555 1_555
H50 C93 1_555 1_555
C94 C88 1_555 1_555
C95 C94 1_555 1_555
H51 C95 1_555 1_555
C96 C95 1_555 1_555
H52 C96 1_555 1_555
C97 C96 1_555 1_555
C98 C97 1_555 1_555
H53 C98 1_555 1_555
C99 C94 1_555 1_555
H54 C99 1_555 1_555
C100 C90 1_555 1_555
C101 C100 1_555 1_555
H55 C101 1_555 1_555
C102 C101 1_555 1_555
H56 C102 1_555 1_555
C103 C102 1_555 1_555
C104 C103 1_555 1_555
H57 C104 1_555 1_555
C105 C100 1_555 1_555
H58 C105 1_555 1_555
C106 C92 1_555 1_555
C107 C106 1_555 1_555
H59 C107 1_555 1_555
C108 C107 1_555 1_555
H60 C108 1_555 1_555
C109 C108 1_555 1_555
C110 C109 1_555 1_555
H61 C110 1_555 1_555
C111 C106 1_555 1_555
H62 C111 1_555 1_555
C112 O28 1_555 1_555
C113 O30 1_555 1_555
C115 O33 1_555 1_555
O36 Co7 1_555 1_555
C118 H63 1_555 1_555
H64 C118 1_555 1_555
H65 C118 1_555 1_555
C119 H66 1_555 1_555
H67 C119 1_555 1_555
H68 C119 1_555 1_555
N2 C118 1_555 1_555
C121 O36 1_555 1_555
C122 C121 1_555 1_555
H72 C122 1_555 1_555
H73 C122 1_555 1_555
H74 C122 1_555 1_555
O37 Co7 1_555 1_555
N3 C125 1_555 1_555
C125 O37 1_555 1_555
C126 C125 1_555 1_555
H81 C126 1_555 1_555
H82 C126 1_555 1_555
H83 C126 1_555 1_555
C127 N3 1_555 1_555
H84 C127 1_555 1_555
H85 C127 1_555 1_555
H86 C127 1_555 1_555
C128 N3 1_555 1_555
H87 C128 1_555 1_555
H88 C128 1_555 1_555
H89 C128 1_555 1_555
O38 Co7 1_555 1_555
N4 C129 1_555 1_555
C129 O38 1_555 1_555
C130 C129 1_555 1_555
H90 C130 1_555 1_555
H91 C130 1_555 1_555
H92 C130 1_555 1_555
C131 N4 1_555 1_555
H93 C131 1_555 1_555
H94 C131 1_555 1_555
H95 C131 1_555 1_555
C132 N4 1_555 1_555
H96 C132 1_555 1_555
H97 C132 1_555 1_555
H98 C132 1_555 1_555
Co5B O2 1_555 1_555
Co5A O2 1_555 1_555
O9I Co1 1_555 1_555
C16A C27 1_555 1_555
C27B C16 1_555 1_555
O13K C54 1_555 1_555
C45Q C56 1_555 1_555
C51I C58 1_555 1_555
C54J O13 1_555 1_555
C56P C45 1_555 1_555
C58I C51 1_555 1_555
O20J C83 1_555 1_555
O26I Co1 1_555 1_555
C74G C85 1_555 1_555
C80D C86 1_555 1_555
C83K O20 1_555 1_555
C85E C74 1_555 1_555
C86H C80 1_555 1_555
O31I Co1 1_555 1_555
O35K C115 1_555 1_555
C103E C113 1_555 1_555
C109L C115 1_555 1_555
C113G C103 1_555 1_555
C115J O35 1_555 1_555
C115L C109 1_555 1_555
C5 C6 1_555 1_555
C10 C25 1_555 1_555
C11 C12 1_555 1_555
C17 C18 1_555 1_555
C22 C28 1_555 1_555
C23 C24 1_555 1_555
O16 C56 1_555 1_555
O18 C58 1_555 1_555
C34 C35 1_555 1_555
C39 C54 1_555 1_555
C40 C41 1_555 1_555
C46 C47 1_555 1_555
C52 C53 1_555 1_555
O23 C85 1_555 1_555
O26 C86 1_555 1_555
C63 C64 1_555 1_555
C68 C83 1_555 1_555
C69 C70 1_555 1_555
C75 C76 1_555 1_555
C81 C82 1_555 1_555
O29 C112 1_555 1_555
O31 C113 1_555 1_555
C92 C93 1_555 1_555
C97 C112 1_555 1_555
C98 C99 1_555 1_555
C104 C105 1_555 1_555
C110 C111 1_555 1_555
C119 N2 1_555 1_555
N2 C121 1_555 1_555

#END
