
#######################################################################
#
#                 Cambridge Crystallographic Data Centre
#                                CCDC 
#
#######################################################################
#
# If this CIF has been generated from an entry in the Cambridge 
# Structural Database, then it will include bibliographic, chemical, 
# crystal, experimental, refinement or atomic coordinate data resulting 
# from the CCDC's data processing and validation procedures.
#
#######################################################################

data_SUPLUL
_chemical_formula_moiety         '(C18 H18 O5 Zn1)n,1.5n(C3 H7 N1 O1)'
_chemical_name_systematic        
"catena-[(\m~4~-4'-t-Butylbiphenyl-3,5-dicarboxylato-O,O',O'',O''')-aqua-zinc dimethylformamide solvate]"
_symmetry_cell_setting           trigonal
_symmetry_space_group_name_H-M   'P -3 c 1'
_symmetry_Int_Tables_number      165
_space_group_name_Hall           '-P 3 2"c'
loop_
_symmetry_equiv_pos_site_id
_symmetry_equiv_pos_as_xyz
1 x,y,z
2 -y,x-y,z
3 -x+y,-x,z
4 y,x,1/2-z
5 x-y,-y,1/2-z
6 -x,-x+y,1/2-z
7 -x,-y,-z
8 y,-x+y,-z
9 x-y,x,-z
10 -y,-x,1/2+z
11 -x+y,y,1/2+z
12 x,x-y,1/2+z
_cell_length_a                   18.6069(6)
_cell_length_b                   18.6069(6)
_cell_length_c                   22.6226(14)
_cell_angle_alpha                90
_cell_angle_beta                 90
_cell_angle_gamma                120
_cell_volume                     6782.99
_exptl_crystal_colour            colorless
_exptl_crystal_description       block
_cell_formula_units_Z            12
loop_
_atom_site_label
_atom_site_type_symbol
_atom_site_fract_x
_atom_site_fract_y
_atom_site_fract_z
_atom_site_U_iso_or_equiv
_atom_site_thermal_displace_type
Zn1 Zn 0.94646(6) 0.45917(6) 0.19708(4) 0.0372 Uani
C1 C 0.7102(5) 0.1418(5) 0.3291(4) 0.0419 Uani
C2 C 0.9028(7) 0.3417(6) 0.2964(5) 0.0562 Uani
C3 C 0.8030(5) 0.1734(5) 0.4132(4) 0.0446 Uani
C4 C 0.8611(6) 0.2445(6) 0.3811(4) 0.0517 Uani
H1 H 0.9129 0.2787 0.3980 0.0620 Uiso
C5 C 0.8449(5) 0.2654(5) 0.3265(4) 0.0450 Uani
C6 C 0.8212(5) 0.1548(6) 0.4717(4) 0.0466 Uani
O1 O 0.8857(4) 0.3548(4) 0.2455(3) 0.0667 Uani
C7 C 0.7274(6) 0.1238(5) 0.3834(4) 0.0506 Uani
H2 H 0.6871 0.0760 0.4021 0.0610 Uiso
C8 C 0.7690(6) 0.2119(6) 0.3003(4) 0.0461 Uani
H3 H 0.7577 0.2238 0.2627 0.0550 Uiso
C9 C 0.6278(6) 0.0876(6) 0.3011(4) 0.0476 Uani
C10 C 0.8630(6) 0.1300(6) 0.5900(4) 0.0582 Uani
C11 C 0.9009(7) 0.1690(7) 0.4880(4) 0.0697 Uani
H4 H 0.9419 0.1885 0.4590 0.0840 Uiso
C12 C 0.7654(7) 0.1278(7) 0.5165(4) 0.0673 Uani
H5 H 0.7117 0.1168 0.5086 0.0810 Uiso
C13 C 0.9214(7) 0.1563(7) 0.5425(4) 0.0724 Uani
H6 H 0.9743 0.1647 0.5494 0.0870 Uiso
C14 C 0.7845(7) 0.1159(6) 0.5728(5) 0.0689 Uani
H7 H 0.7431 0.0974 0.6013 0.0830 Uiso
O2 O 0.9680(5) 0.3926(5) 0.3245(4) 0.0852 Uani
O3 O 0.8762(9) 0.4240(8) 0.1313(6) 0.1976 Uani
C15 C 0.931(2) 0.090(2) 0.6555(11) 0.4500 Uani
H8 H 0.9786 0.1194 0.6304 0.6730 Uiso
H9 H 0.9007 0.0329 0.6443 0.6730 Uiso
H10 H 0.9487 0.0948 0.6959 0.6730 Uiso
O4 O 0.6159(4) 0.1069(4) 0.2512(3) 0.0636 Uani
O5 O 0.5739(4) 0.0259(4) 0.3311(3) 0.0656 Uani
C16 C 0.8067(14) 0.0781(19) 0.6910(9) 0.3244 Uani
H11 H 0.7718 0.0221 0.6776 0.4810 Uiso
H12 H 0.7761 0.1071 0.6899 0.4810 Uiso
H13 H 0.8245 0.0776 0.7307 0.4810 Uiso
C17 C 0.8836(7) 0.1224(7) 0.6501(5) 0.0748 Uani
C18 C 0.926(2) 0.2089(14) 0.6848(11) 0.3589 Uani
H14 H 0.9772 0.2471 0.6660 0.5390 Uiso
H15 H 0.9363 0.2001 0.7249 0.5390 Uiso
H16 H 0.8892 0.2313 0.6842 0.5390 Uiso
Zn1E Zn 1.05354(6) 0.51271(8) 0.30292(4) 0.0372 Uani
Zn1B Zn 0.51271(8) 0.05354(6) 0.19708(4) 0.0372 Uani
Zn1C Zn 0.45917(6) -0.05354(6) 0.30292(4) 0.0372 Uani
O2E O 1.0320(5) 0.4246(7) 0.1755(4) 0.0852 Uani
O4A O 0.8931(4) 0.5090(6) 0.2512(3) 0.0636 Uani
O5C O 1.0259(4) 0.5739(4) 0.1689(3) 0.0656 Uani
loop_
_atom_site_aniso_label
_atom_site_aniso_U_11
_atom_site_aniso_U_22
_atom_site_aniso_U_33
_atom_site_aniso_U_23
_atom_site_aniso_U_13
_atom_site_aniso_U_12
Zn1 0.0304(7) 0.0438(8) 0.0318(7) -0.0007(4) -0.0030(4) 0.0144(5)
C1 0.043(6) 0.039(5) 0.043(6) -0.001(4) -0.001(5) 0.020(5)
C2 0.049(7) 0.045(7) 0.066(8) 0.002(6) 0.020(6) 0.017(6)
C3 0.037(5) 0.043(5) 0.047(6) -0.002(5) -0.001(4) 0.015(5)
C4 0.044(6) 0.047(6) 0.059(6) -0.013(5) -0.001(5) 0.019(5)
C5 0.054(6) 0.029(5) 0.043(6) 0.000(4) -0.003(5) 0.014(5)
C6 0.032(5) 0.048(6) 0.053(6) -0.001(5) 0.001(5) 0.015(4)
O1 0.068(5) 0.055(4) 0.064(5) 0.021(4) 0.018(4) 0.021(4)
C7 0.047(6) 0.033(5) 0.065(7) 0.004(5) 0.008(5) 0.015(5)
C8 0.056(6) 0.053(6) 0.037(5) -0.003(5) 0.004(5) 0.033(6)
C9 0.063(7) 0.055(6) 0.032(6) -0.011(5) -0.005(5) 0.035(6)
C10 0.053(7) 0.055(6) 0.056(7) -0.006(5) -0.012(5) 0.019(5)
C11 0.067(8) 0.098(9) 0.049(7) 0.007(6) 0.010(6) 0.045(7)
C12 0.059(7) 0.077(8) 0.054(7) 0.022(6) -0.003(6) 0.025(6)
C13 0.065(7) 0.091(8) 0.056(7) 0.012(6) -0.012(6) 0.035(6)
C14 0.068(8) 0.065(7) 0.064(7) 0.003(6) 0.011(6) 0.026(6)
O2 0.068(5) 0.069(5) 0.109(6) 0.017(5) 0.017(5) 0.027(5)
O3 0.252(15) 0.201(12) 0.178(11) -0.093(10) -0.172(12) 0.142(12)
C15 0.78(9) 0.90(10) 0.19(2) -0.03(4) -0.04(4) 0.81(9)
O4 0.062(4) 0.067(5) 0.056(5) -0.002(4) -0.016(4) 0.028(4)
O5 0.049(4) 0.059(4) 0.074(5) -0.007(4) -0.011(4) 0.016(4)
C16 0.33(4) 0.42(5) 0.120(18) 0.15(3) 0.00(2) 0.11(4)
C17 0.067(7) 0.064(7) 0.067(8) -0.001(6) -0.012(6) 0.013(6)
C18 0.52(7) 0.34(5) 0.17(3) -0.02(3) -0.13(4) 0.18(5)
Zn1E 0.0304 0.0454 0.0318 -0.0023 -0.003 0.016
Zn1B 0.0454 0.0304 0.0318 0.003 0.0023 0.016
Zn1C 0.0438 0.0304 0.0318 0.003 0.0007 0.0144
O2E 0.068 0.083 0.109 -2.47023e-18 0.017 0.041
O4A 0.067 0.073 0.056 -0.014 0.002 0.039
O5C 0.059 0.049 0.074 0.011 0.007 0.016
loop_
_geom_bond_atom_site_label_1
_geom_bond_atom_site_label_2
_geom_bond_site_symmetry_1
_geom_bond_site_symmetry_2
Zn1 O1 1_555 1_555
C1 C7 1_555 1_555
C2 C5 1_555 1_555
C3 C4 1_555 1_555
C4 H1 1_555 1_555
C5 C4 1_555 1_555
C6 C3 1_555 1_555
O1 C2 1_555 1_555
C7 C3 1_555 1_555
H2 C7 1_555 1_555
C8 C1 1_555 1_555
H3 C8 1_555 1_555
C9 C1 1_555 1_555
C10 C13 1_555 1_555
C11 C6 1_555 1_555
H4 C11 1_555 1_555
C12 C6 1_555 1_555
H5 C12 1_555 1_555
C13 C11 1_555 1_555
H6 C13 1_555 1_555
C14 C10 1_555 1_555
H7 C14 1_555 1_555
O2 C2 1_555 1_555
O3 Zn1 1_555 1_555
C15 H8 1_555 1_555
H9 C15 1_555 1_555
H10 C15 1_555 1_555
O4 C9 1_555 1_555
O5 C9 1_555 1_555
C16 H11 1_555 1_555
H12 C16 1_555 1_555
H13 C16 1_555 1_555
C17 C10 1_555 1_555
C18 C17 1_555 1_555
H14 C18 1_555 1_555
H15 C18 1_555 1_555
H16 C18 1_555 1_555
Zn1E O2 1_555 1_555
Zn1B O4 1_555 1_555
Zn1C O5 1_555 1_555
O2E Zn1 1_555 1_555
O4A Zn1 1_555 1_555
O5C Zn1 1_555 1_555
C5 C8 1_555 1_555
C12 C14 1_555 1_555
C15 C17 1_555 1_555
C16 C17 1_555 1_555

#END
