
#######################################################################
#
#                 Cambridge Crystallographic Data Centre
#                                CCDC 
#
#######################################################################
#
# If this CIF has been generated from an entry in the Cambridge 
# Structural Database, then it will include bibliographic, chemical, 
# crystal, experimental, refinement or atomic coordinate data resulting 
# from the CCDC's data processing and validation procedures.
#
#######################################################################

data_SUPMAS
_chemical_formula_moiety         '(C18 H18 Co1 O5)n,1.5n(C4 H9 N1 O1)'
_chemical_name_systematic        
"catena-[(\m~4~-4'-t-Butylbiphenyl-3,5-dicarboxylato-O,O',O'',O''')-aqua-cobalt dimethylacetamide solvate]"
_symmetry_cell_setting           trigonal
_symmetry_space_group_name_H-M   'P -3 c 1'
_symmetry_Int_Tables_number      165
_space_group_name_Hall           '-P 3 2"c'
loop_
_symmetry_equiv_pos_site_id
_symmetry_equiv_pos_as_xyz
1 x,y,z
2 -y,x-y,z
3 -x+y,-x,z
4 y,x,1/2-z
5 x-y,-y,1/2-z
6 -x,-x+y,1/2-z
7 -x,-y,-z
8 y,-x+y,-z
9 x-y,x,-z
10 -y,-x,1/2+z
11 -x+y,y,1/2+z
12 x,x-y,1/2+z
_cell_length_a                   18.9328(12)
_cell_length_b                   18.9328(12)
_cell_length_c                   22.307(3)
_cell_angle_alpha                90
_cell_angle_beta                 90
_cell_angle_gamma                120
_cell_volume                     6924.71
_exptl_crystal_colour            violet
_exptl_crystal_description       block
_cell_formula_units_Z            12
loop_
_atom_site_label
_atom_site_type_symbol
_atom_site_fract_x
_atom_site_fract_y
_atom_site_fract_z
_atom_site_U_iso_or_equiv
_atom_site_thermal_displace_type
Co1 Co 0.95055(5) 0.46289(5) 0.19670(4) 0.0371 Uani
O1 O 0.8922(3) 0.5103(3) 0.2456(2) 0.0513 Uani
C1 C 0.8562(4) 0.5694(4) 0.3248(3) 0.0434 Uani
C2 C 0.7856(4) 0.5551(4) 0.2951(3) 0.0516 Uani
H1 H 0.7731 0.5298 0.2573 0.0620 Uiso
C3 C 0.8739(4) 0.6060(4) 0.3807(3) 0.0500 Uani
H2 H 0.9207 0.6140 0.4012 0.0600 Uiso
C4 C 0.8233(4) 0.6316(4) 0.4076(3) 0.0514 Uani
C5 C 0.7536(4) 0.6160(4) 0.3765(3) 0.0536 Uani
H3 H 0.7184 0.6319 0.3938 0.0640 Uiso
C6 C 0.7337(4) 0.5782(4) 0.3214(3) 0.0471 Uani
C7 C 0.8426(4) 0.6700(5) 0.4683(3) 0.0486 Uani
C8 C 0.9097(4) 0.5395(4) 0.2978(3) 0.0447 Uani
C9 C 0.8722(5) 0.6415(5) 0.5133(4) 0.0726 Uani
H4 H 0.8831 0.5992 0.5049 0.0870 Uiso
C10 C 0.8694(5) 0.7345(5) 0.5856(4) 0.0623 Uani
C11 C 0.8269(5) 0.7299(6) 0.4825(4) 0.0832 Uani
H5 H 0.8059 0.7499 0.4530 0.1000 Uiso
C12 C 0.8412(6) 0.7627(6) 0.5395(4) 0.0911 Uani
H6 H 0.8313 0.8058 0.5472 0.1090 Uiso
C13 C 0.8859(5) 0.6741(6) 0.5702(4) 0.0766 Uani
H7 H 0.9072 0.6542 0.5994 0.0920 Uiso
C14 C 0.8819(6) 0.7682(7) 0.6499(5) 0.0958 Uani
O2 O 0.6424(3) 0.5275(3) 0.2395(3) 0.0720 Uani
C15 C 0.6544(5) 0.5563(5) 0.2915(4) 0.0591 Uani
O3 O 0.9680(3) 0.5470(3) 0.3287(2) 0.0516 Uani
O4 O 0.8885(5) 0.4346(4) 0.1195(3) 0.1093 Uani
C16 C 0.9182(12) 0.7306(10) 0.6902(5) 0.1900 Uani
H8 H 0.9739 0.7490 0.6780 0.2870 Uiso
H9 H 0.8863 0.6717 0.6872 0.2870 Uiso
H10 H 0.9177 0.7470 0.7313 0.2870 Uiso
C17 C 0.8002(11) 0.7321(16) 0.6800(6) 0.3118 Uani
H11 H 0.7671 0.7510 0.6600 0.4640 Uiso
H12 H 0.8076 0.7490 0.7217 0.4640 Uiso
H13 H 0.7730 0.6731 0.6779 0.4640 Uiso
C18 C 0.9333(16) 0.8578(9) 0.6491(7) 0.4151 Uani
H14 H 0.9832 0.8730 0.6273 0.6230 Uiso
H15 H 0.9464 0.8779 0.6899 0.6230 Uiso
H16 H 0.9041 0.8813 0.6296 0.6230 Uiso
O5 O 0.6048(3) 0.5682(3) 0.3216(2) 0.0738 Uani
Co1A Co 0.53711(5) 0.48766(7) 0.19670(4) 0.0371 Uani
Co1E Co 1.04945(5) 0.51234(7) 0.30330(4) 0.0371 Uani
Co1D Co 0.48766(7) 0.53711(5) 0.30330(4) 0.0371 Uani
O2B O 0.8851(4) 0.3576(3) 0.2395(3) 0.0720 Uani
O3E O 1.0320(3) 0.5790(4) 0.1713(2) 0.0516 Uani
O5D O 1.0366(4) 0.4318(3) 0.1784(2) 0.0738 Uani
loop_
_atom_site_aniso_label
_atom_site_aniso_U_11
_atom_site_aniso_U_22
_atom_site_aniso_U_33
_atom_site_aniso_U_23
_atom_site_aniso_U_13
_atom_site_aniso_U_12
Co1 0.0233(6) 0.0466(7) 0.0281(7) 0.0011(4) -0.0029(4) 0.0076(4)
O1 0.043(3) 0.065(3) 0.050(3) -0.001(2) 0.004(2) 0.030(2)
C1 0.030(4) 0.061(4) 0.037(4) 0.009(3) 0.007(3) 0.021(3)
C2 0.054(5) 0.051(5) 0.044(4) 0.004(3) -0.006(4) 0.022(4)
C3 0.038(4) 0.080(5) 0.042(4) 0.008(4) 0.004(3) 0.037(4)
C4 0.049(4) 0.067(5) 0.053(5) 0.008(4) 0.007(4) 0.040(4)
C5 0.051(5) 0.078(5) 0.054(5) 0.018(4) 0.011(4) 0.049(4)
C6 0.039(4) 0.077(5) 0.040(4) 0.013(4) 0.006(3) 0.040(4)
C7 0.048(4) 0.070(5) 0.047(5) 0.010(4) 0.005(3) 0.044(4)
C8 0.038(4) 0.044(4) 0.042(5) 0.006(3) 0.010(4) 0.013(3)
C9 0.069(6) 0.106(7) 0.067(6) -0.018(5) -0.011(5) 0.062(5)
C10 0.060(5) 0.074(6) 0.059(6) -0.012(5) 0.001(4) 0.038(5)
C11 0.103(7) 0.103(7) 0.071(7) -0.006(5) -0.003(5) 0.072(7)
C12 0.106(8) 0.105(7) 0.092(8) -0.013(6) 0.002(6) 0.075(7)
C13 0.073(6) 0.105(7) 0.059(6) -0.016(5) -0.010(4) 0.050(6)
C14 0.083(7) 0.149(10) 0.078(7) -0.044(7) -0.010(5) 0.075(7)
O2 0.057(4) 0.081(4) 0.080(4) 0.009(3) -0.016(3) 0.036(3)
C15 0.044(5) 0.057(5) 0.080(6) 0.031(5) 0.008(5) 0.028(4)
O3 0.034(3) 0.076(4) 0.052(3) -0.006(2) -0.006(2) 0.033(2)
O4 0.151(6) 0.100(5) 0.096(5) -0.063(4) -0.081(5) 0.077(5)
C16 0.30(2) 0.247(18) 0.074(9) -0.061(10) -0.068(12) 0.175(17)
C17 0.191(17) 0.57(4) 0.134(13) -0.20(2) -0.003(12) 0.16(2)
C18 0.83(7) 0.075(10) 0.104(12) -0.049(9) -0.017(18) 0.049(18)
O5 0.052(3) 0.094(4) 0.088(4) 0.031(3) 0.002(3) 0.046(3)
Co1A 0.0466 0.0547 0.0281 -0.004 -0.0011 0.039
Co1E 0.0233 0.0547 0.0281 -0.004 -0.0029 0.0157
Co1D 0.0547 0.0466 0.0281 0.0011 0.004 0.039
O2B 0.066 0.057 0.08 0.016 0.025 0.021
O3E 0.034 0.044 0.052 0 -0.006 0.001
O5D 0.054 0.094 0.088 0.031 0.029 0.048
loop_
_geom_bond_atom_site_label_1
_geom_bond_atom_site_label_2
_geom_bond_site_symmetry_1
_geom_bond_site_symmetry_2
Co1 O1 1_555 1_555
O1 C8 1_555 1_555
C1 C2 1_555 1_555
C2 H1 1_555 1_555
C3 C1 1_555 1_555
H2 C3 1_555 1_555
C4 C3 1_555 1_555
C5 C4 1_555 1_555
H3 C5 1_555 1_555
C6 C2 1_555 1_555
C7 C4 1_555 1_555
C8 C1 1_555 1_555
C9 C7 1_555 1_555
H4 C9 1_555 1_555
C10 C12 1_555 1_555
C11 C7 1_555 1_555
H5 C11 1_555 1_555
C12 C11 1_555 1_555
H6 C12 1_555 1_555
C13 C9 1_555 1_555
H7 C13 1_555 1_555
C14 C10 1_555 1_555
O2 C15 1_555 1_555
C15 C6 1_555 1_555
O3 C8 1_555 1_555
O4 Co1 1_555 1_555
C16 C14 1_555 1_555
H8 C16 1_555 1_555
H9 C16 1_555 1_555
H10 C16 1_555 1_555
C17 C14 1_555 1_555
H11 C17 1_555 1_555
H12 C17 1_555 1_555
H13 C17 1_555 1_555
C18 C14 1_555 1_555
H14 C18 1_555 1_555
H15 C18 1_555 1_555
H16 C18 1_555 1_555
O5 C15 1_555 1_555
Co1A O2 1_555 1_555
Co1E O3 1_555 1_555
Co1D O5 1_555 1_555
O2B Co1 1_555 1_555
O3E Co1 1_555 1_555
O5D Co1 1_555 1_555
C5 C6 1_555 1_555
C10 C13 1_555 1_555

#END
