
#######################################################################
#
#                 Cambridge Crystallographic Data Centre
#                                CCDC 
#
#######################################################################
#
# If this CIF has been generated from an entry in the Cambridge 
# Structural Database, then it will include bibliographic, chemical, 
# crystal, experimental, refinement or atomic coordinate data resulting 
# from the CCDC's data processing and validation procedures.
#
#######################################################################

data_SUPMEW
_chemical_formula_moiety         '(C18 H18 Cu1 O5)n,1.5n(C3 H7 N1 O1)'
_chemical_name_systematic        
"catena-[(\m~4~-4'-t-Butylbiphenyl-3,5-dicarboxylato-O,O',O'',O''')-aqua-copper dimethylformamide solvate]"
_symmetry_cell_setting           trigonal
_symmetry_space_group_name_H-M   'P -3 c 1'
_symmetry_Int_Tables_number      165
_space_group_name_Hall           '-P 3 2"c'
loop_
_symmetry_equiv_pos_site_id
_symmetry_equiv_pos_as_xyz
1 x,y,z
2 -y,x-y,z
3 -x+y,-x,z
4 y,x,1/2-z
5 x-y,-y,1/2-z
6 -x,-x+y,1/2-z
7 -x,-y,-z
8 y,-x+y,-z
9 x-y,x,-z
10 -y,-x,1/2+z
11 -x+y,y,1/2+z
12 x,x-y,1/2+z
_cell_length_a                   18.4472(4)
_cell_length_b                   18.4472(4)
_cell_length_c                   22.5760(12)
_cell_angle_alpha                90
_cell_angle_beta                 90
_cell_angle_gamma                120
_cell_volume                     6653.32
_exptl_crystal_colour            turquoise
_exptl_crystal_description       block
_cell_formula_units_Z            12
loop_
_atom_site_label
_atom_site_type_symbol
_atom_site_fract_x
_atom_site_fract_y
_atom_site_fract_z
_atom_site_U_iso_or_equiv
_atom_site_thermal_displace_type
Cu1 Cu 0.50921(6) 0.04819(6) 0.29769(4) 0.0384 Uani
O1 O 0.4711(4) 0.1138(3) 0.2550(3) 0.0498 Uani
C1 C 0.3832(5) 0.1393(6) 0.1190(4) 0.0500 Uani
H1 H 0.3653 0.0872 0.1019 0.0600 Uiso
C2 C 0.4384(5) 0.0941(6) 0.2052(4) 0.0411 Uani
C3 C 0.3336(6) 0.1767(5) 0.0291(4) 0.0499 Uani
C4 C 0.3709(6) 0.1969(5) 0.0888(4) 0.0501 Uani
C5 C 0.3968(5) 0.2733(6) 0.1163(4) 0.0550 Uani
H2 H 0.3896 0.3138 0.0970 0.0660 Uiso
C6 C 0.4223(5) 0.1565(5) 0.1757(4) 0.0448 Uani
C7 C 0.4463(5) 0.2331(5) 0.2014(4) 0.0463 Uani
H3 H 0.4712 0.2451 0.2386 0.0560 Uiso
C8 C 0.4342(5) 0.2909(5) 0.1734(4) 0.0448 Uani
C9 C 0.2693(6) 0.1005(6) 0.0135(5) 0.0654 Uani
H4 H 0.2449 0.0597 0.0427 0.0790 Uiso
C10 C 0.2717(6) 0.1402(6) -0.0878(4) 0.0611 Uani
C11 C 0.3641(7) 0.2364(6) -0.0162(5) 0.0714 Uani
H5 H 0.4068 0.2904 -0.0078 0.0860 Uiso
C12 C 0.2385(7) 0.0804(7) -0.0426(5) 0.0786 Uani
H6 H 0.1952 0.0266 -0.0509 0.0940 Uiso
C13 C 0.3320(7) 0.2169(7) -0.0738(5) 0.0691 Uani
H7 H 0.3533 0.2583 -0.1027 0.0830 Uiso
C14 C 0.2406(9) 0.1179(7) -0.1521(5) 0.0783 Uani
O2 O 0.5438(6) 0.1181(8) 0.3720(5) 0.1619 Uani
C15 C 0.2586(19) 0.1844(12) -0.1878(9) 0.2473 Uani
H8 H 0.3172 0.2247 -0.1853 0.3740 Uiso
H9 H 0.2267 0.2099 -0.1752 0.3740 Uiso
H10 H 0.2444 0.1656 -0.2280 0.3740 Uiso
C16 C 0.1604(12) 0.058(2) -0.1540(11) 0.4229 Uani
H11 H 0.1266 0.0776 -0.1355 0.6340 Uiso
H12 H 0.1534 0.0093 -0.1335 0.6340 Uiso
H13 H 0.1434 0.0438 -0.1946 0.6340 Uiso
C17 C 0.282(2) 0.086(2) -0.1798(10) 0.3222 Uani
H14 H 0.3407 0.1256 -0.1796 0.4800 Uiso
H15 H 0.2624 0.0726 -0.2200 0.4800 Uiso
H16 H 0.2720 0.0356 -0.1599 0.4800 Uiso
C18 C 0.4623(6) 0.3753(7) 0.2012(5) 0.0626 Uani
O3 O 0.4560(4) 0.4299(4) 0.1704(3) 0.0530 Uani
O4 O 0.4936(4) 0.3853(4) 0.2524(3) 0.0552 Uani
O5 O 0.4237(4) 0.0301(3) 0.1760(3) 0.0493 Uani
Cu1E Cu 0.49079(6) 0.53898(8) 0.20231(4) 0.0384 Uani
Cu1B Cu 0.53898(8) 0.49079(6) 0.29769(4) 0.0384 Uani
Cu1D Cu 0.46102(8) -0.04819(6) 0.20231(4) 0.0384 Uani
O3E O 0.5440(4) -0.0261(6) 0.3296(3) 0.0530 Uani
O4A O 0.6147(4) 0.1083(6) 0.2524(3) 0.0552 Uani
O5D O 0.3936(5) -0.0301(3) 0.3240(3) 0.0493 Uani
loop_
_atom_site_aniso_label
_atom_site_aniso_U_11
_atom_site_aniso_U_22
_atom_site_aniso_U_33
_atom_site_aniso_U_23
_atom_site_aniso_U_13
_atom_site_aniso_U_12
Cu1 0.0420(8) 0.0330(7) 0.0352(8) 0.0019(5) 0.0004(5) 0.0149(5)
O1 0.067(4) 0.044(3) 0.048(4) 0.005(3) 0.001(3) 0.035(3)
C1 0.052(5) 0.043(5) 0.054(6) 0.001(5) 0.006(5) 0.023(5)
C2 0.048(5) 0.046(6) 0.034(6) 0.009(5) 0.004(4) 0.027(4)
C3 0.067(6) 0.042(6) 0.043(6) 0.004(5) 0.000(5) 0.029(5)
C4 0.065(6) 0.040(6) 0.053(6) -0.004(5) -0.008(5) 0.032(5)
C5 0.058(6) 0.061(7) 0.057(7) 0.006(5) 0.007(5) 0.038(5)
C6 0.052(5) 0.049(6) 0.033(5) -0.001(5) 0.002(4) 0.025(5)
C7 0.055(6) 0.048(6) 0.039(5) 0.002(5) -0.003(5) 0.028(5)
C8 0.058(6) 0.040(5) 0.041(6) -0.003(4) 0.006(5) 0.028(4)
C9 0.075(7) 0.055(7) 0.051(7) 0.011(5) -0.004(6) 0.021(6)
C10 0.080(7) 0.062(7) 0.046(6) -0.014(6) -0.020(6) 0.039(6)
C11 0.087(8) 0.045(6) 0.077(8) -0.003(6) -0.010(7) 0.029(6)
C12 0.085(8) 0.060(7) 0.077(8) -0.002(7) -0.022(7) 0.026(6)
C13 0.088(8) 0.060(7) 0.054(7) 0.005(6) -0.019(6) 0.033(7)
C14 0.107(10) 0.072(7) 0.075(8) -0.009(7) -0.014(8) 0.059(7)
O2 0.138(8) 0.192(11) 0.127(8) -0.103(9) -0.032(7) 0.061(8)
C15 0.41(4) 0.166(19) 0.134(17) 0.048(15) -0.08(2) 0.12(2)
C16 0.069(13) 0.71(7) 0.15(2) 0.01(3) -0.016(14) -0.06(2)
C17 0.42(5) 0.61(7) 0.14(2) -0.10(3) -0.09(3) 0.41(5)
C18 0.049(6) 0.083(8) 0.053(7) -0.017(6) 0.005(5) 0.031(6)
O3 0.069(4) 0.056(4) 0.043(4) -0.009(3) -0.008(3) 0.038(4)
O4 0.072(4) 0.048(4) 0.055(4) -0.010(3) -0.006(4) 0.037(3)
O5 0.068(4) 0.039(3) 0.044(4) 0.001(3) -0.007(3) 0.029(3)
Cu1E 0.042 0.0452 0.0352 -0.0015 0.0004 0.0271
Cu1B 0.0452 0.042 0.0352 -0.0004 0.0015 0.0271
Cu1D 0.0452 0.033 0.0352 0.0019 0.0015 0.0181
O3E 0.069 0.049 0.043 0.001 -0.008 0.031
O4A 0.048 0.046 0.055 0.004 0.01 0.011
O5D 0.049 0.039 0.044 0.001 0.008 0.01
loop_
_geom_bond_atom_site_label_1
_geom_bond_atom_site_label_2
_geom_bond_site_symmetry_1
_geom_bond_site_symmetry_2
Cu1 O1 1_555 1_555
O1 C2 1_555 1_555
C1 H1 1_555 1_555
C2 C6 1_555 1_555
C3 C4 1_555 1_555
C4 C1 1_555 1_555
C5 C4 1_555 1_555
H2 C5 1_555 1_555
C6 C1 1_555 1_555
C7 C6 1_555 1_555
H3 C7 1_555 1_555
C8 C5 1_555 1_555
C9 C3 1_555 1_555
H4 C9 1_555 1_555
C10 C12 1_555 1_555
C11 C3 1_555 1_555
H5 C11 1_555 1_555
C12 C9 1_555 1_555
H6 C12 1_555 1_555
C13 C10 1_555 1_555
H7 C13 1_555 1_555
C14 C10 1_555 1_555
O2 Cu1 1_555 1_555
C15 C14 1_555 1_555
H8 C15 1_555 1_555
H9 C15 1_555 1_555
H10 C15 1_555 1_555
C16 C14 1_555 1_555
H11 C16 1_555 1_555
H12 C16 1_555 1_555
H13 C16 1_555 1_555
C17 C14 1_555 1_555
H14 C17 1_555 1_555
H15 C17 1_555 1_555
H16 C17 1_555 1_555
C18 C8 1_555 1_555
O3 C18 1_555 1_555
O4 C18 1_555 1_555
O5 C2 1_555 1_555
Cu1E O3 1_555 1_555
Cu1B O4 1_555 1_555
Cu1D O5 1_555 1_555
O3E Cu1 1_555 1_555
O4A Cu1 1_555 1_555
O5D Cu1 1_555 1_555
C7 C8 1_555 1_555
C11 C13 1_555 1_555

#END
