
#######################################################################
#
#                 Cambridge Crystallographic Data Centre
#                                CCDC 
#
#######################################################################
#
# If this CIF has been generated from an entry in the Cambridge 
# Structural Database, then it will include bibliographic, chemical, 
# crystal, experimental, refinement or atomic coordinate data resulting 
# from the CCDC's data processing and validation procedures.
#
#######################################################################

data_TIVHAJ
_chemical_formula_moiety         '(C21 H16 Cu1 N4 O5)n'
_chemical_name_systematic        
"catena-[(\m~3~-4,4'-(methylenebis((1H-pyrazole-1,4-diyl)))dibenzoato)-diaqua-copper unknown solvate]"
_symmetry_cell_setting           orthorhombic
_symmetry_space_group_name_H-M   'P n m a'
_symmetry_Int_Tables_number      62
_space_group_name_Hall           '-P 2ac 2n'
loop_
_symmetry_equiv_pos_site_id
_symmetry_equiv_pos_as_xyz
1 x,y,z
2 1/2-x,-y,1/2+z
3 1/2+x,1/2-y,1/2-z
4 -x,1/2+y,-z
5 -x,-y,-z
6 1/2+x,y,1/2-z
7 1/2-x,1/2+y,1/2+z
8 x,1/2-y,z
_cell_length_a                   8.800(3)
_cell_length_b                   20.734(2)
_cell_length_c                   13.110(5)
_cell_angle_alpha                90
_cell_angle_beta                 90
_cell_angle_gamma                90
_cell_volume                     2392.04
_exptl_crystal_colour            teal
_exptl_crystal_description       block
_cell_formula_units_Z            4
loop_
_atom_site_label
_atom_site_type_symbol
_atom_site_fract_x
_atom_site_fract_y
_atom_site_fract_z
Cu1 Cu 0.6500(4) 0.2500 0.7354(2)
C1 C 0.400(4) 0.2500 0.536(2)
H1 H 0.3259 0.2500 0.5932
H2 H 0.3454 0.2500 0.4702
N1 N 0.5189(12) 0.1932(3) 0.5447(8)
N2 N 0.6036(11) 0.1842(3) 0.6328(7)
C2 C 0.6802(10) 0.1260(3) 0.6240(5)
H3 H 0.7467 0.1078 0.6733
C3 C 0.6428(8) 0.0990(2) 0.5304(6)
C4 C 0.5431(11) 0.1406(3) 0.4814(7)
H4 H 0.4991 0.1341 0.4161
C5 C 0.675(3) 0.0339(8) 0.4901(19)
C6 C 0.803(3) 0.0064(8) 0.5347(18)
H5 H 0.8492 0.0268 0.5916
C7 C 0.862(3) -0.0489(8) 0.4984(18)
H6 H 0.9518 -0.0655 0.5288
C8 C 0.7976(12) -0.0821(4) 0.4195(9)
C9 C 0.6740(12) -0.0551(4) 0.3715(8)
H7 H 0.6199 -0.0759 0.3182
C10 C 0.637(3) 0.0034(8) 0.4072(19)
H8 H 0.5708 0.0270 0.3639
C11 C 0.8556(16) -0.1411(7) 0.3702(16)
O1 O 0.7872(18) -0.1799(5) 0.3284(10)
O2 O 0.9778(17) -0.1503(5) 0.3939(12)
O3 O 0.8995(14) 0.2500(7) 0.6928(11)
H9 H 0.9050 0.2874 0.6468
H9G H 0.9050 0.2126 0.6468
N1G N 0.5189(12) 0.3068(3) 0.5447(8)
N2G N 0.6036(11) 0.3158(3) 0.6328(7)
C2G C 0.6802(10) 0.3740(3) 0.6240(5)
H3G H 0.7467 0.3922 0.6733
C3G C 0.6428(8) 0.4010(2) 0.5304(6)
C4G C 0.5431(11) 0.3594(3) 0.4814(7)
H4G H 0.4991 0.3659 0.4161
C5G C 0.675(3) 0.4661(8) 0.4901(19)
C6G C 0.803(3) 0.4936(8) 0.5347(18)
H5G H 0.8492 0.4732 0.5916
C7G C 0.862(3) 0.5489(8) 0.4984(18)
H6G H 0.9518 0.5655 0.5288
C8G C 0.7976(12) 0.5821(4) 0.4195(9)
C9G C 0.6740(12) 0.5551(4) 0.3715(8)
H7G H 0.6199 0.5759 0.3182
C10G C 0.637(3) 0.4966(8) 0.4072(19)
H8G H 0.5708 0.4730 0.3639
C11G C 0.8556(16) 0.6411(7) 0.3702(16)
O1G O 0.7872(18) 0.6799(5) 0.3284(10)
O2G O 0.9778(17) 0.6503(5) 0.3939(12)
Cu1A Cu 0.8500(4) -0.2500 0.2354(2)
Cu1A_2 Cu 0.8500(4) 0.7500 0.2354(2)
Cu1B Cu 1.1500(4) 0.2500 0.7646(2)
O1A O 0.7128(18) 0.1799(5) 0.8284(10)
O1F O 0.7128(18) 0.3201(5) 0.8284(10)
O3B O 0.3995(14) 0.2500(7) 0.8072(11)
H10? H 0.9048 0.2881 0.6468
loop_
_geom_bond_atom_site_label_1
_geom_bond_atom_site_label_2
_geom_bond_site_symmetry_1
_geom_bond_site_symmetry_2
Cu1 N2 1_555 1_555
C1 H1 1_555 1_555
H2 C1 1_555 1_555
N1 C1 1_555 1_555
N2 N1 1_555 1_555
C2 N2 1_555 1_555
H3 C2 1_555 1_555
C3 C2 1_555 1_555
C4 N1 1_555 1_555
H4 C4 1_555 1_555
C5 C3 1_555 1_555
C6 C5 1_555 1_555
H5 C6 1_555 1_555
C7 C6 1_555 1_555
H6 C7 1_555 1_555
C8 C7 1_555 1_555
C9 C8 1_555 1_555
H7 C9 1_555 1_555
C10 C5 1_555 1_555
H8 C10 1_555 1_555
C11 C8 1_555 1_555
O1 C11 1_555 1_555
O2 C11 1_555 1_555
O3 Cu1 1_555 1_555
H9 O3 1_555 1_555
H9G O3 1_555 1_555
N1G C1 1_555 1_555
N2G Cu1 1_555 1_555
C2G N2G 1_555 1_555
H3G C2G 1_555 1_555
C3G C2G 1_555 1_555
C4G N1G 1_555 1_555
H4G C4G 1_555 1_555
C5G C3G 1_555 1_555
C6G C5G 1_555 1_555
H5G C6G 1_555 1_555
C7G C6G 1_555 1_555
H6G C7G 1_555 1_555
C8G C7G 1_555 1_555
C9G C8G 1_555 1_555
H7G C9G 1_555 1_555
C10G C5G 1_555 1_555
H8G C10G 1_555 1_555
C11G C8G 1_555 1_555
O1G C11G 1_555 1_555
O2G C11G 1_555 1_555
Cu1A O1 1_555 1_555
Cu1A_2 O1G 1_555 1_555
Cu1B O3 1_555 1_555
O1A Cu1 1_555 1_555
O1F Cu1 1_555 1_555
O3B Cu1 1_555 1_555
C3 C4 1_555 1_555
C9 C10 1_555 1_555
N1G N2G 1_555 1_555
C3G C4G 1_555 1_555
C9G C10G 1_555 1_555

#END
