
#######################################################################
#
#                 Cambridge Crystallographic Data Centre
#                                CCDC 
#
#######################################################################
#
# If this CIF has been generated from an entry in the Cambridge 
# Structural Database, then it will include bibliographic, chemical, 
# crystal, experimental, refinement or atomic coordinate data resulting 
# from the CCDC's data processing and validation procedures.
#
#######################################################################

data_TIVHAJ02
_chemical_formula_moiety         '(C21 H16 Cu1 N4 O5)n'
_chemical_name_systematic        
"catena-((\m-aqua)-(\m-4,4'-(methylenebis((1H-pyrazole-1,4-diyl)))dibenzoato)-copper unknown solvate)"
_symmetry_cell_setting           orthorhombic
_symmetry_space_group_name_H-M   'P n m a'
_symmetry_Int_Tables_number      62
_space_group_name_Hall           '-P 2ac 2n'
loop_
_symmetry_equiv_pos_site_id
_symmetry_equiv_pos_as_xyz
1 x,y,z
2 1/2-x,-y,1/2+z
3 1/2+x,1/2-y,1/2-z
4 -x,1/2+y,-z
5 -x,-y,-z
6 1/2+x,y,1/2-z
7 1/2-x,1/2+y,1/2+z
8 x,1/2-y,z
_cell_length_a                   9.6611(4)
_cell_length_b                   20.3319(7)
_cell_length_c                   13.6276(5)
_cell_angle_alpha                90
_cell_angle_beta                 90
_cell_angle_gamma                90
_cell_volume                     2676.85
_exptl_crystal_colour            blue
_exptl_crystal_description       Block
_cell_formula_units_Z            4
loop_
_atom_site_label
_atom_site_type_symbol
_atom_site_fract_x
_atom_site_fract_y
_atom_site_fract_z
Cu1 Cu 0.35201(4) 0.7500 0.23522(3)
O1 O 0.20265(17) 1.17890(7) -0.17624(12)
N1 N 0.3970(2) 0.81867(9) 0.13373(14)
O2 O 0.1124(2) 0.7500 0.2002(2)
N2 N 0.47610(19) 0.80830(9) 0.05329(13)
C1 C 0.5634(3) 0.7500 0.0497(2)
H1 H 0.6281 0.7500 0.1061
H2 H 0.6185 0.7500 -0.0115
C2 C 0.3301(2) 0.87442(12) 0.1171(2)
H3 H 0.2654 0.8936 0.1611
C3 C 0.3670(3) 0.90133(13) 0.0268(2)
C4 C 0.3681(3) 0.99483(13) -0.0939(2)
C5 C 0.4606(2) 0.85731(12) -0.01184(18)
H4 H 0.5060 0.8610 -0.0734
C6 C 0.1376(16) 1.1455(7) -0.1175(10)
C7 C 0.2032(13) 1.0853(6) -0.0763(8)
H5 H 0.088(3) 0.7806(13) 0.176(2)
O3 O 0.0154(9) 1.1581(4) -0.0900(7)
C8 C 0.2238(11) 1.0030(5) 0.0474(8)
H6 H 0.1960 0.9871 0.1099
C9 C 0.1665(10) 1.0599(4) 0.0106(7)
H7 H 0.0983 1.0821 0.0484
C10 C 0.3218(18) 0.9689(8) -0.0066(14)
C11 C 0.3125(3) 1.05320(12) -0.12973(19)
H8 H 0.4384 0.9728 -0.1299
H9 H 0.3464 1.0717 -0.1890
O1G O 0.20265(17) 0.32110(7) -0.17624(12)
N1G N 0.3970(2) 0.68133(9) 0.13373(14)
N2G N 0.47610(19) 0.69170(9) 0.05329(13)
C2G C 0.3301(2) 0.62558(12) 0.1171(2)
H3G H 0.2654 0.6064 0.1611
C3G C 0.3670(3) 0.59867(13) 0.0268(2)
C4G C 0.3681(3) 0.50517(13) -0.0939(2)
C5G C 0.4606(2) 0.64269(12) -0.01184(18)
H4G H 0.5060 0.6390 -0.0734
C6G C 0.1376(16) 0.3545(7) -0.1175(10)
C7G C 0.2032(13) 0.4147(6) -0.0763(8)
O3G O 0.0154(9) 0.3419(4) -0.0900(7)
C8G C 0.2238(11) 0.4970(5) 0.0474(8)
H6G H 0.1960 0.5129 0.1099
C9G C 0.1665(10) 0.4401(4) 0.0106(7)
H7G H 0.0983 0.4179 0.0484
C10G C 0.3218(18) 0.5311(8) -0.0066(14)
C11G C 0.3125(3) 0.44680(12) -0.12973(19)
H8G H 0.4384 0.5272 -0.1299
H9G H 0.3464 0.4283 -0.1890
H5G H 0.088(3) 0.7194(13) 0.176(2)
Cu1A Cu 0.14799(4) 0.2500 -0.26478(3)
Cu1A_2 Cu 0.14799(4) 1.2500 -0.26478(3)
Cu1B Cu -0.14799(4) 0.7500 0.26478(3)
O1A O 0.29735(17) 0.82110(7) 0.32376(12)
O1F O 0.29735(17) 0.67890(7) 0.32376(12)
O2B O 0.6124(2) 0.7500 0.2998(2)
H10? H 0.4561 0.9811 -0.1173
O4? O -0.0054(8) 1.1368(4) -0.1407(7)
C12? C 0.1740(11) 0.9781(6) 0.0020(11)
H11? H 0.1237 0.9537 0.0495
C13? C 0.1146(10) 1.0351(6) -0.0363(11)
H12? H 0.0244 1.0485 -0.0169
C14? C 0.116(2) 1.1350(9) -0.1419(13)
C15? C 0.301(2) 0.9561(10) -0.0257(18)
C16? C 0.1918(18) 1.0724(8) -0.1047(11)
H13? H 0.3654 1.0793 -0.1738
loop_
_geom_bond_atom_site_label_1
_geom_bond_atom_site_label_2
_geom_bond_site_symmetry_1
_geom_bond_site_symmetry_2
Cu1 N1 1_555 1_555
O1 C6 1_555 1_555
N1 N2 1_555 1_555
O2 Cu1 1_555 1_555
N2 C1 1_555 1_555
C1 H1 1_555 1_555
H2 C1 1_555 1_555
C2 N1 1_555 1_555
H3 C2 1_555 1_555
C3 C2 1_555 1_555
C4 C10 1_555 1_555
C5 N2 1_555 1_555
H4 C5 1_555 1_555
C6 C7 1_555 1_555
C7 C9 1_555 1_555
H5 O2 1_555 1_555
O3 C6 1_555 1_555
C8 H6 1_555 1_555
C9 C8 1_555 1_555
H7 C9 1_555 1_555
C10 C3 1_555 1_555
C11 C4 1_555 1_555
H8 C4 1_555 1_555
H9 C11 1_555 1_555
O1G C6G 1_555 1_555
N1G Cu1 1_555 1_555
N2G C1 1_555 1_555
C2G N1G 1_555 1_555
H3G C2G 1_555 1_555
C3G C2G 1_555 1_555
C4G C10G 1_555 1_555
C5G N2G 1_555 1_555
H4G C5G 1_555 1_555
C6G C7G 1_555 1_555
C7G C9G 1_555 1_555
O3G C6G 1_555 1_555
C8G H6G 1_555 1_555
C9G C8G 1_555 1_555
H7G C9G 1_555 1_555
C10G C3G 1_555 1_555
C11G C4G 1_555 1_555
H8G C4G 1_555 1_555
H9G C11G 1_555 1_555
H5G O2 1_555 1_555
Cu1A O1G 1_555 1_555
Cu1A_2 O1 1_555 1_555
Cu1B O2 1_555 1_555
O1A Cu1 1_555 1_555
O1F Cu1 1_555 1_555
O2B Cu1 1_555 1_555
C3 C5 1_555 1_555
C7 C11 1_555 1_555
C8 C10 1_555 1_555
N1G N2G 1_555 1_555
C3G C5G 1_555 1_555
C7G C11G 1_555 1_555
C8G C10G 1_555 1_555

#END
