
#######################################################################
#
#                 Cambridge Crystallographic Data Centre
#                                CCDC 
#
#######################################################################
#
# If this CIF has been generated from an entry in the Cambridge 
# Structural Database, then it will include bibliographic, chemical, 
# crystal, experimental, refinement or atomic coordinate data resulting 
# from the CCDC's data processing and validation procedures.
#
#######################################################################

data_TIVHAJ01
_chemical_formula_moiety         '(C21 H16 Cu1 N4 O5)n'
_chemical_name_systematic        
"catena-[(\m~3~-4,4'-(methylenebis((1H-pyrazole-1,4-diyl)))dibenzoato)-diaqua-copper unknown solvate]"
_symmetry_cell_setting           orthorhombic
_symmetry_space_group_name_H-M   'P n m a'
_symmetry_Int_Tables_number      62
_space_group_name_Hall           '-P 2ac 2n'
loop_
_symmetry_equiv_pos_site_id
_symmetry_equiv_pos_as_xyz
1 x,y,z
2 1/2-x,-y,1/2+z
3 1/2+x,1/2-y,1/2-z
4 -x,1/2+y,-z
5 -x,-y,-z
6 1/2+x,y,1/2-z
7 1/2-x,1/2+y,1/2+z
8 x,1/2-y,z
_cell_length_a                   9.9995(3)
_cell_length_b                   19.2590(4)
_cell_length_c                   15.3449(5)
_cell_angle_alpha                90
_cell_angle_beta                 90
_cell_angle_gamma                90
_cell_volume                     2955.13
_exptl_crystal_colour            blue
_exptl_crystal_description       block
_cell_formula_units_Z            4
loop_
_atom_site_label
_atom_site_type_symbol
_atom_site_fract_x
_atom_site_fract_y
_atom_site_fract_z
Cu1 Cu 0.15801(4) -0.2500 0.26567(2)
C1 C -0.0574(3) -0.2500 0.4193(2)
H1 H -0.1105 -0.2500 0.3648
H2 H -0.1200 -0.2500 0.4692
N1 N 0.0269(2) -0.18885(10) 0.42250(13)
N2 N 0.1133(2) -0.17758(10) 0.35565(14)
C2 C 0.1821(3) -0.12125(14) 0.3775(2)
H3 H 0.2498 -0.1007 0.3426
C3 C 0.1412(3) -0.09604(18) 0.4593(2)
C4 C 0.0419(3) -0.14091(15) 0.48514(19)
H4 H -0.0073 -0.1384 0.5380
C5 C 0.2056(8) -0.0461(4) 0.5217(6)
C6 C 0.3382(6) -0.0280(5) 0.5092(7)
H5 H 0.3912 -0.0527 0.4683
C7 C 0.3943(6) 0.0270(4) 0.5569(7)
H6 H 0.4866 0.0374 0.5506
C8 C 0.3163(7) 0.0662(4) 0.6133(5)
C9 C 0.1930(3) 0.04925(14) 0.62044(18)
H7 H 0.1366 0.0767 0.6564
C10 C 0.1378(3) -0.00805(14) 0.57755(19)
H8 H 0.0474 -0.0200 0.5892
C11 C 0.3808(7) 0.1269(3) 0.6602(5)
O1 O 0.29790(18) 0.17562(8) 0.68396(11)
O2 O 0.5020(4) 0.1257(2) 0.6697(3)
O3 O 0.3846(3) -0.2500 0.29189(18)
H9 H 0.412(3) -0.2222(16) 0.316(2)
N1G N 0.0269(2) -0.31115(10) 0.42250(13)
N2G N 0.1133(2) -0.32242(10) 0.35565(14)
C2G C 0.1821(3) -0.37875(14) 0.3775(2)
H3G H 0.2498 -0.3993 0.3426
C3G C 0.1412(3) -0.40396(18) 0.4593(2)
C4G C 0.0419(3) -0.35909(15) 0.48514(19)
H4G H -0.0073 -0.3616 0.5380
C5G C 0.2056(8) -0.4539(4) 0.5217(6)
C6G C 0.3382(6) -0.4720(5) 0.5092(7)
H5G H 0.3912 -0.4473 0.4683
C7G C 0.3943(6) -0.5270(4) 0.5569(7)
H6G H 0.4866 -0.5374 0.5506
C8G C 0.3163(7) -0.5662(4) 0.6133(5)
C9G C 0.1930(3) -0.54925(14) 0.62044(18)
H7G H 0.1366 -0.5767 0.6564
C10G C 0.1378(3) -0.49195(14) 0.57755(19)
H8G H 0.0474 -0.4800 0.5892
C11G C 0.3808(7) -0.6269(3) 0.6602(5)
O1G O 0.29790(18) -0.67562(8) 0.68396(11)
O2G O 0.5020(4) -0.6257(2) 0.6697(3)
H9G H 0.412(3) -0.2778(16) 0.316(2)
Cu1A Cu 0.34199(4) -0.7500 0.76567(2)
Cu1A_2 Cu 0.34199(4) 0.2500 0.76567(2)
O1A O 0.20210(18) -0.17562(8) 0.18396(11)
O1F O 0.20210(18) -0.32438(8) 0.18396(11)
C12? C 0.1837(9) -0.0255(4) 0.4919(5)
C13? C 0.2665(6) 0.0203(3) 0.4476(4)
H10? H 0.2849 0.0134 0.3874
C14? C 0.3224(6) 0.0763(3) 0.4912(4)
H11? H 0.3809 0.1067 0.4609
C15? C 0.2944(6) 0.0887(3) 0.5783(4)
H12? H 0.1631 0.0617 0.6771
H13? H 0.0705 -0.0352 0.6050
C16? C 0.3620(6) 0.1480(3) 0.6260(4)
O4? O 0.4764(4) 0.1663(3) 0.6013(4)
loop_
_geom_bond_atom_site_label_1
_geom_bond_atom_site_label_2
_geom_bond_site_symmetry_1
_geom_bond_site_symmetry_2
Cu1 N2 1_555 1_555
C1 H1 1_555 1_555
H2 C1 1_555 1_555
N1 C1 1_555 1_555
N2 N1 1_555 1_555
C2 N2 1_555 1_555
H3 C2 1_555 1_555
C3 C2 1_555 1_555
C4 N1 1_555 1_555
H4 C4 1_555 1_555
C5 C3 1_555 1_555
C6 C5 1_555 1_555
H5 C6 1_555 1_555
C7 C6 1_555 1_555
H6 C7 1_555 1_555
C8 C7 1_555 1_555
C9 C8 1_555 1_555
H7 C9 1_555 1_555
C10 C5 1_555 1_555
H8 C10 1_555 1_555
C11 C8 1_555 1_555
O1 C11 1_555 1_555
O2 C11 1_555 1_555
O3 Cu1 1_555 1_555
H9 O3 1_555 1_555
N1G C1 1_555 1_555
N2G Cu1 1_555 1_555
C2G N2G 1_555 1_555
H3G C2G 1_555 1_555
C3G C2G 1_555 1_555
C4G N1G 1_555 1_555
H4G C4G 1_555 1_555
C5G C3G 1_555 1_555
C6G C5G 1_555 1_555
H5G C6G 1_555 1_555
C7G C6G 1_555 1_555
H6G C7G 1_555 1_555
C8G C7G 1_555 1_555
C9G C8G 1_555 1_555
H7G C9G 1_555 1_555
C10G C5G 1_555 1_555
H8G C10G 1_555 1_555
C11G C8G 1_555 1_555
O1G C11G 1_555 1_555
O2G C11G 1_555 1_555
H9G O3 1_555 1_555
Cu1A O1G 1_555 1_555
Cu1A_2 O1 1_555 1_555
O1A Cu1 1_555 1_555
O1F Cu1 1_555 1_555
C3 C4 1_555 1_555
C9 C10 1_555 1_555
N1G N2G 1_555 1_555
C3G C4G 1_555 1_555
C9G C10G 1_555 1_555

#END
