
#######################################################################
#
#                 Cambridge Crystallographic Data Centre
#                                CCDC 
#
#######################################################################
#
# If this CIF has been generated from an entry in the Cambridge 
# Structural Database, then it will include bibliographic, chemical, 
# crystal, experimental, refinement or atomic coordinate data resulting 
# from the CCDC's data processing and validation procedures.
#
#######################################################################

data_WUTBEU
_chemical_name_common            MIL-163
_chemical_formula_moiety         
'(C14 H6 N4 O6 Zr1)n,7.25(H2 O1),1.25(C4 H9 N1 O1)'
_chemical_name_systematic        
"catena-[(\m-5,5'-(1,2,4,5-tetrazine-3,6-diyl)bis(2-hydroxybenzene-1,3-diolato))-zirconium N,N-dimethylacetamide solvate hydrate]"
_symmetry_cell_setting           tetragonal
_symmetry_space_group_name_H-M   'P 42/m m c'
_symmetry_Int_Tables_number      131
_space_group_name_Hall           '-P 4c 2'
loop_
_symmetry_equiv_pos_site_id
_symmetry_equiv_pos_as_xyz
1 x,y,z
2 -x,-y,z
3 -x,y,-z
4 -y,-x,1/2-z
5 -y,x,1/2+z
6 y,-x,1/2+z
7 y,x,1/2-z
8 x,-y,-z
9 -x,-y,-z
10 x,y,-z
11 x,-y,z
12 y,x,1/2+z
13 y,-x,1/2-z
14 -y,x,1/2-z
15 -y,-x,1/2+z
16 -x,y,z
_cell_length_a                   15.61521(15)
_cell_length_b                   15.61521(15)
_cell_length_c                   7.496277(85)
_cell_angle_alpha                90
_cell_angle_beta                 90
_cell_angle_gamma                90
_cell_volume                     1827.85
_exptl_crystal_colour            'dark red'
_cell_formula_units_Z            2
loop_
_atom_site_label
_atom_site_type_symbol
_atom_site_fract_x
_atom_site_fract_y
_atom_site_fract_z
O3 O 0.26427(95) 0.80728(90) 0.500
O4 O 0.2183(57) 0.500 0.551(15)
O5 O 0.4629(31) 0.4369(26) 0.000
O6 O 0.1132(17) 0.4321(18) 0.000
Zr1 Zr 0.000 0.000 0.250
N1 N 0.457734 0.000 0.152496
C1 C 0.415467 0.000 0.000
C2 C 0.321328 0.000 0.000
C3 C 0.276820 0.000 0.160583
C4 C 0.187804 0.000 0.160583
C5 C 0.143296 0.000 0.000
H1 H 0.306599 0.000 0.268024
O1 O 0.146178 0.000 0.310769
O2 O 0.066435 0.000 0.000
N1A N 0.542266 0.000 0.152496
C1H C 0.584533 0.000 0.000
C2H C 0.678672 0.000 0.000
C3A C 0.723180 0.000 0.160583
C4A C 0.812196 0.000 0.160583
C5H C 0.856704 0.000 0.000
H1A H 0.693401 0.000 0.268024
O1A O 0.853822 0.000 0.310769
O2H O 0.933565 0.000 0.000
N1H N 0.542266 0.000 -0.152496
C3H C 0.723180 0.000 -0.160583
C4H C 0.812196 0.000 -0.160583
H1H H 0.693401 0.000 -0.268024
O1H O 0.853822 0.000 -0.310769
N1G N 0.457734 0.000 -0.152496
C3G C 0.276820 0.000 -0.160583
C4G C 0.187804 0.000 -0.160583
H1G H 0.306599 0.000 -0.268024
O1G O 0.146178 0.000 -0.310769
Zr1H Zr 0.000 0.000 -0.250
Zr1H_2 Zr 1.000 0.000 -0.250
Zr1A Zr 1.000 0.000 0.250
O1A_2 O -0.146178 0.000 0.310769
O1C O 0.000 -0.146178 0.189231
O1M O 0.000 0.146178 0.189231
O2H_2 O -0.066435 0.000 0.000
O2C O 0.000 -0.066435 0.500
O2M O 0.000 0.066435 0.500
N2? N 0.569307 -0.739924 -0.704495
C6? C 0.625350 -0.763205 -0.823212
C7? C 0.573221 -0.657403 -0.683050
loop_
_geom_bond_atom_site_label_1
_geom_bond_atom_site_label_2
_geom_bond_site_symmetry_1
_geom_bond_site_symmetry_2
Zr1 O1 1_555 1_555
N1 C1 1_555 1_555
C1 C2 1_555 1_555
C2 C3 1_555 1_555
C3 C4 1_555 1_555
C4 C5 1_555 1_555
C5 O2 1_555 1_555
H1 C3 1_555 1_555
O1 C4 1_555 1_555
O2 Zr1 1_555 1_555
N1A N1 1_555 1_555
C1H N1A 1_555 1_555
C2H C1H 1_555 1_555
C3A C2H 1_555 1_555
C4A C3A 1_555 1_555
C5H C4A 1_555 1_555
H1A C3A 1_555 1_555
O1A C4A 1_555 1_555
O2H C5H 1_555 1_555
N1H C1H 1_555 1_555
C3H C2H 1_555 1_555
C4H C5H 1_555 1_555
H1H C3H 1_555 1_555
O1H C4H 1_555 1_555
N1G C1 1_555 1_555
C3G C2 1_555 1_555
C4G C5 1_555 1_555
H1G C3G 1_555 1_555
O1G C4G 1_555 1_555
Zr1H O2 1_555 1_555
Zr1H_2 O2H 1_555 1_555
Zr1A O1A 1_555 1_555
O1A_2 Zr1 1_555 1_555
O1C Zr1 1_555 1_555
O1M Zr1 1_555 1_555
O2H_2 Zr1 1_555 1_555
O2C Zr1 1_555 1_555
O2M Zr1 1_555 1_555
O2H Zr1A 1_555 1_555
N1H N1G 1_555 1_555
C3H C4H 1_555 1_555
O1H Zr1H_2 1_555 1_555
C3G C4G 1_555 1_555
O1G Zr1H 1_555 1_555
Zr1H O2H_2 1_555 1_555

#END
