
#######################################################################
#
#                 Cambridge Crystallographic Data Centre
#                                CCDC 
#
#######################################################################
#
# If this CIF has been generated from an entry in the Cambridge 
# Structural Database, then it will include bibliographic, chemical, 
# crystal, experimental, refinement or atomic coordinate data resulting 
# from the CCDC's data processing and validation procedures.
#
#######################################################################

data_ARAFOP
_chemical_formula_moiety         '(C13 H13 Cu1 N7 O1)n'
_chemical_name_systematic        
catena-((\m~4~-5,5'-benzene-1,4-diylbis(1,2,3-triazol-1-yl))-(\m~2~-dimethylformamide)-copper)
_symmetry_cell_setting           orthorhombic
_symmetry_space_group_name_H-M   'I m m a'
_symmetry_Int_Tables_number      74
_space_group_name_Hall           '-I 2b 2'
loop_
_symmetry_equiv_pos_site_id
_symmetry_equiv_pos_as_xyz
1 x,y,z
2 -x,1/2-y,z
3 -x,1/2+y,-z
4 x,-y,-z
5 1/2+x,1/2+y,1/2+z
6 1/2-x,-y,1/2+z
7 1/2-x,y,1/2-z
8 1/2+x,1/2-y,1/2-z
9 -x,-y,-z
10 x,1/2+y,-z
11 x,1/2-y,z
12 -x,y,z
13 1/2-x,1/2-y,1/2-z
14 1/2+x,y,1/2-z
15 1/2+x,-y,1/2+z
16 1/2-x,1/2+y,1/2+z
_cell_length_a                   24.561(3)
_cell_length_b                   6.9860(9)
_cell_length_c                   9.1333(13)
_cell_angle_alpha                90
_cell_angle_beta                 90
_cell_angle_gamma                90
_cell_volume                     1567.12
_exptl_crystal_colour            grey
_exptl_crystal_description       parallelepiped
_cell_formula_units_Z            4
loop_
_atom_site_label
_atom_site_type_symbol
_atom_site_fract_x
_atom_site_fract_y
_atom_site_fract_z
_atom_site_U_iso_or_equiv
_atom_site_thermal_displace_type
Cu1 Cu 0.5000 0.0000 -0.5000 0.0303 Uani
N1 N 0.44234(12) 0.1543(4) -0.4018(3) 0.0349 Uani
C1 C 0.3639(2) 0.2500 -0.3228(7) 0.0433 Uani
C2 C 0.3060(3) 0.2500 -0.2826(8) 0.0480 Uani
H1 H 0.3832 -0.0354 -0.3409 0.0540 Uiso
N2 N 0.39417(14) 0.0941(6) -0.3527(4) 0.0450 Uani
C3 C 0.2777(2) 0.0860(8) -0.2659(12) 0.1200 Uani
H2 H 0.2960 -0.0329 -0.2761 0.1440 Uiso
O1 O 0.5000 0.2500 -0.7012(7) 0.0473 Uani
N3 N 0.4451(10) 0.2500 -0.922(3) 0.1280 Uiso
C4 C 0.4614(11) 0.2500 -0.7760(18) 0.1070 Uani
C5 C 0.5000 0.2500 -0.994(3) 0.1860 Uiso
C6 C 0.3788(17) 0.2500 -0.957(4) 0.1720 Uiso
Cu1A Cu 0.5000 0.5000 -0.5000 0.0303 Uani
Cu1D Cu 0.0000 0.5000 0.0000 0.0303 Uani
Cu1E Cu 0.0000 0.0000 0.0000 0.0303 Uani
N1J N 0.44234(12) 0.3457(4) -0.4018(3) 0.0349 Uani
N1L N 0.05766(12) 0.3457(4) -0.0982(3) 0.0349 Uani
N1F N 0.05766(12) 0.1543(4) -0.0982(3) 0.0349 Uani
N1C N 0.44234(12) -0.1543(4) -0.5982(3) 0.0349 Uani
N1H N 0.55766(12) -0.1543(4) -0.5982(3) 0.0349 Uani
N1K N 0.55766(12) 0.1543(4) -0.4018(3) 0.0349 Uani
C1F C 0.1361(2) 0.2500 -0.1772(7) 0.0433 Uani
C2F C 0.1940(3) 0.2500 -0.2174(8) 0.0480 Uani
H1F H 0.1168 -0.0354 -0.1591 0.0540 Uiso
H1L H 0.1168 0.5354 -0.1591 0.0540 Uiso
H1J H 0.3832 0.5354 -0.3409 0.0540 Uiso
N2J N 0.39417(14) 0.4059(6) -0.3527(4) 0.0450 Uani
N2L N 0.10583(14) 0.4059(6) -0.1473(4) 0.0450 Uani
N2F N 0.10583(14) 0.0941(6) -0.1473(4) 0.0450 Uani
C3F C 0.2223(2) 0.0860(8) -0.2341(12) 0.1200 Uani
C3L C 0.2223(2) 0.4140(8) -0.2341(12) 0.1200 Uani
C3J C 0.2777(2) 0.4140(8) -0.2659(12) 0.1200 Uani
H2J H 0.2960 0.5329 -0.2761 0.1440 Uiso
H2L H 0.2040 0.5329 -0.2239 0.1440 Uiso
H2F H 0.2040 -0.0329 -0.2239 0.1440 Uiso
O1B O 0.5000 -0.2500 -0.2988(7) 0.0473 Uani
N3A N 0.5549(10) 0.2500 -0.922(3) 0.1280 Uiso
C4A C 0.5386(11) 0.2500 -0.7760(18) 0.1070 Uani
C6A C 0.6212(17) 0.2500 -0.957(4) 0.1720 Uiso
C7? C 0.39417(14) 0.0941(6) -0.3527(4) 0.0450 Uani
loop_
_atom_site_aniso_label
_atom_site_aniso_U_11
_atom_site_aniso_U_22
_atom_site_aniso_U_33
_atom_site_aniso_U_23
_atom_site_aniso_U_13
_atom_site_aniso_U_12
Cu1 0.0218(4) 0.0246(4) 0.0445(6) -0.0012(4) 0.000 0.000
N1 0.0274(13) 0.0319(15) 0.0455(18) 0.0033(14) 0.0079(13) -0.0025(12)
C1 0.034(3) 0.042(3) 0.054(4) 0.000 0.016(3) 0.000
C2 0.035(3) 0.041(3) 0.068(4) 0.000 0.025(3) 0.000
N2 0.0320(17) 0.044(2) 0.059(2) 0.0032(18) 0.0170(17) -0.0060(16)
C3 0.041(3) 0.036(3) 0.283(10) -0.005(4) 0.058(5) 0.003(2)
O1 0.052 0.038 0.052 0 0 0
C4 0.23 0.031 0.06 0 -0.072 0
Cu1A 0.0218 0.0246 0.0445 0.0012 0 0
Cu1D 0.0218 0.0246 0.0445 -0.0012 0 0
Cu1E 0.0218 0.0246 0.0445 0.0012 0 0
N1J 0.0274 0.0319 0.0455 -0.0033 0.0079 0.0025
N1L 0.0274 0.0319 0.0455 0.0033 0.0079 -0.0025
N1F 0.0274 0.0319 0.0455 -0.0033 0.0079 0.0025
N1C 0.0274 0.0319 0.0455 0.0033 -0.0079 0.0025
N1H 0.0274 0.0319 0.0455 0.0033 0.0079 -0.0025
N1K 0.0274 0.0319 0.0455 0.0033 -0.0079 0.0025
C1F 0.034 0.042 0.054 0 0.016 0
C2F 0.035 0.041 0.068 0 0.025 0
N2J 0.032 0.044 0.059 -0.0032 0.017 0.006
N2L 0.032 0.044 0.059 0.0032 0.017 -0.006
N2F 0.032 0.044 0.059 -0.0032 0.017 0.006
C3F 0.041 0.036 0.283 0.005 0.058 -0.003
C3L 0.041 0.036 0.283 -0.005 0.058 0.003
C3J 0.041 0.036 0.283 0.005 0.058 -0.003
O1B 0.052 0.038 0.052 0 0 0
C4A 0.23 0.031 0.06 0 0.072 0
C7? 0.0320(17) 0.044(2) 0.059(2) 0.0032(18) 0.0170(17) -0.0060(16)
loop_
_geom_bond_atom_site_label_1
_geom_bond_atom_site_label_2
_geom_bond_site_symmetry_1
_geom_bond_site_symmetry_2
Cu1 N1 1_555 1_555
N1 N2 1_555 1_555
C1 C2 1_555 1_555
C2 C3 1_555 1_555
H1 N2 1_555 1_555
N2 C1 1_555 1_555
C3 H2 1_555 1_555
O1 Cu1 1_555 1_555
N3 C4 1_555 1_555
C4 O1 1_555 1_555
C5 N3 1_555 1_555
C6 N3 1_555 1_555
Cu1A O1 1_555 1_555
Cu1D N1L 1_555 1_555
Cu1E N1F 1_555 1_555
N1J N1 1_555 1_555
N1L N1F 1_555 1_555
N1F N2F 1_555 1_555
N1C Cu1 1_555 1_555
N1H Cu1 1_555 1_555
N1K Cu1 1_555 1_555
C1F C2F 1_555 1_555
C2F C3F 1_555 1_555
H1F N2F 1_555 1_555
H1L N2L 1_555 1_555
H1J N2J 1_555 1_555
N2J C1 1_555 1_555
N2L N1L 1_555 1_555
N2F C1F 1_555 1_555
C3F C3 1_555 1_555
C3L C2F 1_555 1_555
C3J C2 1_555 1_555
H2J C3J 1_555 1_555
H2L C3L 1_555 1_555
H2F C3F 1_555 1_555
O1B Cu1 1_555 1_555
N3A C5 1_555 1_555
C4A O1 1_555 1_555
C6A N3A 1_555 1_555
Cu1A N1J 1_555 1_555
N1J N2J 1_555 1_555
C1F N2L 1_555 1_555
C3L C3J 1_555 1_555
N3A C4A 1_555 1_555

#END
