
#######################################################################
#
#                 Cambridge Crystallographic Data Centre
#                                CCDC 
#
#######################################################################
#
# If this CIF has been generated from an entry in the Cambridge 
# Structural Database, then it will include bibliographic, chemical, 
# crystal, experimental, refinement or atomic coordinate data resulting 
# from the CCDC's data processing and validation procedures.
#
#######################################################################

data_BOHJUF
_chemical_name_common            MOF-801(SC)
_chemical_formula_moiety         '(C48 H32 O64 Zr12)n,17.17n(H2 O1)'
_chemical_name_systematic        
'catena-(dodecakis(\m~4~-Fumarato)-octakis(\m~3~-hydroxo)-octakis(\m~3~-oxo)-dodeca-zirconium hydrate)'
_symmetry_cell_setting           triclinic
_symmetry_space_group_name_H-M   'P -1'
_symmetry_Int_Tables_number      2
_space_group_name_Hall           '-P 1'
loop_
_symmetry_equiv_pos_site_id
_symmetry_equiv_pos_as_xyz
1 x,y,z
2 -x,-y,-z
_cell_length_a                   17.809(6)
_cell_length_b                   17.831(6)
_cell_length_c                   17.812(6)
_cell_angle_alpha                90.031(6)
_cell_angle_beta                 90.182(6)
_cell_angle_gamma                89.999(6)
_cell_volume                     5656.21
_exptl_crystal_colour            colorless
_exptl_crystal_description       octahedral
_cell_formula_units_Z            2
_exptl_crystal_preparation       
'Crystal exposed to 100 percent relative humidity nitrogen.'
loop_
_atom_site_label
_atom_site_type_symbol
_atom_site_fract_x
_atom_site_fract_y
_atom_site_fract_z
Zr1 Zr 1.63777(10) 0.51040(11) 0.51099(11)
Zr2 Zr 1.13768(10) 0.48959(11) 1.01118(11)
Zr3 Zr 0.86239(10) -0.01054(11) 0.51111(11)
Zr4 Zr 1.48907(11) 0.63770(10) 0.51056(11)
Zr5 Zr 1.01061(11) 0.01106(11) 0.63780(10)
Zr6 Zr 0.98940(11) 0.51104(11) 1.13772(10)
Zr7 Zr 1.01098(11) -0.13765(10) 0.51047(11)
Zr8 Zr 0.98905(11) 0.36236(10) 1.01048(11)
Zr9 Zr 1.48950(11) 0.48877(11) 0.63774(10)
C1 C 0.998(2) 0.245(2) 0.788(2)
H1 H 0.9994 0.1952 0.8067
O1 O 1.1256(14) 0.4804(16) 0.8083(13)
O2 O 0.8111(11) -0.0083(14) 0.6240(11)
O3 O 1.0596(17) 0.4343(18) 0.9508(17)
O4 O 1.583(3) 0.420(3) 0.579(3)
O5 O 1.3769(12) 0.6897(12) 0.5087(14)
O6 O 0.9494(18) -0.0602(18) 0.5685(19)
O7 O 0.9215(18) -0.0891(19) 0.4341(18)
O8 O 1.2915(14) 0.5891(13) 0.4927(14)
O9 O 1.4108(18) 0.5651(17) 0.5776(17)
O10 O 1.0524(17) 0.4413(18) 1.0670(19)
O11 O 1.5492(17) 0.5601(17) 0.5664(18)
O12 O 1.1915(13) 0.3765(13) 1.0213(13)
O13 O 1.0904(19) -0.0655(18) 0.5782(18)
O14 O 0.6900(13) -0.0083(13) 0.8757(12)
O15 O 1.4903(14) 0.3760(13) 0.6911(12)
O16 O 1.5091(14) 0.2911(13) 0.5903(13)
O17 O 1.4923(14) 0.1243(12) 0.8102(12)
O18 O 1.0085(13) 0.1247(12) 0.6888(11)
O19 O 0.9928(15) 0.2912(13) 0.9095(13)
O20 O 1.2904(11) 0.4801(14) 0.5910(13)
O21 O 1.2084(13) 0.5910(13) 1.0094(14)
O22 O 1.3769(12) 0.8109(13) 0.9922(14)
O23 O 1.1229(12) 0.6897(13) 0.9914(14)
O24 O 1.3086(13) 0.1247(13) 1.0192(13)
O25 O 1.4088(12) 0.2105(11) 1.0183(13)
O26 O 1.5097(13) 0.2091(12) 0.9103(11)
O27 O 1.080(3) 0.582(3) 1.079(3)
O28 O 1.2903(12) 0.9082(13) 1.0073(15)
O29 O 0.5902(13) 0.0079(14) 0.7912(12)
O30 O 1.0069(14) 0.3760(13) 0.8102(12)
O31 O 0.9098(12) 0.0085(15) 0.7093(12)
O32 O 1.3773(13) 0.4800(15) 0.6923(14)
O33 O 0.9910(17) 0.2097(15) 0.5887(14)
C2 C 1.504(2) 0.3092(18) 0.6617(17)
C3 C 1.500(2) 0.2445(19) 0.7118(18)
H2 H 1.4962 0.1954 0.6916
C4 C 0.995(2) 0.192(2) 0.659(2)
O34 O 1.0909(13) 0.2895(12) 1.0191(14)
C5 C 0.8411(19) 0.002(2) 0.690(2)
C6 C 0.660(2) 0.005(2) 0.810(2)
C7 C 0.7119(19) 0.001(2) 0.746(2)
H3 H 0.6926 -0.0013 0.6964
C8 C 1.502(2) 0.2545(17) 0.7869(17)
H4 H 1.5012 0.3043 0.8060
C9 C 0.997(2) 0.309(2) 0.842(2)
O35 O 1.1220(12) 0.8100(13) 0.5072(14)
C10 C 1.1908(18) 0.8402(17) 0.496(2)
C11 C 0.998(2) 0.256(2) 0.710(2)
H5 H 1.0007 0.3059 0.6908
C12 C 1.2567(19) 0.7891(18) 0.497(2)
H6 H 1.3064 0.8084 0.4978
O36 O 1.2097(12) 0.4812(14) 0.9082(13)
C13 C 1.213(2) 0.2467(17) 1.015(3)
H7 H 1.1935 0.1974 1.0119
C14 C 1.2556(19) 0.481(3) 0.788(2)
H8 H 1.3054 0.4786 0.8070
C15 C 1.1896(17) 0.480(3) 0.842(2)
C16 C 0.7882(19) 0.000(2) 0.758(2)
H9 H 0.8080 -0.0021 0.8076
O37 O 1.5594(16) 0.5666(17) 0.4507(16)
O38 O 0.920(3) 0.082(3) 0.581(3)
C17 C 1.2443(19) 0.7892(18) 1.000(2)
H10 H 1.1947 0.8086 0.9965
C18 C 1.310(2) 0.8416(18) 1.003(2)
C19 C 1.3121(19) 0.483(3) 0.661(2)
C20 C 1.160(2) 0.3108(17) 1.020(3)
C21 C 1.245(2) 0.485(3) 0.714(2)
H11 H 1.1955 0.4880 0.6945
O39 O 1.2089(13) 0.9116(12) 0.4918(15)
C22 C 1.243(2) 0.7103(18) 0.499(2)
H12 H 1.1934 0.6910 0.5003
C23 C 1.341(2) 0.1893(18) 1.018(3)
C24 C 1.3080(19) 0.6599(18) 0.497(2)
C25 C 1.287(2) 0.2545(19) 1.016(3)
H13 H 1.3066 0.3039 1.0148
C26 C 1.188(2) 0.658(2) 1.004(2)
C27 C 1.2554(19) 0.7124(19) 1.002(2)
H14 H 1.3050 0.6928 1.0013
O40 O 0.9346(19) 0.4501(18) 1.0594(19)
C28 C 1.504(2) 0.1920(19) 0.8404(18)
Zr10 Zr 0.63767(10) -0.01048(11) 0.98908(11)
Zr11 Zr 0.51107(11) 0.13769(10) 1.01046(11)
Zr12 Zr 0.51067(11) -0.01100(11) 1.13763(10)
O41 O 0.439(3) -0.060(3) 1.062(3)
O42 O 0.4496(18) 0.0607(18) 1.0667(19)
O43 O 0.5910(19) 0.0658(18) 1.0779(18)
O44 O 0.5570(18) -0.0662(18) 1.0505(17)
O45 O 1.8098(12) 0.5100(14) 0.8766(13)
O46 O 1.6891(12) 0.5064(13) 0.6239(12)
O47 O 1.5904(12) 0.4909(14) 0.7094(12)
C29 C 1.6603(18) 0.494(2) 0.691(2)
C30 C 1.7876(19) 0.5001(18) 0.7446(16)
H15 H 1.8073 0.5016 0.6951
C31 C 1.714(2) 0.500(2) 0.754(2)
H16 H 1.6941 0.5031 0.8033
O48 O 1.9095(12) 0.4916(14) 0.7892(12)
C32 C 1.840(2) 0.498(2) 0.809(2)
O49 O 1.6912(13) 0.6223(14) 0.5205(13)
O50 O 1.8073(14) 0.8758(15) 0.5199(15)
O51 O 1.5903(13) 0.7112(12) 0.5188(14)
O52 O 1.9101(12) 0.7899(12) 0.5189(13)
C33 C 1.842(2) 0.8097(18) 0.518(3)
C34 C 1.660(2) 0.690(2) 0.516(3)
C35 C 1.786(2) 0.745(2) 0.519(3)
H17 H 1.8050 0.6954 0.5201
C36 C 1.712(2) 0.755(2) 0.518(3)
H18 H 1.6916 0.8042 0.5183
O53 O 1.4790(14) 0.8070(14) 0.8783(14)
O54 O 1.4798(15) 0.6902(14) 0.6232(13)
O55 O 1.4810(14) 0.9078(13) 0.7898(13)
C37 C 1.483(3) 0.786(2) 0.746(2)
H19 H 1.4835 0.8058 0.6960
O56 O 1.4817(14) 0.5918(13) 0.7114(14)
C38 C 1.482(3) 0.661(2) 0.6887(19)
C39 C 1.485(3) 0.714(2) 0.755(2)
H20 H 1.4873 0.6938 0.8043
C40 C 1.480(3) 0.841(2) 0.810(2)
O57 O 1.0205(14) -0.1926(14) 0.6237(15)
O58 O 1.0206(14) -0.0912(12) 0.7107(13)
O59 O 1.0166(13) -0.4087(13) 0.7891(12)
O60 O 1.0193(14) -0.3086(13) 0.8771(13)
C41 C 1.015(3) -0.288(2) 0.745(2)
H21 H 1.0107 -0.3084 0.6963
C42 C 1.018(3) -0.339(2) 0.8103(19)
C43 C 1.017(3) -0.1612(19) 0.689(2)
C44 C 1.018(3) -0.212(2) 0.755(2)
H22 H 1.0212 -0.1919 0.8038
O61 O 0.7889(12) -0.0187(13) 0.4106(12)
O62 O 0.7111(12) -0.0181(13) 0.0902(13)
O63 O 0.8771(13) -0.0187(15) 0.3100(13)
O64 O 0.6241(13) -0.0208(14) 0.1916(13)
C45 C 0.744(2) -0.018(3) 0.286(2)
H23 H 0.6938 -0.0229 0.3045
C46 C 0.8115(17) -0.015(3) 0.3407(18)
C47 C 0.757(2) -0.014(3) 0.215(2)
H24 H 0.8059 -0.0075 0.1957
C48 C 0.6887(18) -0.021(3) 0.163(2)
Zr1A Zr 1.36223(10) 0.48960(11) 0.48901(11)
Zr2A Zr 0.86232(10) 0.51041(11) 0.98882(11)
Zr2A_2 Zr 1.86232(10) 0.51041(11) 0.98882(11)
Zr3_2 Zr 1.86239(10) 0.98946(11) 0.51111(11)
Zr3A Zr 1.13761(10) 0.01054(11) 0.48889(11)
Zr3A_2 Zr 1.13761(10) 1.01054(11) 0.48889(11)
Zr4A Zr 1.51093(11) 0.36230(10) 0.48944(11)
Zr5A Zr 0.98939(11) -0.01106(11) 0.36220(10)
Zr6A Zr 1.01060(11) -0.51104(11) 0.86228(10)
Zr6A_2 Zr 1.01060(11) 0.48896(11) 0.86228(10)
Zr6A_3 Zr 2.01060(11) 0.48896(11) 0.86228(10)
Zr7_2 Zr 1.01098(11) 0.86235(10) 0.51047(11)
Zr7_3 Zr 2.01098(11) 0.86235(10) 0.51047(11)
Zr7A Zr 0.98902(11) 0.13765(10) 0.48953(11)
Zr8A Zr 1.01095(11) -0.36236(10) 0.98952(11)
Zr8A_2 Zr 1.01095(11) 0.63764(10) 0.98952(11)
Zr9A Zr 1.51050(11) 0.51123(11) 0.36226(10)
O1A O 0.8744(14) 0.5196(16) 1.1917(13)
O3A O 0.9404(17) 0.5657(18) 1.0492(17)
O4A O 1.417(3) 0.580(3) 0.421(3)
O7A O 1.0785(18) 0.0891(19) 0.5659(18)
O8A O 1.7085(14) 0.4109(13) 0.5073(14)
O9A O 1.5892(18) 0.4349(17) 0.4224(17)
O13A O 0.9096(19) 0.0655(18) 0.4218(18)
O16A O 1.4909(14) 0.7089(13) 0.4097(13)
O17A O 0.5077(14) -0.1243(12) 1.1898(12)
O20A O 1.7096(11) 0.5199(14) 0.4090(13)
O22A O 0.6231(12) 0.1891(13) 1.0078(14)
O23A O 0.8771(12) 0.3103(13) 1.0086(14)
O24A O 0.6914(13) -0.1247(13) 0.9808(13)
O25_2 O 0.4088(12) 0.2105(11) 1.0183(13)
O26_2 O 0.5097(13) 0.2091(12) 0.9103(11)
O27A O 0.920(3) 0.418(3) 0.921(3)
O28A O 0.7097(12) 0.0918(13) 0.9927(15)
O29A O 0.4098(13) -0.0079(14) 1.2088(12)
O30A O 0.9931(14) 0.6240(13) 1.1898(12)
O33A O 1.0090(17) -0.2097(15) 0.4113(14)
O35_2 O 1.1220(12) -0.1900(13) 0.5072(14)
O37A O 1.4406(16) 0.4334(17) 0.5493(16)
O38A O 1.080(3) -0.082(3) 0.419(3)
O39A O 0.7911(13) 0.0884(12) 0.5082(15)
O40A O 1.0654(19) 0.5499(18) 0.9406(19)
Zr10_2 Zr 0.63767(10) -0.01048(11) -0.01092(11)
Zr10A Zr 0.36233(10) 0.01048(11) 1.01092(11)
Zr10A_2 Zr 1.36233(10) 0.01048(11) 1.01092(11)
Zr10A_3 Zr 1.36233(10) 1.01048(11) 1.01092(11)
Zr11_2 Zr 1.51107(11) 0.13769(10) 1.01046(11)
Zr11A Zr 0.48893(11) -0.13769(10) 0.98954(11)
Zr11A_2 Zr 1.48893(11) 0.86231(10) 0.98954(11)
Zr12_2 Zr 0.51067(11) -0.01100(11) 0.13763(10)
Zr12A Zr 0.48933(11) 0.01100(11) 0.86237(10)
Zr12A_2 Zr 1.48933(11) 0.01100(11) 0.86237(10)
Zr12A_3 Zr 1.48933(11) 1.01100(11) 0.86237(10)
O41A O 0.561(3) 0.060(3) 0.938(3)
O42A O 0.5504(18) -0.0607(18) 0.9333(19)
O44A O 0.4430(18) 0.0662(18) 0.9495(17)
O45A O 1.1902(12) 0.4900(14) 1.1234(13)
O48A O 1.0905(12) 0.5084(14) 1.2108(12)
O50_2 O 0.8073(14) -0.1242(15) 0.5199(15)
O52_2 O 0.9101(12) -0.2101(12) 0.5189(13)
O53A O 0.5210(14) 0.1930(14) 1.1217(14)
O55A O 0.5190(14) 0.0922(13) 1.2102(13)
O59A O 0.9834(13) 0.4087(13) 1.2109(12)
O60A O 0.9807(14) 0.3086(13) 1.1229(13)
O62_2 O 0.7111(12) -0.0181(13) 1.0902(13)
O63A O 1.1229(13) 0.0187(15) 0.6900(13)
O64_2 O 0.6241(13) -0.0208(14) 1.1916(13)
O65 O 0.829(3) -0.180(3) 0.349(3)
O66 O 1.347(4) 1.174(4) 1.180(4)
O67 O 0.847(4) -0.178(4) 0.679(4)
O68 O 0.834(4) -0.317(4) 0.671(4)
O69 O 0.846(4) -0.324(4) 0.819(4)
O70 O 1.175(3) 0.673(3) 0.326(3)
O71 O 1.169(3) 0.829(3) 0.329(3)
O72 O 1.172(3) 0.830(3) 0.172(3)
O73 O 1.650(3) 0.671(3) 0.682(3)
O74 O 1.328(3) 0.828(3) 0.325(3)
O75 O 1.168(3) 0.667(3) 0.170(3)
O76 O 1.330(3) 0.831(3) 1.168(3)
O77 O 1.332(3) 0.674(3) 1.171(3)
O78 O 1.670(3) 0.331(3) 0.669(3)
O79 O 1.673(3) 0.681(3) 0.348(3)
O80 O 0.323(3) -0.344(3) 0.676(3)
O81 O 1.174(4) 0.316(4) 0.850(4)
O82 O 1.182(3) -0.153(3) 0.675(3)
O83 O 0.831(5) 0.333(5) 1.326(5)
O84 O 1.676(5) 0.677(5) 0.826(5)
O85 O 1.669(4) 0.817(4) 1.151(4)
O86 O 1.419(7) 0.590(7) 1.077(7)
O87 O 0.969(7) 0.956(7) 0.865(7)
O88 O 1.089(7) 0.914(7) 0.074(7)
O89 O 1.136(6) 0.950(6) -0.053(6)
O90 O 1.080(7) 0.589(7) 0.417(7)
O91 O 0.833(6) -0.171(6) 0.829(6)
O92 O 0.675(5) 0.329(5) 1.177(5)
O93 O 0.954(7) 0.634(7) 0.477(7)
O94 O 0.541(5) -0.057(6) 0.629(6)
O95 O 0.963(7) 0.557(7) 0.634(7)
O96 O 0.683(3) 0.153(3) 1.172(3)
O97 O 1.546(8) 0.638(8) 1.010(8)
O98 O 1.368(6) 0.943(6) 0.558(6)
O99 O 1.167(5) 0.831(5) 0.825(5)
O100 O 1.134(6) 0.517(6) 0.544(6)
O101 O 1.363(7) 0.498(7) 0.962(7)
O102 O 0.542(6) -0.136(6) 0.488(6)
O103 O 1.444(7) 0.443(7) 1.129(7)
O104 O 0.957(7) 0.865(7) 0.019(7)
O105 O 1.417(9) 0.916(9) 0.411(9)
O106 O 0.826(7) -0.329(7) 0.322(7)
O107 O 1.672(5) 0.827(5) 0.329(5)
O108 O 1.674(6) 0.675(6) 1.167(6)
O109? O 0.9095(19) 0.4344(18) 1.0782(18)
O110? O 0.823(3) 0.347(3) 1.172(3)
O111? O 1.560(3) 0.441(3) 0.559(3)
O112? O 1.5789(19) 0.5913(19) 0.4332(19)
O113? O 1.4364(17) 0.5472(16) 0.5589(16)
O114? O 1.5660(19) 0.5796(19) 0.590(2)
O115? O 0.939(3) 0.060(3) 0.561(3)
O116? O 1.0662(17) -0.0498(16) 0.5602(17)
O117? O 0.9414(17) -0.0673(17) 0.4539(17)
O118? O 0.931(2) -0.077(2) 0.590(2)
O119? O 0.5669(18) 0.0488(17) 1.0586(18)
O120? O 0.5783(18) -0.0900(18) 1.0680(17)
O121? O 0.420(3) -0.081(3) 1.079(3)
O122? O 0.4331(19) 0.0780(19) 1.091(2)
O123? O 1.060(2) 0.558(2) 1.061(2)
O124? O 1.0649(19) 0.4229(19) 1.092(2)
O125? O 1.0784(18) 0.4116(19) 0.9342(18)
loop_
_geom_bond_atom_site_label_1
_geom_bond_atom_site_label_2
_geom_bond_site_symmetry_1
_geom_bond_site_symmetry_2
Zr1 O4 1_555 1_555
Zr2 O3 1_555 1_555
Zr3 O2 1_555 1_555
Zr4 O5 1_555 1_555
Zr5 O6 1_555 1_555
Zr6 O10 1_555 1_555
Zr7 O6 1_555 1_555
Zr8 O3 1_555 1_555
Zr9 O4 1_555 1_555
C1 H1 1_555 1_555
O1 C15 1_555 1_555
O2 C5 1_555 1_555
O3 Zr6A_2 1_555 1_555
O4 Zr4A 1_555 1_555
O5 C24 1_555 1_555
O6 Zr3 1_555 1_555
O7 Zr3 1_555 1_555
O8 C24 1_555 1_555
O9 Zr4 1_555 1_555
O10 Zr2 1_555 1_555
O11 Zr1 1_555 1_555
O12 Zr2 1_555 1_555
O13 Zr5 1_555 1_555
O14 C6 1_555 1_555
O15 Zr9 1_555 1_555
O16 C2 1_555 1_555
O17 C28 1_555 1_555
O18 Zr5 1_555 1_555
O19 Zr8 1_555 1_555
O20 C19 1_555 1_555
O21 Zr2 1_555 1_555
O22 C18 1_555 1_555
O23 C26 1_555 1_555
O24 C23 1_555 1_555
O25 C23 1_555 1_555
O26 C28 1_555 1_555
O27 Zr2 1_555 1_555
O28 C18 1_555 1_555
O29 C6 1_555 1_555
O30 C9 1_555 1_555
O31 Zr5 1_555 1_555
O32 Zr9 1_555 1_555
O33 C4 1_555 1_555
C2 O15 1_555 1_555
C3 C2 1_555 1_555
H2 C3 1_555 1_555
C4 O18 1_555 1_555
O34 Zr8 1_555 1_555
C5 O31 1_555 1_555
C6 C7 1_555 1_555
C7 H3 1_555 1_555
C8 C3 1_555 1_555
H4 C8 1_555 1_555
C9 C1 1_555 1_555
O35 C10 1_555 1_555
C10 C12 1_555 1_555
C11 C1 1_555 1_555
H5 C11 1_555 1_555
C12 H6 1_555 1_555
O36 Zr2 1_555 1_555
C13 H7 1_555 1_555
C14 H8 1_555 1_555
C15 O36 1_555 1_555
C16 C5 1_555 1_555
H9 C16 1_555 1_555
O37 Zr1 1_555 1_555
O38 Zr3 1_555 1_555
C17 H10 1_555 1_555
C18 C17 1_555 1_555
C19 O32 1_555 1_555
C20 O12 1_555 1_555
C21 C14 1_555 1_555
H11 C21 1_555 1_555
O39 C10 1_555 1_555
C22 C12 1_555 1_555
H12 C22 1_555 1_555
C23 C25 1_555 1_555
C24 C22 1_555 1_555
C25 C13 1_555 1_555
H13 C25 1_555 1_555
C26 O21 1_555 1_555
C27 C17 1_555 1_555
H14 C27 1_555 1_555
O40 Zr6 1_555 1_555
C28 C8 1_555 1_555
Zr10 O14 1_555 1_555
Zr11 O42 1_555 1_555
Zr12 O41 1_555 1_555
O41 Zr10A 1_555 1_555
O42 Zr12 1_555 1_555
O43 Zr10 1_555 1_555
O44 Zr10 1_555 1_555
O45 C32 1_555 1_555
O46 Zr1 1_555 1_555
O47 Zr9 1_555 1_555
C29 O46 1_555 1_555
C30 H15 1_555 1_555
C31 C29 1_555 1_555
H16 C31 1_555 1_555
O48 C32 1_555 1_555
C32 C30 1_555 1_555
O49 Zr1 1_555 1_555
O50 C33 1_555 1_555
O51 Zr4 1_555 1_555
O52 C33 1_555 1_555
C33 C35 1_555 1_555
C34 O49 1_555 1_555
C35 H17 1_555 1_555
C36 C34 1_555 1_555
H18 C36 1_555 1_555
O53 C40 1_555 1_555
O54 Zr4 1_555 1_555
O55 C40 1_555 1_555
C37 H19 1_555 1_555
O56 Zr9 1_555 1_555
C38 O54 1_555 1_555
C39 C37 1_555 1_555
H20 C39 1_555 1_555
C40 C37 1_555 1_555
O57 Zr7 1_555 1_555
O58 Zr5 1_555 1_555
O59 C42 1_555 1_555
O60 C42 1_555 1_555
C41 H21 1_555 1_555
C42 C41 1_555 1_555
C43 O57 1_555 1_555
C44 C41 1_555 1_555
H22 C44 1_555 1_555
O61 Zr3 1_555 1_555
O62 C48 1_555 1_555
O63 C46 1_555 1_555
O64 C48 1_555 1_555
C45 H23 1_555 1_555
C46 O61 1_555 1_555
C47 C45 1_555 1_555
H24 C47 1_555 1_555
C48 C47 1_555 1_555
Zr1A O8 1_555 1_555
Zr2A O40 1_555 1_555
Zr2A_2 O45 1_555 1_555
Zr3_2 O50 1_555 1_555
Zr3A O13 1_555 1_555
Zr3A_2 O39 1_555 1_555
Zr4A O16 1_555 1_555
Zr5A O7 1_555 1_555
Zr6A O59 1_555 1_555
Zr6A_2 O1 1_555 1_555
Zr6A_3 O48 1_555 1_555
Zr7_2 O35 1_555 1_555
Zr7_3 O52 1_555 1_555
Zr7A O33 1_555 1_555
Zr8A O60 1_555 1_555
Zr8A_2 O23 1_555 1_555
Zr9A O37 1_555 1_555
O1A Zr6 1_555 1_555
O3A Zr6 1_555 1_555
O4A Zr4 1_555 1_555
O7A Zr5 1_555 1_555
O8A Zr1 1_555 1_555
O9A Zr1 1_555 1_555
O13A Zr3 1_555 1_555
O16A Zr4 1_555 1_555
O17A Zr12 1_555 1_555
O20A Zr1 1_555 1_555
O22A Zr11 1_555 1_555
O23A Zr8 1_555 1_555
O24A Zr10 1_555 1_555
O25_2 Zr11 1_555 1_555
O26_2 Zr11 1_555 1_555
O27A Zr8 1_555 1_555
O28A Zr10 1_555 1_555
O29A Zr12 1_555 1_555
O30A Zr6 1_555 1_555
O33A Zr7 1_555 1_555
O35_2 Zr7 1_555 1_555
O37A Zr9 1_555 1_555
O38A Zr7 1_555 1_555
O39A Zr3 1_555 1_555
O40A Zr2 1_555 1_555
Zr10_2 O62 1_555 1_555
Zr10A O42 1_555 1_555
Zr10A_2 O24 1_555 1_555
Zr10A_3 O28 1_555 1_555
Zr11_2 O25 1_555 1_555
Zr11A O41 1_555 1_555
Zr11A_2 O22 1_555 1_555
Zr12_2 O64 1_555 1_555
Zr12A O29 1_555 1_555
Zr12A_2 O17 1_555 1_555
Zr12A_3 O55 1_555 1_555
O41A Zr10 1_555 1_555
O42A Zr10 1_555 1_555
O44A Zr11 1_555 1_555
O45A Zr2 1_555 1_555
O48A Zr6 1_555 1_555
O50_2 Zr3 1_555 1_555
O52_2 Zr7 1_555 1_555
O53A Zr11 1_555 1_555
O55A Zr12 1_555 1_555
O59A Zr6 1_555 1_555
O60A Zr8 1_555 1_555
O62_2 Zr10 1_555 1_555
O63A Zr5 1_555 1_555
O64_2 Zr12 1_555 1_555
Zr4 O11 1_555 1_555
Zr4 O37 1_555 1_555
Zr5 O38 1_555 1_555
Zr6 O27 1_555 1_555
Zr7 O7 1_555 1_555
Zr7 O13 1_555 1_555
Zr8 O10 1_555 1_555
Zr8 O40 1_555 1_555
Zr9 O9 1_555 1_555
Zr9 O11 1_555 1_555
O9 Zr1A 1_555 1_555
O19 C9 1_555 1_555
O20 Zr1A 1_555 1_555
O26 Zr11_2 1_555 1_555
O27 Zr8A_2 1_555 1_555
O30 Zr6A_2 1_555 1_555
C4 C11 1_555 1_555
O34 C20 1_555 1_555
C7 C16 1_555 1_555
C13 C20 1_555 1_555
C14 C15 1_555 1_555
O38 Zr7A 1_555 1_555
C19 C21 1_555 1_555
C26 C27 1_555 1_555
Zr11 O43 1_555 1_555
Zr11 O41A 1_555 1_555
Zr12 O43 1_555 1_555
Zr12 O44 1_555 1_555
O44 Zr11A 1_555 1_555
O47 C29 1_555 1_555
C30 C31 1_555 1_555
O51 C34 1_555 1_555
C35 C36 1_555 1_555
O53 Zr11A_2 1_555 1_555
O56 C38 1_555 1_555
C38 C39 1_555 1_555
O58 C43 1_555 1_555
C43 C44 1_555 1_555
O63 Zr5A 1_555 1_555
C45 C46 1_555 1_555
Zr1A O4A 1_555 1_555
Zr1A O37A 1_555 1_555
Zr2A O3A 1_555 1_555
Zr2A O27A 1_555 1_555
Zr3A O7A 1_555 1_555
Zr3A O38A 1_555 1_555
Zr4A O9A 1_555 1_555
Zr4A O37A 1_555 1_555
Zr5A O13A 1_555 1_555
Zr5A O38A 1_555 1_555
Zr6A_2 O27A 1_555 1_555
Zr6A_2 O40A 1_555 1_555
Zr7A O7A 1_555 1_555
Zr7A O13A 1_555 1_555
Zr8A_2 O3A 1_555 1_555
Zr8A_2 O40A 1_555 1_555
Zr9A O4A 1_555 1_555
Zr9A O9A 1_555 1_555
Zr10A O44A 1_555 1_555
Zr11A O42A 1_555 1_555
Zr12A O41A 1_555 1_555
Zr12A O42A 1_555 1_555
Zr12A O44A 1_555 1_555

#END
