
#######################################################################
#
#                 Cambridge Crystallographic Data Centre
#                                CCDC 
#
#######################################################################
#
# If this CIF has been generated from an entry in the Cambridge 
# Structural Database, then it will include bibliographic, chemical, 
# crystal, experimental, refinement or atomic coordinate data resulting 
# from the CCDC's data processing and validation procedures.
#
#######################################################################

data_BOHWOM
_chemical_name_common            MOF-812
_chemical_formula_moiety         
'(C87 H60 O36 Zr6)n,0.67n(C3 H7 N1 O1),3n(C1 H4 O1)'
_chemical_name_systematic        
"catena-[tris(\m-4,4',4'',4'''-Methanetetrayltetrabenzoato)-tetrakis(\m-hydroxo)-tetrakis(\m-oxo)-tetra-aqua-hexa-zirconium N,N-dimethylformamide methanol solvate]"
_symmetry_cell_setting           monoclinic
_symmetry_space_group_name_H-M   'C 2/c'
_symmetry_Int_Tables_number      15
_space_group_name_Hall           '-C 2yc'
loop_
_symmetry_equiv_pos_site_id
_symmetry_equiv_pos_as_xyz
1 x,y,z
2 -x,y,1/2-z
3 1/2+x,1/2+y,z
4 1/2-x,1/2+y,1/2-z
5 -x,-y,-z
6 x,-y,1/2+z
7 1/2-x,1/2-y,-z
8 1/2+x,1/2-y,1/2+z
_cell_length_a                   23.9651(11)
_cell_length_b                   29.2842(13)
_cell_length_c                   17.3545(9)
_cell_angle_alpha                90
_cell_angle_beta                 96.301(2)
_cell_angle_gamma                90
_cell_volume                     12105.8
_cell_formula_units_Z            4
loop_
_atom_site_label
_atom_site_type_symbol
_atom_site_fract_x
_atom_site_fract_y
_atom_site_fract_z
Zr1 Zr 0.16605(2) 0.20733(2) -0.46643(4)
Zr2 Zr 0.29804(2) 0.23111(2) -0.37064(3)
Zr3 Zr 0.21407(2) 0.32190(2) -0.44742(3)
O1 O 0.2926(9) 0.2922(8) -0.4341(15)
O2 O 0.1390(2) 0.33557(18) -0.3966(3)
O3 O 0.2393(2) 0.33962(17) -0.3225(3)
O4 O 0.3851(3) 0.2497(2) -0.3232(4)
O5 O 0.2909(3) 0.27799(18) -0.2744(4)
O6 O 0.2494(5) 0.3238(4) -0.5621(6)
O7 O 0.2070(7) 0.2576(5) -0.3801(10)
O8 O 0.0946(3) 0.2369(2) -0.4075(5)
O9 O 0.1546(9) 0.2755(8) -0.5294(13)
O10 O 0.3326(2) 0.32484(17) 0.3503(3)
O11 O 0.2455(2) 0.30821(16) 0.2868(3)
O12 O -0.1539(2) 0.66731(16) -0.3528(3)
O13 O 0.2601(2) 0.61340(16) 0.0507(3)
O14 O -0.1613(2) 0.63239(16) -0.4697(3)
O15 O 0.3401(4) 0.63250(19) -0.0099(4)
O16 O 0.5884(3) 0.3042(3) -0.0373(7)
C1 C 0.3009(5) 0.4118(3) -0.1222(6)
C2 C 0.2870(4) 0.3425(3) -0.1969(5)
C3 C 0.2947(4) 0.3261(3) 0.2931(5)
C4 C 0.3602(4) 0.4102(3) 0.0113(5)
C5 C 0.3103(4) 0.3498(3) 0.2216(5)
C6 C 0.2696(4) 0.3184(3) -0.2721(6)
C7 C 0.3476(4) 0.4616(3) 0.0165(5)
C8 C 0.3412(4) 0.3891(3) 0.0856(5)
C9 C 0.3047(4) 0.6044(3) 0.0209(6)
C10 C 0.3201(4) 0.5550(3) 0.0205(6)
C11 C 0.2791(5) 0.3891(3) -0.1902(6)
C12 C 0.3291(5) 0.3874(3) -0.0611(5)
C13 C 0.3135(5) 0.3178(3) -0.1345(6)
C14 C 0.3345(6) 0.3402(3) -0.0680(6)
C15 C 0.4220(5) 0.3998(4) 0.0012(7)
C16 C 0.2920(4) 0.3646(4) 0.0845(6)
C17 C 0.3717(5) 0.3976(4) 0.1566(6)
C18 C 0.2941(5) 0.4752(3) 0.0271(9)
C19 C 0.2798(5) 0.5223(3) 0.0294(8)
C20 C 0.3571(5) 0.3779(4) 0.2235(6)
C21 C 0.2755(5) 0.3461(4) 0.1520(6)
C22 C 0.4419(6) 0.4150(5) -0.0662(9)
C23 C 0.3732(5) 0.5408(4) 0.0089(11)
C24 C 0.3863(5) 0.4941(3) 0.0061(9)
C25 C 0.5182(6) 0.3641(6) -0.0434(9)
C26 C 0.4497(6) 0.3652(5) 0.0413(9)
C27 C 0.4989(7) 0.3490(6) 0.0195(10)
C28 C 0.5685(6) 0.3383(6) -0.0743(9)
C29 C 0.4903(7) 0.3984(6) -0.0921(10)
C30 C -0.0432(3) 0.5267(2) -0.2928(4)
C31 C 0.0256(3) 0.4604(2) -0.3050(4)
C32 C 0.0089(3) 0.3967(2) -0.3936(5)
C33 C 0.1032(3) 0.4156(3) -0.3392(5)
C34 C 0.0670(3) 0.3872(2) -0.3851(4)
C35 C 0.0000 0.4941(3) -0.2500
C36 C -0.0837(4) 0.5672(3) -0.4077(5)
C37 C -0.0109(3) 0.4331(2) -0.3540(5)
C38 C -0.0490(3) 0.5326(2) -0.3716(5)
C39 C -0.0731(4) 0.5553(3) -0.2471(5)
C40 C 0.0829(3) 0.4523(2) -0.2991(5)
C41 C -0.1112(4) 0.5961(2) -0.3613(5)
C42 C -0.1458(4) 0.6346(2) -0.3979(5)
C43 C -0.1063(4) 0.5904(3) -0.2809(5)
C44 C 0.0887(4) 0.3461(3) -0.4210(5)
O17 O 0.0565(3) 0.3222(3) -0.4662(6)
O18 O 0.5884(7) 0.3514(8) -0.1384(11)
O2A O -0.1390(2) 0.33557(18) -0.1034(3)
O12A O 0.1539(2) 0.66731(16) -0.1472(3)
O14A O 0.1613(2) 0.63239(16) -0.0303(3)
C30A C 0.0432(3) 0.5267(2) -0.2072(4)
C31A C -0.0256(3) 0.4604(2) -0.1950(4)
C32A C -0.0089(3) 0.3967(2) -0.1064(5)
C33A C -0.1032(3) 0.4156(3) -0.1608(5)
C34A C -0.0670(3) 0.3872(2) -0.1149(4)
C36A C 0.0837(4) 0.5672(3) -0.0923(5)
C37A C 0.0109(3) 0.4331(2) -0.1460(5)
C38A C 0.0490(3) 0.5326(2) -0.1284(5)
C39A C 0.0731(4) 0.5553(3) -0.2529(5)
C40A C -0.0829(3) 0.4523(2) -0.2009(5)
C41A C 0.1112(4) 0.5961(2) -0.1387(5)
C42A C 0.1458(4) 0.6346(2) -0.1021(5)
C43A C 0.1063(4) 0.5904(3) -0.2191(5)
C44A C -0.0887(4) 0.3461(3) -0.0790(5)
O17A O -0.0565(3) 0.3222(3) -0.0338(6)
Zr1A Zr -0.16605(2) 0.20733(2) -0.03357(4)
Zr2A Zr -0.29804(2) 0.23111(2) -0.12936(3)
Zr3A Zr -0.21407(2) 0.32190(2) -0.05258(3)
O1A O -0.2926(9) 0.2922(8) -0.0659(15)
O3A O -0.2393(2) 0.33962(17) -0.1775(3)
O4A O -0.3851(3) 0.2497(2) -0.1768(4)
O5A O -0.2909(3) 0.27799(18) -0.2256(4)
O6A O -0.2494(5) 0.3238(4) 0.0621(6)
O7A O -0.2070(7) 0.2576(5) -0.1199(10)
O8A O -0.0946(3) 0.2369(2) -0.0925(5)
O9A O -0.1546(9) 0.2755(8) 0.0294(13)
O10A O -0.3326(2) 0.32484(17) -0.8503(3)
O11A O -0.2455(2) 0.30821(16) -0.7868(3)
O13A O -0.2601(2) 0.61340(16) -0.5507(3)
O15A O -0.3401(4) 0.63250(19) -0.4901(4)
O16A O -0.5884(3) 0.3042(3) -0.4627(7)
C1A C -0.3009(5) 0.4118(3) -0.3778(6)
C2A C -0.2870(4) 0.3425(3) -0.3031(5)
C3A C -0.2947(4) 0.3261(3) -0.7931(5)
C4A C -0.3602(4) 0.4102(3) -0.5113(5)
C5A C -0.3103(4) 0.3498(3) -0.7216(5)
C6A C -0.2696(4) 0.3184(3) -0.2279(6)
C7A C -0.3476(4) 0.4616(3) -0.5165(5)
C8A C -0.3412(4) 0.3891(3) -0.5856(5)
C9A C -0.3047(4) 0.6044(3) -0.5209(6)
C10A C -0.3201(4) 0.5550(3) -0.5205(6)
C11A C -0.2791(5) 0.3891(3) -0.3098(6)
C12A C -0.3291(5) 0.3874(3) -0.4389(5)
C13A C -0.3135(5) 0.3178(3) -0.3655(6)
C14A C -0.3345(6) 0.3402(3) -0.4320(6)
C15A C -0.4220(5) 0.3998(4) -0.5012(7)
C16A C -0.2920(4) 0.3646(4) -0.5845(6)
C17A C -0.3717(5) 0.3976(4) -0.6566(6)
C18A C -0.2941(5) 0.4752(3) -0.5271(9)
C19A C -0.2798(5) 0.5223(3) -0.5294(8)
C20A C -0.3571(5) 0.3779(4) -0.7235(6)
C21A C -0.2755(5) 0.3461(4) -0.6520(6)
C22A C -0.4419(6) 0.4150(5) -0.4338(9)
C23A C -0.3732(5) 0.5408(4) -0.5089(11)
C24A C -0.3863(5) 0.4941(3) -0.5061(9)
C25A C -0.5182(6) 0.3641(6) -0.4566(9)
C26A C -0.4497(6) 0.3652(5) -0.5413(9)
C27A C -0.4989(7) 0.3490(6) -0.5195(10)
C28A C -0.5685(6) 0.3383(6) -0.4257(9)
C29A C -0.4903(7) 0.3984(6) -0.4079(10)
O18A O -0.5884(7) 0.3514(8) -0.3616(11)
Zr1B Zr -0.33395(2) 0.70733(2) -0.46643(4)
Zr1C Zr 0.33395(2) 0.70733(2) -0.03357(4)
Zr1F Zr -0.66605(2) 0.29267(2) -0.53357(4)
Zr1F_2 Zr 0.33395(2) 0.29267(2) -0.53357(4)
Zr1F_3 Zr 0.33395(2) 0.29267(2) 0.46643(4)
Zr1G Zr -0.33395(2) 0.29267(2) -0.96643(4)
Zr1G_2 Zr -0.33395(2) 0.29267(2) 0.03357(4)
Zr1G_3 Zr 0.66605(2) 0.29267(2) 0.03357(4)
Zr2B Zr -0.20196(2) 0.73111(2) -0.37064(3)
Zr2C Zr 0.20196(2) 0.73111(2) -0.12936(3)
Zr2F Zr 0.20196(2) 0.26889(2) -0.62936(3)
Zr2F_2 Zr 0.20196(2) 0.26889(2) 0.37064(3)
Zr2G Zr -0.20196(2) 0.26889(2) -0.87064(3)
Zr2G_2 Zr -0.20196(2) 0.26889(2) 0.12936(3)
Zr3D Zr -0.21407(2) 0.67810(2) -0.55258(3)
Zr3E Zr 0.21407(2) 0.67810(2) 0.05258(3)
O1F O 0.2074(9) 0.2078(8) -0.5659(15)
O1G O -0.2074(9) 0.2078(8) 0.0659(15)
O6F O 0.2506(5) 0.1762(4) -0.4379(6)
O6G O -0.2506(5) 0.1762(4) -0.0621(6)
O9F O 0.3454(9) 0.2245(8) -0.4706(13)
O9G O -0.3454(9) 0.2245(8) -0.0294(13)
O10F O 0.1674(2) 0.17516(17) -0.3503(3)
O10G O -0.1674(2) 0.17516(17) -0.1497(3)
O11F O 0.2545(2) 0.19179(16) -0.2868(3)
O11G O -0.2545(2) 0.19179(16) -0.2132(3)
O12B O 0.3461(2) 0.16731(16) -0.3528(3)
O12C O -0.3461(2) 0.16731(16) -0.1472(3)
O13D O -0.2601(2) 0.38660(16) -0.0507(3)
O13E O 0.2601(2) 0.38660(16) -0.4493(3)
O14D O 0.1613(2) 0.36761(16) -0.5303(3)
O14E O -0.1613(2) 0.36761(16) 0.0303(3)
O15B O -0.1599(4) 0.13250(19) -0.0099(4)
O15C O 0.1599(4) 0.13250(19) -0.4901(4)
O16F O -0.0884(3) 0.1958(3) 0.0373(7)
O16G O 0.0884(3) 0.1958(3) -0.5373(7)
C45 C 0.3303(6) 0.2336(5) 0.0867(8)
C46 C 0.3410(6) 0.1449(5) 0.0951(8)
C47 C 0.3585(6) 0.1945(5) 0.2206(8)
N1 N 0.3406(6) 0.1908(5) 0.1347(8)
O19 O 0.3620(6) 0.2407(5) 0.2593(8)
O20 O 0.4735(10) 0.2044(8) -0.3784(13)
C48 C 0.531(3) 0.165(2) -0.395(4)
O21? O 0.1721(8) 0.2717(8) -0.5132(12)
O22? O 0.3088(9) 0.3014(9) -0.4142(15)
O23? O 0.2504(5) 0.3049(4) -0.5452(7)
O24? O 0.2187(7) 0.2553(6) -0.4075(10)
C49? C 0.5943(18) 0.4227(15) -0.233(2)
O25? O 0.449(2) 0.3036(18) -0.221(3)
O26? O -0.2489(6) 0.5825(5) -0.3782(8)
C50? C -0.2334(19) 0.5201(15) -0.234(2)
C51? C -0.280(2) 0.536(2) -0.289(3)
loop_
_geom_bond_atom_site_label_1
_geom_bond_atom_site_label_2
_geom_bond_site_symmetry_1
_geom_bond_site_symmetry_2
Zr1 O7 1_555 1_555
Zr2 O1 1_555 1_555
Zr3 O1 1_555 1_555
O1 Zr1F_2 1_555 1_555
O2 Zr3 1_555 1_555
O3 Zr3 1_555 1_555
O4 Zr2 1_555 1_555
O5 Zr2 1_555 1_555
O6 Zr3 1_555 1_555
O7 Zr2 1_555 1_555
O8 Zr1 1_555 1_555
O9 Zr1 1_555 1_555
O10 C3 1_555 1_555
O11 C3 1_555 1_555
O12 C42 1_555 1_555
O13 C9 1_555 1_555
O14 C42 1_555 1_555
O15 C9 1_555 1_555
O16 C28 1_555 1_555
C1 C11 1_555 1_555
C2 C6 1_555 1_555
C3 C5 1_555 1_555
C4 C7 1_555 1_555
C5 C20 1_555 1_555
C6 O3 1_555 1_555
C7 C18 1_555 1_555
C8 C4 1_555 1_555
C9 C10 1_555 1_555
C10 C19 1_555 1_555
C11 C2 1_555 1_555
C12 C1 1_555 1_555
C13 C2 1_555 1_555
C14 C12 1_555 1_555
C15 C4 1_555 1_555
C16 C8 1_555 1_555
C17 C8 1_555 1_555
C18 C19 1_555 1_555
C20 C17 1_555 1_555
C21 C5 1_555 1_555
C22 C15 1_555 1_555
C23 C10 1_555 1_555
C24 C7 1_555 1_555
C25 C27 1_555 1_555
C26 C15 1_555 1_555
C27 C26 1_555 1_555
C28 C25 1_555 1_555
C29 C22 1_555 1_555
C30 C35 1_555 1_555
C31 C35 1_555 1_555
C32 C34 1_555 1_555
C33 C34 1_555 1_555
C34 C44 1_555 1_555
C35 C30A 1_555 1_555
C36 C38 1_555 1_555
C37 C31 1_555 1_555
C38 C30 1_555 1_555
C39 C30 1_555 1_555
C40 C31 1_555 1_555
C41 C36 1_555 1_555
C42 C41 1_555 1_555
C43 C39 1_555 1_555
C44 O2 1_555 1_555
O17 C44 1_555 1_555
O18 C28 1_555 1_555
C45 N1 1_555 1_555
C46 N1 1_555 1_555
C47 N1 1_555 1_555
O19 C47 1_555 1_555
O20 C48 1_555 1_555
O2A C44A 1_555 1_555
O12A C42A 1_555 1_555
O14A C42A 1_555 1_555
C30A C38A 1_555 1_555
C31A C35 1_555 1_555
C32A C34A 1_555 1_555
C33A C34A 1_555 1_555
C34A C44A 1_555 1_555
C36A C38A 1_555 1_555
C37A C31A 1_555 1_555
C39A C30A 1_555 1_555
C40A C31A 1_555 1_555
C41A C36A 1_555 1_555
C42A C41A 1_555 1_555
C43A C39A 1_555 1_555
C44A O17A 1_555 1_555
Zr1A O7A 1_555 1_555
Zr2A O1A 1_555 1_555
Zr3A O2A 1_555 1_555
O1A Zr3A 1_555 1_555
O3A Zr3A 1_555 1_555
O4A Zr2A 1_555 1_555
O5A Zr2A 1_555 1_555
O6A Zr3A 1_555 1_555
O7A Zr2A 1_555 1_555
O8A Zr1A 1_555 1_555
O9A Zr1A 1_555 1_555
O10A C3A 1_555 1_555
O11A C3A 1_555 1_555
O13A C9A 1_555 1_555
O15A C9A 1_555 1_555
O16A C28A 1_555 1_555
C1A C11A 1_555 1_555
C2A C6A 1_555 1_555
C3A C5A 1_555 1_555
C4A C7A 1_555 1_555
C5A C20A 1_555 1_555
C6A O3A 1_555 1_555
C7A C18A 1_555 1_555
C8A C4A 1_555 1_555
C9A C10A 1_555 1_555
C10A C19A 1_555 1_555
C11A C2A 1_555 1_555
C12A C1A 1_555 1_555
C13A C2A 1_555 1_555
C14A C12A 1_555 1_555
C15A C4A 1_555 1_555
C16A C8A 1_555 1_555
C17A C8A 1_555 1_555
C18A C19A 1_555 1_555
C20A C17A 1_555 1_555
C21A C5A 1_555 1_555
C22A C15A 1_555 1_555
C23A C10A 1_555 1_555
C24A C7A 1_555 1_555
C25A C27A 1_555 1_555
C26A C15A 1_555 1_555
C27A C26A 1_555 1_555
C28A C25A 1_555 1_555
C29A C22A 1_555 1_555
O18A C28A 1_555 1_555
Zr1B O15A 1_555 1_555
Zr1C O15 1_555 1_555
Zr1F O16A 1_555 1_555
Zr1F_2 O6 1_555 1_555
Zr1F_3 O10 1_555 1_555
Zr1G O10A 1_555 1_555
Zr1G_2 O1A 1_555 1_555
Zr1G_3 O16 1_555 1_555
Zr2B O12 1_555 1_555
Zr2C O12A 1_555 1_555
Zr2F O6 1_555 1_555
Zr2F_2 O11 1_555 1_555
Zr2G O11A 1_555 1_555
Zr2G_2 O6A 1_555 1_555
Zr3D O14 1_555 1_555
Zr3E O13 1_555 1_555
O1F Zr1 1_555 1_555
O1G Zr1A 1_555 1_555
O6F Zr1 1_555 1_555
O6G Zr1A 1_555 1_555
O9F Zr2 1_555 1_555
O9G Zr2A 1_555 1_555
O10F Zr1 1_555 1_555
O10G Zr1A 1_555 1_555
O11F Zr2 1_555 1_555
O11G Zr2A 1_555 1_555
O12B Zr2 1_555 1_555
O12C Zr2A 1_555 1_555
O13D Zr3A 1_555 1_555
O13E Zr3 1_555 1_555
O14D Zr3 1_555 1_555
O14E Zr3A 1_555 1_555
O15B Zr1A 1_555 1_555
O15C Zr1 1_555 1_555
O16F Zr1A 1_555 1_555
O16G Zr1 1_555 1_555
Zr2 O6F 1_555 1_555
Zr3 O7 1_555 1_555
Zr3 O9 1_555 1_555
O5 C6 1_555 1_555
O9 Zr2F 1_555 1_555
C4 C12 1_555 1_555
C13 C14 1_555 1_555
C16 C21 1_555 1_555
C23 C24 1_555 1_555
C25 C29 1_555 1_555
C32 C37 1_555 1_555
C33 C40 1_555 1_555
C41 C43 1_555 1_555
O14A Zr3E 1_555 1_555
C32A C37A 1_555 1_555
C33A C40A 1_555 1_555
C41A C43A 1_555 1_555
Zr2A O6G 1_555 1_555
Zr3A O7A 1_555 1_555
Zr3A O9A 1_555 1_555
O5A C6A 1_555 1_555
O6A Zr1G_2 1_555 1_555
O9A Zr2G_2 1_555 1_555
O13A Zr3D 1_555 1_555
C4A C12A 1_555 1_555
C13A C14A 1_555 1_555
C16A C21A 1_555 1_555
C23A C24A 1_555 1_555
C25A C29A 1_555 1_555
Zr1F_2 O9F 1_555 1_555
Zr1G_2 O9G 1_555 1_555
Zr2F O1F 1_555 1_555
Zr2G_2 O1G 1_555 1_555

#END
