
#######################################################################
#
#                 Cambridge Crystallographic Data Centre
#                                CCDC 
#
#######################################################################
#
# If this CIF has been generated from an entry in the Cambridge 
# Structural Database, then it will include bibliographic, chemical, 
# crystal, experimental, refinement or atomic coordinate data resulting 
# from the CCDC's data processing and validation procedures.
#
#######################################################################

data_BOHXIH
_chemical_name_common            MOF-801-D2O
_chemical_formula_moiety         '(C24 H12 D4 O32 Zr6)n,2.67(D2 O1)'
_chemical_name_systematic        
'catena-(hexakis(\m-but-2-ene-1,4-dioato)-tetrakis(\m-deuteroxo)-tetrakis(\m-oxo)-hexa-zirconium deuterium oxide solvate)'
_symmetry_cell_setting           cubic
_symmetry_space_group_name_H-M   'P n -3'
_symmetry_Int_Tables_number      201
_space_group_name_Hall           '-P 2ab 2bc 3'
loop_
_symmetry_equiv_pos_site_id
_symmetry_equiv_pos_as_xyz
1 x,y,z
2 z,x,y
3 y,z,x
4 1/2-z,x,1/2-y
5 1/2-y,1/2-z,x
6 y,1/2-z,1/2-x
7 1/2-x,y,1/2-z
8 1/2-z,1/2-x,y
9 x,1/2-y,1/2-z
10 1/2-x,1/2-y,z
11 z,1/2-x,1/2-y
12 1/2-y,z,1/2-x
13 -x,-y,-z
14 -z,-x,-y
15 -y,-z,-x
16 1/2+z,-x,1/2+y
17 1/2+y,1/2+z,-x
18 -y,1/2+z,1/2+x
19 1/2+x,-y,1/2+z
20 1/2+z,1/2+x,-y
21 -x,1/2+y,1/2+z
22 1/2+x,1/2+y,-z
23 -z,1/2+x,1/2+y
24 1/2+y,-z,1/2+x
_cell_length_a                   17.8736(5)
_cell_length_b                   17.8736
_cell_length_c                   17.8736
_cell_angle_alpha                90
_cell_angle_beta                 90
_cell_angle_gamma                90
_cell_volume                     5710
_cell_formula_units_Z            4
loop_
_atom_site_label
_atom_site_type_symbol
_atom_site_fract_x
_atom_site_fract_y
_atom_site_fract_z
_atom_site_U_iso_or_equiv
_atom_site_thermal_displace_type
O7 O 0.340(5) 0.340(5) 0.160(5) 0.0145 Uiso
O8 O 0.361(4) 0.667(4) 0.1964(32) 0.0145 Uiso
D2 D 0.310(5) 0.673(11) 0.218(7) 0.0096 Uiso
D3 D 0.395(6) 0.646(9) 0.238(6) 0.0096 Uiso
O9 O 0.250 0.250 0.250 0.0390 Uiso
O10 O 0.750 0.750 0.250 0.0086 Uiso
Zr1 Zr 0.3608(5) 0.5112(12) 0.0088(9) 0.0022 Uiso
O1 O 0.3095(11) 0.6244(10) 0.0297(10) 0.0049 Uiso
O2 O 0.2919(11) 0.4061(12) 0.0072(12) 0.0049 Uiso
C1 C 0.3368(10) 0.6842(11) 0.0225(7) 0.0094 Uiso
C2 C 0.3065(10) 0.3423(10) 0.0013(10) 0.0072 Uiso
C3 C 0.2428(12) 0.2869(11) 0.0027(14) 0.0248 Uiso
H1 H 0.1902(21) 0.3043(23) -0.002(4) 0.0380 Uiso
O3 O 0.4071(13) 0.7056(11) 0.0209(12) 0.0067 Uiso
O4 O 0.3729(12) 0.3140(10) -0.0037(12) 0.0067 Uiso
C4 C 0.2884(11) 0.7541(14) 0.0264(9) 0.0213 Uiso
H2 H 0.3160(24) 0.7948(27) 0.0241(15) 0.0470 Uiso
O5 O 0.4362(20) 0.5771(26) 0.0904(18) 0.0065 Uiso
O6 O 0.4382(32) 0.4382(32) 0.0618(32) 0.0061 Uiso
D1 D 0.4111(23) 0.6084(30) 0.1239(21) 0.0440 Uiso
O1I O 0.1905(11) 0.8756(10) 0.0297(10) 0.0049 Uiso
C1I C 0.1632(10) 0.8158(11) 0.0225(7) 0.0094 Uiso
O3I O 0.0929(13) 0.7944(11) 0.0209(12) 0.0067 Uiso
C4I C 0.2116(11) 0.7459(14) 0.0264(9) 0.0213 Uiso
H2I H 0.1840(24) 0.7052(27) 0.0241(15) 0.0470 Uiso
O2I O 0.2081(11) 0.0939(12) 0.0072(12) 0.0049 Uiso
C2I C 0.1935(10) 0.1577(10) 0.0013(10) 0.0072 Uiso
C3I C 0.2572(12) 0.2131(11) 0.0027(14) 0.0248 Uiso
H1I H 0.3098(21) 0.1957(23) -0.002(4) 0.0380 Uiso
O4I O 0.1271(12) 0.1860(10) -0.0037(12) 0.0067 Uiso
Zr1V Zr -0.0088(9) 0.8608(5) 0.0112(12) 0.0022 Uiso
O1V O -0.0297(10) 0.8095(11) 0.1244(10) 0.0049 Uiso
O2V O -0.0072(12) 0.7919(11) -0.0939(12) 0.0049 Uiso
C1V C -0.0225(7) 0.8368(10) 0.1842(11) 0.0094 Uiso
C2V C -0.0013(10) 0.8065(10) -0.1577(10) 0.0072 Uiso
C3V C -0.0027(14) 0.7428(12) -0.2131(11) 0.0248 Uiso
H1V H 0.002(4) 0.6902(21) -0.1957(23) 0.0380 Uiso
O3V O -0.0209(12) 0.9071(13) 0.2056(11) 0.0067 Uiso
O4V O 0.0037(12) 0.8729(12) -0.1860(10) 0.0067 Uiso
C4V C -0.0264(9) 0.7884(11) 0.2541(14) 0.0213 Uiso
H2V H -0.0241(15) 0.8160(24) 0.2948(27) 0.0470 Uiso
O5V O -0.0904(18) 0.9362(20) 0.0771(26) 0.0065 Uiso
D1V D -0.1239(21) 0.9111(23) 0.1084(30) 0.0440 Uiso
O1M O -0.0297(10) 0.6905(11) 0.3756(10) 0.0049 Uiso
C1M C -0.0225(7) 0.6632(10) 0.3158(11) 0.0094 Uiso
O3M O -0.0209(12) 0.5929(13) 0.2944(11) 0.0067 Uiso
C4M C -0.0264(9) 0.7116(11) 0.2459(14) 0.0213 Uiso
H2M H -0.0241(15) 0.6840(24) 0.2052(27) 0.0470 Uiso
O2M O -0.0072(12) 0.7081(11) -0.4061(12) 0.0049 Uiso
C2M C -0.0013(10) 0.6935(10) -0.3423(10) 0.0072 Uiso
C3M C -0.0027(14) 0.7572(12) -0.2869(11) 0.0248 Uiso
H1M H 0.002(4) 0.8098(21) -0.3043(23) 0.0380 Uiso
O4M O 0.0037(12) 0.6271(12) -0.3140(10) 0.0067 Uiso
Zr1W Zr 0.0112(12) 0.9912(9) -0.1392(5) 0.0022 Uiso
O1W O 0.1244(10) 0.9703(10) -0.1905(11) 0.0049 Uiso
O2W O -0.0939(12) 0.9928(12) -0.2081(11) 0.0049 Uiso
C1W C 0.1842(11) 0.9775(7) -0.1632(10) 0.0094 Uiso
C2W C -0.1577(10) 0.9987(10) -0.1935(10) 0.0072 Uiso
C3W C -0.2131(11) 0.9973(14) -0.2572(12) 0.0248 Uiso
H1W H -0.1957(23) 1.002(4) -0.3098(21) 0.0380 Uiso
O3W O 0.2056(11) 0.9791(12) -0.0929(13) 0.0067 Uiso
O4W O -0.1860(10) 1.0037(12) -0.1271(12) 0.0067 Uiso
C4W C 0.2541(14) 0.9736(9) -0.2116(11) 0.0213 Uiso
H2W H 0.2948(27) 0.9759(15) -0.1840(24) 0.0470 Uiso
O5W O 0.0771(26) 0.9096(18) -0.0638(20) 0.0065 Uiso
D1W D 0.1084(30) 0.8761(21) -0.0889(23) 0.0440 Uiso
O1N O 0.3756(10) 0.9703(10) -0.3095(11) 0.0049 Uiso
C1N C 0.3158(11) 0.9775(7) -0.3368(10) 0.0094 Uiso
O3N O 0.2944(11) 0.9791(12) -0.4071(13) 0.0067 Uiso
C4N C 0.2459(14) 0.9736(9) -0.2884(11) 0.0213 Uiso
H2N H 0.2052(27) 0.9759(15) -0.3160(24) 0.0470 Uiso
O2N O -0.4061(12) 0.9928(12) -0.2919(11) 0.0049 Uiso
C2N C -0.3423(10) 0.9987(10) -0.3065(10) 0.0072 Uiso
C3N C -0.2869(11) 0.9973(14) -0.2428(12) 0.0248 Uiso
H1N H -0.3043(23) 1.002(4) -0.1902(21) 0.0380 Uiso
O4N O -0.3140(10) 1.0037(12) -0.3729(12) 0.0067 Uiso
Zr1M Zr -0.0088(9) 0.6392(5) -0.5112(12) 0.0022 Uiso
O5M O -0.0904(18) 0.5638(20) -0.5771(26) 0.0065 Uiso
D1M D -0.1239(21) 0.5889(23) -0.6084(30) 0.0440 Uiso
Zr1P Zr 0.0112(12) 0.5088(9) -0.3608(5) 0.0022 Uiso
O5P O 0.0771(26) 0.5904(18) -0.4362(20) 0.0065 Uiso
D1P D 0.1084(30) 0.6239(21) -0.4111(23) 0.0440 Uiso
Zr1O Zr 0.5088(9) 0.6392(5) 0.0112(12) 0.0022 Uiso
O5O O 0.5904(18) 0.5638(20) 0.0771(26) 0.0065 Uiso
O6L O 0.5618(32) 0.5618(32) -0.0618(32) 0.0061 Uiso
D1O D 0.6239(21) 0.5889(23) 0.1084(30) 0.0440 Uiso
Zr1A Zr 0.0088(9) 0.3608(5) -0.4888(12) 0.0022 Uiso
Zr1U Zr -0.1392(5) 1.0112(12) -0.0088(9) 0.0022 Uiso
Zr1C Zr 0.4912(9) 0.3608(5) -0.0112(12) 0.0022 Uiso
Zr1D Zr -0.0112(12) 0.4912(9) -0.6392(5) 0.0022 Uiso
Zr1D_2 Zr -0.0112(12) 0.4912(9) 0.3608(5) 0.0022 Uiso
Zr1E Zr 0.5112(12) 0.4912(9) 0.1392(5) 0.0022 Uiso
Zr1F Zr 0.1392(5) 0.5112(12) -0.5088(9) 0.0022 Uiso
Zr1H Zr 0.3608(5) 0.9888(12) -0.5088(9) 0.0022 Uiso
Zr1L Zr 0.6392(5) 0.4888(12) -0.0088(9) 0.0022 Uiso
Zr1M_2 Zr -0.0088(9) 0.6392(5) 0.4888(12) 0.0022 Uiso
Zr1N Zr -0.5112(12) 0.9912(9) -0.3608(5) 0.0022 Uiso
Zr1N_2 Zr 0.4888(12) 0.9912(9) -0.3608(5) 0.0022 Uiso
Zr1I Zr 0.1392(5) -0.0112(12) 0.0088(9) 0.0022 Uiso
Zr1I_2 Zr 0.1392(5) 0.9888(12) 0.0088(9) 0.0022 Uiso
Zr1J Zr 0.0088(9) 0.1392(5) -0.0112(12) 0.0022 Uiso
Zr1J_2 Zr 0.0088(9) 1.1392(5) -0.0112(12) 0.0022 Uiso
Zr1K Zr -0.0112(12) 1.0088(9) 0.1392(5) 0.0022 Uiso
Zr1Q Zr 0.4888(12) 0.5088(9) -0.1392(5) 0.0022 Uiso
Zr1R Zr -0.1392(5) 0.4888(12) -0.4912(9) 0.0022 Uiso
Zr1T Zr -0.3608(5) 1.0112(12) -0.4912(9) 0.0022 Uiso
O1M_2 O -0.0297(10) 0.6905(11) -0.6244(10) 0.0049 Uiso
O1O O 0.5297(10) 0.6905(11) 0.1244(10) 0.0049 Uiso
O1P O 0.1244(10) 0.5297(10) -0.3095(11) 0.0049 Uiso
O2O O 0.5072(12) 0.7081(11) -0.0939(12) 0.0049 Uiso
O2P O -0.0939(12) 0.5072(12) -0.2919(11) 0.0049 Uiso
O3A O 0.0209(12) 0.4071(13) -0.2944(11) 0.0067 Uiso
O3F O 0.0929(13) 0.7056(11) -0.5209(12) 0.0067 Uiso
O3J O 0.0209(12) 1.0929(13) -0.2056(11) 0.0067 Uiso
O3Q O 0.2944(11) 0.5209(12) -0.0929(13) 0.0067 Uiso
O4U O -0.1271(12) 0.8140(10) 0.0037(12) 0.0067 Uiso
O4E O 0.3140(10) 0.5037(12) 0.1271(12) 0.0067 Uiso
O4L O 0.6271(12) 0.6860(10) 0.0037(12) 0.0067 Uiso
O4R O -0.1271(12) 0.6860(10) -0.5037(12) 0.0067 Uiso
O5A O 0.0904(18) 0.4362(20) -0.4229(26) 0.0065 Uiso
O5U O -0.0638(20) 1.0771(26) -0.0904(18) 0.0065 Uiso
O5C O 0.4096(18) 0.4362(20) -0.0771(26) 0.0065 Uiso
O5F O 0.0638(20) 0.5771(26) -0.5904(18) 0.0065 Uiso
O5I O 0.0638(20) 0.9229(26) 0.0904(18) 0.0065 Uiso
O5J O 0.0904(18) 1.0638(20) -0.0771(26) 0.0065 Uiso
O5Q O 0.4229(26) 0.5904(18) -0.0638(20) 0.0065 Uiso
O5R O -0.0638(20) 0.4229(26) -0.4096(18) 0.0065 Uiso
O6U O -0.0618(32) 0.9382(32) -0.0618(32) 0.0061 Uiso
O6M O -0.0618(32) 0.5618(32) -0.4382(32) 0.0061 Uiso
H3? H 0.393(6) 0.393(6) 0.107(6) 0.0440 Uiso
O11? O 0.178(11) 0.322(11) 0.178(11) 0.0145 Uiso
D4? D 0.260(24) 0.28(5) 0.20(4) 0.0376 Uiso
D5? D 0.771(15) 0.794(9) 0.219(9) 0.0096 Uiso
O12? O 0.4499(20) 0.5561(29) 0.0662(18) 0.0049 Uiso
O13? O 0.4260(31) 0.4260(31) 0.0740(31) 0.0049 Uiso
D6? D 0.393(6) 0.393(6) 0.107(6) 0.0440 Uiso
D7? D 0.723(17) 0.780(9) 0.292(9) 0.0096 Uiso
loop_
_geom_bond_atom_site_label_1
_geom_bond_atom_site_label_2
_geom_bond_site_symmetry_1
_geom_bond_site_symmetry_2
Zr1 O1 1_555 1_555
O1 C1 1_555 1_555
O2 Zr1 1_555 1_555
C1 O3 1_555 1_555
C2 O2 1_555 1_555
C3 C2 1_555 1_555
H1 C3 1_555 1_555
O3 Zr1O 1_555 1_555
O4 C2 1_555 1_555
C4 C1 1_555 1_555
H2 C4 1_555 1_555
O5 Zr1 1_555 1_555
O6 Zr1 1_555 1_555
D1 O5 1_555 1_555
O8 D2 1_555 1_555
D3 O8 1_555 1_555
O1I C1I 1_555 1_555
C1I O3I 1_555 1_555
O3I Zr1V 1_555 1_555
C4I C4 1_555 1_555
H2I C4I 1_555 1_555
O2I C2I 1_555 1_555
C2I C3I 1_555 1_555
C3I C3 1_555 1_555
H1I C3I 1_555 1_555
O4I C2I 1_555 1_555
Zr1V O1V 1_555 1_555
O1V C1V 1_555 1_555
O2V Zr1V 1_555 1_555
C1V O3V 1_555 1_555
C2V O2V 1_555 1_555
C3V C2V 1_555 1_555
H1V C3V 1_555 1_555
O3V Zr1K 1_555 1_555
O4V C2V 1_555 1_555
C4V C1V 1_555 1_555
H2V C4V 1_555 1_555
O5V Zr1V 1_555 1_555
D1V O5V 1_555 1_555
O1M C1M 1_555 1_555
C1M O3M 1_555 1_555
O3M Zr1D_2 1_555 1_555
C4M C4V 1_555 1_555
H2M C4M 1_555 1_555
O2M C2M 1_555 1_555
C2M C3M 1_555 1_555
C3M C3V 1_555 1_555
H1M C3M 1_555 1_555
O4M C2M 1_555 1_555
Zr1W O4V 1_555 1_555
O1W Zr1W 1_555 1_555
O2W Zr1W 1_555 1_555
C1W O1W 1_555 1_555
C2W O2W 1_555 1_555
C3W C2W 1_555 1_555
H1W C3W 1_555 1_555
O3W C1W 1_555 1_555
O4W C2W 1_555 1_555
C4W C1W 1_555 1_555
H2W C4W 1_555 1_555
O5W Zr1V 1_555 1_555
D1W O5W 1_555 1_555
O1N C1N 1_555 1_555
C1N O3N 1_555 1_555
O3N Zr1H 1_555 1_555
C4N C4W 1_555 1_555
H2N C4N 1_555 1_555
O2N C2N 1_555 1_555
C2N C3N 1_555 1_555
C3N C3W 1_555 1_555
H1N C3N 1_555 1_555
O4N C2N 1_555 1_555
Zr1M O2M 1_555 1_555
O5M Zr1M 1_555 1_555
D1M O5M 1_555 1_555
Zr1P O4M 1_555 1_555
O5P Zr1M 1_555 1_555
D1P O5P 1_555 1_555
Zr1O Zr1 1_555 1_555
O5O Zr1O 1_555 1_555
O6L Zr1O 1_555 1_555
D1O O5O 1_555 1_555
Zr1A Zr1P 1_555 1_555
Zr1U O5V 1_555 1_555
Zr1C O4 1_555 1_555
Zr1D Zr1M 1_555 1_555
Zr1D_2 Zr1M_2 1_555 1_555
Zr1E O5 1_555 1_555
Zr1F Zr1M 1_555 1_555
Zr1H Zr1N_2 1_555 1_555
Zr1L O5O 1_555 1_555
Zr1M_2 O1M 1_555 1_555
Zr1N O2N 1_555 1_555
Zr1N_2 O1N 1_555 1_555
Zr1I O2I 1_555 1_555
Zr1I_2 O1I 1_555 1_555
Zr1J O4I 1_555 1_555
Zr1J_2 Zr1W 1_555 1_555
Zr1K Zr1V 1_555 1_555
Zr1Q Zr1 1_555 1_555
Zr1R O5M 1_555 1_555
Zr1T O4N 1_555 1_555
O1M_2 Zr1M 1_555 1_555
O1O Zr1O 1_555 1_555
O1P Zr1P 1_555 1_555
O2O Zr1O 1_555 1_555
O2P Zr1P 1_555 1_555
O3A Zr1P 1_555 1_555
O3F Zr1M 1_555 1_555
O3J Zr1W 1_555 1_555
O3Q Zr1 1_555 1_555
O4U Zr1V 1_555 1_555
O4E Zr1 1_555 1_555
O4L Zr1O 1_555 1_555
O4R Zr1M 1_555 1_555
O5A Zr1P 1_555 1_555
O5U Zr1W 1_555 1_555
O5C Zr1 1_555 1_555
O5F Zr1M 1_555 1_555
O5I Zr1V 1_555 1_555
O5J Zr1W 1_555 1_555
O5Q Zr1 1_555 1_555
O5R Zr1P 1_555 1_555
O6U Zr1V 1_555 1_555
O6M Zr1M 1_555 1_555
O5 Zr1O 1_555 1_555
O6 Zr1C 1_555 1_555
O6 Zr1E 1_555 1_555
C1I C4I 1_555 1_555
Zr1V Zr1I_2 1_555 1_555
O5V Zr1K 1_555 1_555
C1M C4M 1_555 1_555
Zr1W O5W 1_555 1_555
Zr1W Zr1I_2 1_555 1_555
Zr1W O6U 1_555 1_555
O3W Zr1I_2 1_555 1_555
O4W Zr1U 1_555 1_555
O5W Zr1I_2 1_555 1_555
C1N C4N 1_555 1_555
O5M Zr1D 1_555 1_555
Zr1P O5P 1_555 1_555
Zr1P Zr1F 1_555 1_555
Zr1P O6M 1_555 1_555
O5P Zr1F 1_555 1_555
Zr1O Zr1E 1_555 1_555
Zr1O O5Q 1_555 1_555
O5O Zr1E 1_555 1_555
O6L Zr1L 1_555 1_555
O6L Zr1Q 1_555 1_555
Zr1A Zr1R 1_555 1_555
Zr1A O5A 1_555 1_555
Zr1A O5R 1_555 1_555
Zr1U Zr1J_2 1_555 1_555
Zr1U Zr1K 1_555 1_555
Zr1U O5U 1_555 1_555
Zr1U O6U 1_555 1_555
Zr1C Zr1L 1_555 1_555
Zr1C Zr1Q 1_555 1_555
Zr1C O5C 1_555 1_555
Zr1D Zr1R 1_555 1_555
Zr1D O5F 1_555 1_555
Zr1E Zr1L 1_555 1_555
Zr1F O5A 1_555 1_555
Zr1F O5F 1_555 1_555
Zr1I_2 O5I 1_555 1_555
Zr1I_2 O5J 1_555 1_555
Zr1J_2 O5U 1_555 1_555
Zr1J_2 O5J 1_555 1_555
Zr1K O5I 1_555 1_555
Zr1Q O5C 1_555 1_555
Zr1Q O5Q 1_555 1_555
Zr1R O5R 1_555 1_555
Zr1R O6M 1_555 1_555

#END
