
#######################################################################
#
#                 Cambridge Crystallographic Data Centre
#                                CCDC 
#
#######################################################################
#
# If this CIF has been generated from an entry in the Cambridge 
# Structural Database, then it will include bibliographic, chemical, 
# crystal, experimental, refinement or atomic coordinate data resulting 
# from the CCDC's data processing and validation procedures.
#
#######################################################################

data_EHIJAH
_chemical_name_common            DUT-13
_chemical_formula_moiety         '(C120 H72 N6 O26 Zn8)n'
_chemical_name_systematic        
"catena-(tris(\m~8~-4,4',4'',4'''-(biphenyl-4,4'-diyldinitrilo)tetrabenzoato)-bis(\m~4~-oxo)-octa-zinc unknown solvate)"
_symmetry_cell_setting           rhombohedral
_symmetry_space_group_name_H-M   'R -3 c'
_symmetry_Int_Tables_number      167
_space_group_name_Hall           '-R 3 2"c'
loop_
_symmetry_equiv_pos_site_id
_symmetry_equiv_pos_as_xyz
1 x,y,z
2 -y,x-y,z
3 -x+y,-x,z
4 y,x,1/2-z
5 x-y,-y,1/2-z
6 -x,-x+y,1/2-z
7 2/3+x,1/3+y,1/3+z
8 2/3-y,1/3+x-y,1/3+z
9 2/3-x+y,1/3-x,1/3+z
10 2/3+y,1/3+x,5/6-z
11 2/3+x-y,1/3-y,5/6-z
12 2/3-x,1/3-x+y,5/6-z
13 1/3+x,2/3+y,2/3+z
14 1/3-y,2/3+x-y,2/3+z
15 1/3-x+y,2/3-x,2/3+z
16 1/3+y,2/3+x,1/6-z
17 1/3+x-y,2/3-y,1/6-z
18 1/3-x,2/3-x+y,1/6-z
19 -x,-y,-z
20 y,-x+y,-z
21 x-y,x,-z
22 -y,-x,1/2+z
23 -x+y,y,1/2+z
24 x,x-y,1/2+z
25 1/3-x,2/3-y,2/3-z
26 1/3+y,2/3-x+y,2/3-z
27 1/3+x-y,2/3+x,2/3-z
28 1/3-y,2/3-x,1/6+z
29 1/3-x+y,2/3+y,1/6+z
30 1/3+x,2/3+x-y,1/6+z
31 2/3-x,1/3-y,1/3-z
32 2/3+y,1/3-x+y,1/3-z
33 2/3+x-y,1/3+x,1/3-z
34 2/3-y,1/3-x,5/6+z
35 2/3-x+y,1/3+y,5/6+z
36 2/3+x,1/3+x-y,5/6+z
_cell_length_a                   25.682(4)
_cell_length_b                   25.682(4)
_cell_length_c                   114.90(2)
_cell_angle_alpha                90
_cell_angle_beta                 90
_cell_angle_gamma                120
_cell_volume                     65630.9
_exptl_crystal_colour            colorless
_exptl_crystal_description       diamond
_cell_formula_units_Z            6
loop_
_atom_site_label
_atom_site_type_symbol
_atom_site_fract_x
_atom_site_fract_y
_atom_site_fract_z
C1 C 0.10891(12) -0.00500(11) 0.354742(18)
C2 C 0.14969(11) -0.02090(11) 0.360411(17)
C3 C 0.14333(12) -0.03692(12) 0.372242(17)
H1 H 0.1139 -0.0353 0.3767
C4 C 0.18006(12) -0.05502(12) 0.377366(17)
H2 H 0.1755 -0.0647 0.3852
C5 C 0.19422(13) -0.02440(14) 0.354256(19)
H3 H 0.1995 -0.0141 0.3464
C6 C 0.22304(12) -0.05894(12) 0.371083(17)
C7 C 0.22450(12) -0.16906(14) 0.36355(2)
H4 H 0.1853 -0.1762 0.3642
C8 C 0.27104(11) -0.12087(13) 0.369113(18)
C9 C 0.32742(13) -0.11216(15) 0.36821(3)
H5 H 0.3585 -0.0807 0.3723
C10 C 0.33980(12) -0.14871(14) 0.36135(3)
H6 H 0.3791 -0.1407 0.3606
C11 C 0.23702(13) -0.20690(14) 0.35702(2)
H7 H 0.2056 -0.2402 0.3535
C12 C 0.29470(11) -0.19625(14) 0.355733(19)
C13 C 0.27851(12) -0.07012(13) 0.387685(18)
C14 C 0.29884(13) -0.01458(12) 0.392594(18)
H8 H 0.2987 0.0159 0.3883
C15 C 0.23031(13) -0.04235(14) 0.35929(2)
H9 H 0.2601 -0.0437 0.3549
C16 C 0.27850(15) -0.11469(13) 0.39429(2)
H10 H 0.2637 -0.1530 0.3912
C17 C 0.30048(15) -0.10264(12) 0.40558(2)
H11 H 0.3011 -0.1330 0.4099
C18 C 0.32132(11) -0.04720(10) 0.410600(17)
C19 C 0.31957(13) -0.00362(12) 0.403964(18)
H12 H 0.3326 0.0342 0.4072
C20 C 0.30545(13) -0.23845(18) 0.34872(2)
N1 N 0.25970(11) -0.08077(11) 0.375857(15)
O1 O 0.0000 0.0000 0.336640(16)
O2 O 0.06507(7) -0.00911(7) 0.360266(13)
O3 O 0.12291(9) 0.01556(10) 0.344315(14)
O4 O 0.36043(12) -0.21960(12) 0.34581(2)
O5 O 0.26105(9) -0.28671(11) 0.345396(17)
Zn1 Zn 0.0000 0.0000 0.353516(3)
Zn2 Zn -0.060499(12) -0.078922(12) 0.331015(2)
C1K C 0.55776(12) 0.21942(16) 0.478591(18)
C1Z C -0.55276(16) -0.22442(12) 0.311925(18)
C1GA C -0.32833(11) 0.22442(12) 0.188075(18)
C1A C 0.00500(11) 0.11391(16) 0.354742(18)
C1J C -0.21942(16) 0.33833(11) 0.478591(18)
C2K C 0.51698(11) 0.16274(16) 0.472922(17)
C2Z C -0.49608(16) -0.18364(11) 0.306256(17)
C2GA C -0.31243(11) 0.18364(11) 0.193744(17)
C2A C 0.02090(11) 0.17059(16) 0.360411(17)
C2J C -0.16274(16) 0.35423(11) 0.472922(17)
C3K C 0.52334(12) 0.15308(17) 0.461091(17)
C3Z C -0.48642(17) -0.19000(12) 0.294425(17)
C3GA C -0.29641(12) 0.19000(12) 0.205575(17)
C3A C 0.03692(12) 0.18025(17) 0.372242(17)
C3J C -0.15308(17) 0.37025(12) 0.461091(17)
H1K H 0.5528 0.1841 0.4566
H1Z H -0.5175 -0.2194 0.2900
H1GA H -0.2980 0.2194 0.2100
H1A H 0.0353 0.1492 0.3767
H1J H -0.1841 0.3686 0.4566
C4K C 0.48661(12) 0.09825(17) 0.455967(17)
C4Z C -0.43159(17) -0.15327(12) 0.289301(17)
C4GA C -0.27831(12) 0.15327(12) 0.210699(17)
C4A C 0.05502(12) 0.23508(17) 0.377366(17)
C4J C -0.09825(17) 0.38835(12) 0.455967(17)
H2K H 0.4912 0.0931 0.4481
H2Z H -0.4265 -0.1578 0.2815
H2GA H -0.2686 0.1578 0.2185
H2A H 0.0647 0.2402 0.3852
H2J H -0.0931 0.3980 0.4481
C5K C 0.47245(13) 0.11471(19) 0.479077(19)
C5Z C -0.44805(19) -0.13911(13) 0.312411(19)
C5GA C -0.30893(14) 0.13911(13) 0.187589(19)
C5A C 0.02440(14) 0.21862(19) 0.354256(19)
C5J C -0.11471(19) 0.35773(14) 0.479077(19)
H3K H 0.4672 0.1197 0.4869
H3Z H -0.4531 -0.1338 0.3203
H3GA H -0.3192 0.1338 0.1797
H3A H 0.0141 0.2136 0.3464
H3J H -0.1197 0.3474 0.4869
C6K C 0.44363(12) 0.05135(17) 0.462250(17)
C6Z C -0.38469(17) -0.11029(12) 0.295584(17)
C6GA C -0.27439(12) 0.11029(12) 0.204416(17)
C6A C 0.05894(12) 0.28198(17) 0.371083(17)
C6J C -0.05135(17) 0.39227(12) 0.462250(17)
C7K C 0.44217(12) -0.06023(18) 0.46978(2)
C7Z C -0.27311(18) -0.10883(12) 0.30312(2)
C7GA C -0.16427(14) 0.10883(12) 0.19688(2)
C7A C 0.16906(14) 0.39356(18) 0.36355(2)
C7J C 0.06023(18) 0.50239(14) 0.46978(2)
H4K H 0.4814 -0.0282 0.4691
H4Z H -0.3052 -0.1480 0.3025
H4GA H -0.1571 0.1480 0.1975
H4A H 0.1762 0.3615 0.3642
H4J H 0.0282 0.5095 0.4691
C8K C 0.39563(11) -0.05858(17) 0.464220(18)
C8Z C -0.27476(17) -0.06229(11) 0.297554(18)
C8GA C -0.21246(13) 0.06229(11) 0.202446(18)
C8A C 0.12087(13) 0.39191(17) 0.369113(18)
C8J C 0.05858(17) 0.45420(13) 0.464220(18)
C9K C 0.33925(13) -0.10625(20) 0.46512(3)
C9Z C -0.22709(20) -0.00591(13) 0.29846(3)
C9GA C -0.22117(15) 0.00591(13) 0.20154(3)
C9A C 0.11216(15) 0.43958(20) 0.36821(3)
C9J C 0.10625(20) 0.44549(15) 0.46512(3)
H5K H 0.3082 -0.1059 0.4610
H5Z H -0.2275 0.0252 0.2944
H5GA H -0.2526 -0.0252 0.2056
H5A H 0.0807 0.4392 0.3723
H5J H 0.1059 0.4140 0.4610
C10K C 0.32687(12) -0.15518(18) 0.47198(3)
C10Z C -0.17816(18) 0.00647(12) 0.30532(3)
C10GA C -0.18462(14) -0.00647(12) 0.19468(3)
C10A C 0.14871(14) 0.48851(18) 0.36135(3)
C10J C 0.15518(18) 0.48204(14) 0.47198(3)
H6K H 0.2876 -0.1865 0.4727
H6Z H -0.1469 0.0458 0.3061
H6GA H -0.1926 -0.0458 0.1939
H6A H 0.1407 0.5198 0.3606
H6J H 0.1865 0.4740 0.4727
C11K C 0.42965(13) -0.11059(19) 0.47631(2)
C11Z C -0.22275(19) -0.09631(13) 0.30965(2)
C11GA C -0.12643(14) 0.09631(13) 0.19035(2)
C11A C 0.20690(14) 0.44392(19) 0.35702(2)
C11J C 0.11059(19) 0.54023(14) 0.47631(2)
H7K H 0.4611 -0.1125 0.4798
H7Z H -0.2209 -0.1277 0.3132
H7GA H -0.0931 0.1277 0.1868
H7A H 0.2402 0.4458 0.3535
H7J H 0.1125 0.5735 0.4798
C12K C 0.37197(11) -0.15762(18) 0.477600(19)
C12Z C -0.17572(18) -0.03863(11) 0.310934(19)
C12GA C -0.13708(14) 0.03863(11) 0.189066(19)
C12A C 0.19625(14) 0.49095(18) 0.355733(19)
C12J C 0.15762(18) 0.52958(14) 0.477600(19)
C13K C 0.38816(12) -0.01530(18) 0.445648(18)
C13Z C -0.31804(18) -0.05482(12) 0.278982(18)
C13GA C -0.26321(13) 0.05482(12) 0.221018(18)
C13A C 0.07012(13) 0.34863(18) 0.387685(18)
C13J C 0.01530(18) 0.40345(13) 0.445648(18)
C14K C 0.36783(13) 0.01991(18) 0.440739(18)
C14Z C -0.35325(18) -0.03449(13) 0.274073(18)
C14GA C -0.31875(12) 0.03449(13) 0.225927(18)
C14A C 0.01458(12) 0.31342(18) 0.392594(18)
C14J C -0.01991(18) 0.34791(12) 0.440739(18)
H8K H 0.3680 0.0505 0.4450
H8Z H -0.3839 -0.0346 0.2784
H8GA H -0.3492 0.0346 0.2216
H8A H -0.0159 0.2828 0.3883
H8J H -0.0505 0.3174 0.4450
C15K C 0.43636(13) 0.06067(19) 0.47404(2)
C15Z C -0.39401(19) -0.10302(13) 0.30738(2)
C15GA C -0.29098(14) 0.10302(13) 0.19262(2)
C15A C 0.04235(14) 0.27266(19) 0.35929(2)
C15J C -0.06067(19) 0.37568(14) 0.47404(2)
H9K H 0.4066 0.0295 0.4784
H9Z H -0.3629 -0.0732 0.3118
H9GA H -0.2896 0.0732 0.1882
H9A H 0.0437 0.3038 0.3549
H9J H -0.0295 0.3770 0.4784
C16K C 0.38817(15) -0.05986(20) 0.43904(2)
C16Z C -0.27348(20) -0.05483(15) 0.27238(2)
C16GA C -0.21864(13) 0.05483(15) 0.22762(2)
C16A C 0.11469(13) 0.39319(20) 0.39429(2)
C16J C 0.05986(20) 0.44802(13) 0.43904(2)
H10K H 0.4030 -0.0834 0.4421
H10Z H -0.2500 -0.0696 0.2755
H10GA H -0.1803 0.0696 0.2245
H10A H 0.1530 0.4167 0.3912
H10J H 0.0834 0.4863 0.4421
C17K C 0.36619(15) -0.06979(19) 0.42775(2)
C17Z C -0.26355(19) -0.03285(15) 0.26109(2)
C17GA C -0.23069(12) 0.03285(15) 0.23891(2)
C17A C 0.10264(12) 0.40312(19) 0.40558(2)
C17J C 0.06979(19) 0.43597(12) 0.42775(2)
H11K H 0.3656 -0.1008 0.4234
H11Z H -0.2326 -0.0322 0.2568
H11GA H -0.2003 0.0322 0.2432
H11A H 0.1330 0.4341 0.4099
H11J H 0.1008 0.4663 0.4234
C18K C 0.34535(11) -0.03519(15) 0.422733(17)
C18Z C -0.29815(15) -0.01201(11) 0.256067(17)
C18GA C -0.28613(10) 0.01201(11) 0.243933(17)
C18A C 0.04720(10) 0.36852(15) 0.410600(17)
C18J C 0.03519(15) 0.38053(10) 0.422733(17)
C19K C 0.34710(13) 0.01014(18) 0.429369(18)
C19Z C -0.34348(18) -0.01376(13) 0.262703(18)
C19GA C -0.32971(12) 0.01376(13) 0.237297(18)
C19A C 0.00362(12) 0.32319(18) 0.403964(18)
C19J C -0.01014(18) 0.33695(12) 0.429369(18)
H12K H 0.3341 0.0349 0.4261
H12Z H -0.3683 -0.0007 0.2595
H12GA H -0.3675 0.0007 0.2405
H12A H -0.0342 0.2984 0.4072
H12J H -0.0349 0.2991 0.4261
C20K C 0.36122(13) -0.21057(22) 0.48461(2)
C20Z C -0.12277(22) -0.02788(13) 0.31795(2)
C20GA C -0.09488(18) 0.02788(13) 0.18205(2)
C20A C 0.23845(18) 0.54390(22) 0.34872(2)
C20J C 0.21057(22) 0.57178(18) 0.48461(2)
N1K N 0.40697(11) -0.00714(16) 0.457476(15)
N1Z N -0.32620(16) -0.07363(11) 0.290810(15)
N1GA N -0.25256(11) 0.07363(11) 0.209190(15)
N1A N 0.08077(11) 0.34047(16) 0.375857(15)
N1J N 0.00714(16) 0.41410(11) 0.457476(15)
O1X O -0.6667 -0.3333 0.330027(16)
O1X_2 O 0.3333 -0.3333 0.330027(16)
O2K O 0.60160(7) 0.25915(10) 0.473067(13)
O2Z O -0.59249(10) -0.26826(7) 0.306401(13)
O2GA O -0.32422(7) 0.26826(7) 0.193599(13)
O2A O 0.00911(7) 0.07418(10) 0.360266(13)
O2J O -0.25915(10) 0.34244(7) 0.473067(13)
O2X O -0.73174(7) -0.32422(7) 0.306401(13)
O2Y O -0.67578(7) -0.40751(10) 0.306401(13)
O2B O -0.07418(10) -0.06507(7) 0.360266(13)
O3K O 0.54376(9) 0.22598(13) 0.489018(14)
O3Z O -0.55932(13) -0.21042(9) 0.322352(14)
O3GA O -0.34889(10) 0.21042(9) 0.177648(14)
O3A O -0.01556(10) 0.10735(13) 0.344315(14)
O3J O -0.22598(13) 0.31777(10) 0.489018(14)
O3Y O -0.65111(10) -0.44068(13) 0.322352(14)
O3Z_2 O 0.44068(13) -0.21042(9) 0.322352(14)
O3B O -0.10735(13) -0.12291(9) 0.344315(14)
O3X O 0.21042(9) -0.34889(10) 0.322352(14)
O4K O 0.30624(12) -0.24670(17) 0.48752(2)
O4Z O -0.08664(17) 0.02710(12) 0.32086(2)
O4GA O -0.11373(12) -0.02710(12) 0.17914(2)
O4A O 0.21960(12) 0.58003(17) 0.34581(2)
O4J O 0.24670(17) 0.55293(12) 0.48752(2)
O4A_2 O 0.21960(12) -0.41997(17) 0.34581(2)
O4Y O 0.11373(12) 0.08664(17) 0.32086(2)
O4B O -0.58003(17) -0.36043(12) 0.34581(2)
O4X O -0.02710(12) -0.11373(12) 0.32086(2)
O5K O 0.40562(9) -0.21443(14) 0.487937(17)
O5Z O -0.11891(14) -0.07228(9) 0.321271(17)
O5GA O -0.04662(11) 0.07228(9) 0.178729(17)
O5A O 0.28671(11) 0.54776(14) 0.345396(17)
O5J O 0.21443(14) 0.62004(11) 0.487937(17)
O5A_2 O -0.71329(11) -0.45224(14) 0.345396(17)
O5B O 0.45224(14) -0.26105(9) 0.345396(17)
O5Y O 0.04662(11) 0.11891(14) 0.321271(17)
O5X O 0.07228(9) -0.04662(11) 0.321271(17)
Zn1X Zn -0.6667 -0.3333 0.313151(3)
Zn1I Zn -0.3333 0.3333 0.479817(3)
Zn1I_2 Zn 0.6667 0.3333 0.479817(3)
Zn1GA Zn -0.3333 0.3333 0.186849(3)
Zn2A Zn 0.078922(12) 0.018423(17) 0.331015(2)
Zn2B Zn -0.018423(17) 0.060499(12) 0.331015(2)
Zn2X Zn 0.393832(12) -0.254411(12) 0.335652(2)
Zn2Y Zn 0.254411(12) -0.351756(17) 0.335652(2)
Zn2Z Zn -0.648244(17) -0.393832(12) 0.335652(2)
Zn2C Zn -0.078922(12) -0.060499(12) 0.168985(2)
Zn2D Zn 0.018423(17) 0.078922(12) 0.168985(2)
Zn2I Zn 0.587745(12) 0.272834(12) 0.502318(2)
Zn2K Zn -0.272834(12) 0.314910(17) 0.502318(2)
Zn2HA Zn -0.351756(17) 0.254411(12) 0.164348(2)
Zn2X_2 Zn -0.606168(12) -0.254411(12) 0.335652(2)
Zn2Y_2 Zn -0.745589(12) -0.351756(17) 0.335652(2)
Zn2Y_3 Zn 0.254411(12) 0.648244(17) 0.335652(2)
Zn2Z_2 Zn 0.351756(17) 0.606168(12) 0.335652(2)
Zn2AA Zn 0.412255(12) -0.272834(12) 0.497682(2)
Zn2BA Zn 0.314910(17) 0.587745(12) 0.497682(2)
Zn2CA Zn 0.272834(12) -0.314910(17) 0.497682(2)
Zn2CA_2 Zn 0.272834(12) 0.685090(17) 0.497682(2)
loop_
_geom_bond_atom_site_label_1
_geom_bond_atom_site_label_2
_geom_bond_site_symmetry_1
_geom_bond_site_symmetry_2
C1 C2 1_555 1_555
C2 C3 1_555 1_555
C3 H1 1_555 1_555
C4 C3 1_555 1_555
H2 C4 1_555 1_555
C5 C2 1_555 1_555
H3 C5 1_555 1_555
C6 C4 1_555 1_555
C7 H4 1_555 1_555
C8 C7 1_555 1_555
C9 C8 1_555 1_555
H5 C9 1_555 1_555
C10 C9 1_555 1_555
H6 C10 1_555 1_555
C11 C7 1_555 1_555
H7 C11 1_555 1_555
C12 C10 1_555 1_555
C13 C14 1_555 1_555
C14 H8 1_555 1_555
C15 C5 1_555 1_555
H9 C15 1_555 1_555
C16 C13 1_555 1_555
H10 C16 1_555 1_555
C17 C16 1_555 1_555
H11 C17 1_555 1_555
C18 C17 1_555 1_555
C19 C14 1_555 1_555
H12 C19 1_555 1_555
C20 C12 1_555 1_555
N1 C6 1_555 1_555
O1 Zn1 1_555 1_555
O2 C1 1_555 1_555
O3 C1 1_555 1_555
O4 C20 1_555 1_555
O5 C20 1_555 1_555
Zn1 O2 1_555 1_555
Zn2 O1 1_555 1_555
C1K C2K 1_555 1_555
C1Z C2Z 1_555 1_555
C1GA C2GA 1_555 1_555
C1A C2A 1_555 1_555
C1J C2J 1_555 1_555
C2K C3K 1_555 1_555
C2Z C3Z 1_555 1_555
C2GA C3GA 1_555 1_555
C2A C3A 1_555 1_555
C2J C3J 1_555 1_555
C3K H1K 1_555 1_555
C3Z H1Z 1_555 1_555
C3GA H1GA 1_555 1_555
C3A H1A 1_555 1_555
C3J H1J 1_555 1_555
C4K C3K 1_555 1_555
C4Z C3Z 1_555 1_555
C4GA C3GA 1_555 1_555
C4A C3A 1_555 1_555
C4J C3J 1_555 1_555
H2K C4K 1_555 1_555
H2Z C4Z 1_555 1_555
H2GA C4GA 1_555 1_555
H2A C4A 1_555 1_555
H2J C4J 1_555 1_555
C5K C2K 1_555 1_555
C5Z C2Z 1_555 1_555
C5GA C2GA 1_555 1_555
C5A C2A 1_555 1_555
C5J C2J 1_555 1_555
H3K C5K 1_555 1_555
H3Z C5Z 1_555 1_555
H3GA C5GA 1_555 1_555
H3A C5A 1_555 1_555
H3J C5J 1_555 1_555
C6K C4K 1_555 1_555
C6Z C4Z 1_555 1_555
C6GA C4GA 1_555 1_555
C6A C4A 1_555 1_555
C6J C4J 1_555 1_555
C7K H4K 1_555 1_555
C7Z H4Z 1_555 1_555
C7GA H4GA 1_555 1_555
C7A H4A 1_555 1_555
C7J H4J 1_555 1_555
C8K C7K 1_555 1_555
C8Z C7Z 1_555 1_555
C8GA C7GA 1_555 1_555
C8A C7A 1_555 1_555
C8J C7J 1_555 1_555
C9K C8K 1_555 1_555
C9Z C8Z 1_555 1_555
C9GA C8GA 1_555 1_555
C9A C8A 1_555 1_555
C9J C8J 1_555 1_555
H5K C9K 1_555 1_555
H5Z C9Z 1_555 1_555
H5GA C9GA 1_555 1_555
H5A C9A 1_555 1_555
H5J C9J 1_555 1_555
C10K C9K 1_555 1_555
C10Z C9Z 1_555 1_555
C10GA C9GA 1_555 1_555
C10A C9A 1_555 1_555
C10J C9J 1_555 1_555
H6K C10K 1_555 1_555
H6Z C10Z 1_555 1_555
H6GA C10GA 1_555 1_555
H6A C10A 1_555 1_555
H6J C10J 1_555 1_555
C11K C7K 1_555 1_555
C11Z C7Z 1_555 1_555
C11GA C7GA 1_555 1_555
C11A C7A 1_555 1_555
C11J C7J 1_555 1_555
H7K C11K 1_555 1_555
H7Z C11Z 1_555 1_555
H7GA C11GA 1_555 1_555
H7A C11A 1_555 1_555
H7J C11J 1_555 1_555
C12K C10K 1_555 1_555
C12Z C10Z 1_555 1_555
C12GA C10GA 1_555 1_555
C12A C10A 1_555 1_555
C12J C10J 1_555 1_555
C13K C14K 1_555 1_555
C13Z C14Z 1_555 1_555
C13GA C14GA 1_555 1_555
C13A C14A 1_555 1_555
C13J C14J 1_555 1_555
C14K H8K 1_555 1_555
C14Z H8Z 1_555 1_555
C14GA H8GA 1_555 1_555
C14A H8A 1_555 1_555
C14J H8J 1_555 1_555
C15K C5K 1_555 1_555
C15Z C5Z 1_555 1_555
C15GA C5GA 1_555 1_555
C15A C5A 1_555 1_555
C15J C5J 1_555 1_555
H9K C15K 1_555 1_555
H9Z C15Z 1_555 1_555
H9GA C15GA 1_555 1_555
H9A C15A 1_555 1_555
H9J C15J 1_555 1_555
C16K C13K 1_555 1_555
C16Z C13Z 1_555 1_555
C16GA C13GA 1_555 1_555
C16A C13A 1_555 1_555
C16J C13J 1_555 1_555
H10K C16K 1_555 1_555
H10Z C16Z 1_555 1_555
H10GA C16GA 1_555 1_555
H10A C16A 1_555 1_555
H10J C16J 1_555 1_555
C17K C16K 1_555 1_555
C17Z C16Z 1_555 1_555
C17GA C16GA 1_555 1_555
C17A C16A 1_555 1_555
C17J C16J 1_555 1_555
H11K C17K 1_555 1_555
H11Z C17Z 1_555 1_555
H11GA C17GA 1_555 1_555
H11A C17A 1_555 1_555
H11J C17J 1_555 1_555
C18K C18 1_555 1_555
C18Z C17Z 1_555 1_555
C18GA C17GA 1_555 1_555
C18A C17A 1_555 1_555
C18J C17J 1_555 1_555
C19K C14K 1_555 1_555
C19Z C14Z 1_555 1_555
C19GA C14GA 1_555 1_555
C19A C14A 1_555 1_555
C19J C14J 1_555 1_555
H12K C19K 1_555 1_555
H12Z C19Z 1_555 1_555
H12GA C19GA 1_555 1_555
H12A C19A 1_555 1_555
H12J C19J 1_555 1_555
C20K C12K 1_555 1_555
C20Z C12Z 1_555 1_555
C20GA C12GA 1_555 1_555
C20A C12A 1_555 1_555
C20J C12J 1_555 1_555
N1K C6K 1_555 1_555
N1Z C6Z 1_555 1_555
N1GA C6GA 1_555 1_555
N1A C6A 1_555 1_555
N1J C6J 1_555 1_555
O1X Zn1X 1_555 1_555
O1X_2 Zn2X 1_555 1_555
O2K C1K 1_555 1_555
O2Z C1Z 1_555 1_555
O2GA C1GA 1_555 1_555
O2A Zn1 1_555 1_555
O2J C1J 1_555 1_555
O2X Zn1X 1_555 1_555
O2Y Zn1X 1_555 1_555
O2B Zn1 1_555 1_555
O3K C1K 1_555 1_555
O3Z C1Z 1_555 1_555
O3GA C1GA 1_555 1_555
O3A C1A 1_555 1_555
O3J C1J 1_555 1_555
O3Y Zn2Z 1_555 1_555
O3Z_2 Zn2X 1_555 1_555
O3B Zn2 1_555 1_555
O3X Zn2Y 1_555 1_555
O4K C20K 1_555 1_555
O4Z C20Z 1_555 1_555
O4GA C20GA 1_555 1_555
O4A C20A 1_555 1_555
O4J C20J 1_555 1_555
O4A_2 Zn2Y 1_555 1_555
O4Y Zn2A 1_555 1_555
O4B Zn2Z 1_555 1_555
O4X Zn2 1_555 1_555
O5K C20K 1_555 1_555
O5Z Zn2 1_555 1_555
O5GA C20GA 1_555 1_555
O5A C20A 1_555 1_555
O5J C20J 1_555 1_555
O5A_2 Zn2Z 1_555 1_555
O5B Zn2X 1_555 1_555
O5Y Zn2B 1_555 1_555
O5X Zn2A 1_555 1_555
Zn1X O2Z 1_555 1_555
Zn1I O2J 1_555 1_555
Zn1I_2 O2K 1_555 1_555
Zn1GA O2GA 1_555 1_555
Zn2A O1 1_555 1_555
Zn2B O1 1_555 1_555
Zn2X O4 1_555 1_555
Zn2Y O5 1_555 1_555
Zn2Z O1X 1_555 1_555
Zn2C O4GA 1_555 1_555
Zn2D O5GA 1_555 1_555
Zn2I O3K 1_555 1_555
Zn2K O3J 1_555 1_555
Zn2HA O3GA 1_555 1_555
Zn2X_2 O1X 1_555 1_555
Zn2Y_2 O1X 1_555 1_555
Zn2Y_3 O4A 1_555 1_555
Zn2Z_2 O5A 1_555 1_555
Zn2AA O5K 1_555 1_555
Zn2BA O4J 1_555 1_555
Zn2CA O4K 1_555 1_555
Zn2CA_2 O5J 1_555 1_555
C6 C15 1_555 1_555
C8 N1 1_555 1_555
C11 C12 1_555 1_555
C13 N1 1_555 1_555
C18 C19 1_555 1_555
O3 Zn2A 1_555 1_555
C1A O2A 1_555 1_555
C6K C15K 1_555 1_555
C6Z C15Z 1_555 1_555
C6GA C15GA 1_555 1_555
C6A C15A 1_555 1_555
C6J C15J 1_555 1_555
C8K N1K 1_555 1_555
C8Z N1Z 1_555 1_555
C8GA N1GA 1_555 1_555
C8A N1A 1_555 1_555
C8J N1J 1_555 1_555
C11K C12K 1_555 1_555
C11Z C12Z 1_555 1_555
C11GA C12GA 1_555 1_555
C11A C12A 1_555 1_555
C11J C12J 1_555 1_555
C13K N1K 1_555 1_555
C13Z N1Z 1_555 1_555
C13GA N1GA 1_555 1_555
C13A N1A 1_555 1_555
C13J N1J 1_555 1_555
C17K C18K 1_555 1_555
C18K C19K 1_555 1_555
C18Z C18GA 1_555 1_555
C18Z C19Z 1_555 1_555
C18GA C19GA 1_555 1_555
C18A C18J 1_555 1_555
C18A C19A 1_555 1_555
C18J C19J 1_555 1_555
C20Z O5Z 1_555 1_555
O1X_2 Zn2Y 1_555 1_555
O3Z Zn2X_2 1_555 1_555
O3A Zn2B 1_555 1_555
O4Z Zn2B 1_555 1_555

#END
