
#######################################################################
#
#                 Cambridge Crystallographic Data Centre
#                                CCDC 
#
#######################################################################
#
# If this CIF has been generated from an entry in the Cambridge 
# Structural Database, then it will include bibliographic, chemical, 
# crystal, experimental, refinement or atomic coordinate data resulting 
# from the CCDC's data processing and validation procedures.
#
#######################################################################

data_PIDMEV01
_chemical_formula_moiety         '(C46 H36 N2 O14 Zn3)n,4n(C2 H6 O1)'
_chemical_name_systematic        
"catena-(bis(\m~6~-4,4',4''-Nitrilotris(benzoato))-bis(ethanol)-tri-zinc tetrakis(ethanol) clathrate)"
_symmetry_cell_setting           monoclinic
_symmetry_space_group_name_H-M   'C 2/c'
_symmetry_Int_Tables_number      15
_space_group_name_Hall           '-C 2yc'
loop_
_symmetry_equiv_pos_site_id
_symmetry_equiv_pos_as_xyz
1 x,y,z
2 1/2+x,1/2+y,z
3 -x,y,1/2-z
4 1/2-x,1/2+y,1/2-z
5 -x,-y,-z
6 1/2-x,1/2-y,-z
7 x,-y,1/2+z
8 1/2+x,1/2-y,1/2+z
_cell_length_a                   15.6988(12)
_cell_length_b                   25.1203(19)
_cell_length_c                   16.5589(13)
_cell_angle_alpha                90
_cell_angle_beta                 114.7640(10)
_cell_angle_gamma                90
_cell_volume                     5929.64
_exptl_crystal_colour            brown
_exptl_crystal_description       rod-shape
_cell_formula_units_Z            4
_exptl_crystal_preparation       'resolvated crystal'
loop_
_atom_site_label
_atom_site_type_symbol
_atom_site_fract_x
_atom_site_fract_y
_atom_site_fract_z
Zn1 Zn 0.25920(4) 0.30642(3) 0.06381(4)
Zn2 Zn 0.5000 0.32930(2) 0.2500
N1 N 0.3293(3) 0.62960(14) 0.1014(3)
C1 C 0.3493(3) 0.40368(18) 0.1381(3)
C2 C 0.3422(3) 0.46284(18) 0.1304(3)
C3 C 0.4227(3) 0.49248(18) 0.1471(3)
H1 H 0.4799 0.4751 0.1641
C4 C 0.4194(3) 0.54710(19) 0.1389(3)
H2 H 0.4742 0.5661 0.1510
C5 C 0.3341(3) 0.57400(17) 0.1124(3)
C6 C 0.2531(3) 0.54409(19) 0.0965(3)
H3 H 0.1958 0.5613 0.0796
C7 C 0.2577(3) 0.48933(18) 0.1058(3)
H4 H 0.2035 0.4701 0.0954
C8 C 0.1291(3) 0.76067(16) 0.2456(3)
C9 C 0.1785(3) 0.72459(16) 0.2062(3)
C10 C 0.1710(3) 0.73364(18) 0.1209(3)
H5 H 0.1335 0.7612 0.0870
C11 C 0.2199(3) 0.70136(17) 0.0860(3)
H6 H 0.2151 0.7076 0.0289
C12 C 0.2754(3) 0.66011(16) 0.1361(3)
C13 C 0.2811(4) 0.65037(18) 0.2211(3)
H7 H 0.3170 0.6221 0.2544
C14 C 0.2335(4) 0.68253(17) 0.2557(3)
H8 H 0.2381 0.6761 0.3127
C15 C 0.6218(3) 0.7286(3) 0.0375(4)
C16 C 0.5426(3) 0.7046(2) 0.0511(3)
C17 C 0.5000(3) 0.6585(2) 0.0061(3)
H9 H 0.5204 0.6433 -0.0339
C18 C 0.4275(3) 0.63476(19) 0.0199(3)
H10 H 0.3982 0.6045 -0.0119
C19 C 0.3985(3) 0.65671(17) 0.0823(3)
C20 C 0.4395(3) 0.70335(19) 0.1256(3)
H11 H 0.4194 0.7187 0.1657
C21 C 0.5104(3) 0.7273(2) 0.1096(3)
H12 H 0.5367 0.7589 0.1383
C22 C 0.0614(8) 0.3474(5) -0.1006(9)
H13 H 0.0426 0.3648 -0.1578
H14 H 0.0327 0.3124 -0.1119
C23 C 0.0216(13) 0.3765(7) -0.0520(16)
H15 H -0.0453 0.3780 -0.0851
H16 H 0.0466 0.4120 -0.0419
H17 H 0.0363 0.3594 0.0041
O1 O 0.4289(3) 0.38336(14) 0.1606(3)
O2 O 0.2746(3) 0.37718(13) 0.1200(3)
O3 O 0.0698(2) 0.79215(13) 0.1935(2)
O4 O 0.1478(2) 0.75774(12) 0.3271(2)
O5 O 0.6553(3) 0.7025(2) -0.0071(3)
O6 O 0.6524(3) 0.7726(2) 0.0738(3)
O7 O 0.1638(4) 0.3397(3) -0.0633(3)
Zn1B Zn 0.74080(4) 0.30642(3) 0.43619(4)
Zn1C Zn 0.24080(4) 0.80642(3) 0.43619(4)
Zn1D Zn 0.74080(4) 0.69358(3) -0.06381(4)
Zn1A Zn 0.75920(4) 0.80642(3) 0.06381(4)
Zn1F Zn 0.25920(4) 0.69358(3) 0.56381(4)
Zn2A Zn 0.0000 0.82930(2) 0.2500
Zn2A_2 Zn 1.0000 0.82930(2) 0.2500
N1B N 0.6707(3) 0.62960(14) 0.3986(3)
C1B C 0.6507(3) 0.40368(18) 0.3619(3)
C2B C 0.6578(3) 0.46284(18) 0.3696(3)
C3B C 0.5773(3) 0.49248(18) 0.3529(3)
H1B H 0.5201 0.4751 0.3359
C4B C 0.5806(3) 0.54710(19) 0.3611(3)
H2B H 0.5258 0.5661 0.3490
C5B C 0.6659(3) 0.57400(17) 0.3876(3)
C6B C 0.7469(3) 0.54409(19) 0.4035(3)
H3B H 0.8042 0.5613 0.4204
C7B C 0.7423(3) 0.48933(18) 0.3942(3)
H4B H 0.7965 0.4701 0.4046
C8B C 0.8709(3) 0.76067(16) 0.2544(3)
C9B C 0.8215(3) 0.72459(16) 0.2938(3)
C10B C 0.8290(3) 0.73364(18) 0.3791(3)
H5B H 0.8665 0.7612 0.4130
C11B C 0.7801(3) 0.70136(17) 0.4140(3)
H6B H 0.7849 0.7076 0.4711
C12B C 0.7246(3) 0.66011(16) 0.3639(3)
C13B C 0.7189(4) 0.65037(18) 0.2789(3)
H7B H 0.6830 0.6221 0.2456
C14B C 0.7665(4) 0.68253(17) 0.2443(3)
H8B H 0.7619 0.6761 0.1873
C15B C 0.3782(3) 0.7286(3) 0.4625(4)
C16B C 0.4574(3) 0.7046(2) 0.4489(3)
C17B C 0.5000(3) 0.6585(2) 0.4939(3)
H9B H 0.4796 0.6433 0.5339
C18B C 0.5725(3) 0.63476(19) 0.4801(3)
H10B H 0.6018 0.6045 0.5119
C19B C 0.6015(3) 0.65671(17) 0.4177(3)
C20B C 0.5605(3) 0.70335(19) 0.3744(3)
H11B H 0.5806 0.7187 0.3343
C21B C 0.4896(3) 0.7273(2) 0.3904(3)
H12B H 0.4633 0.7589 0.3617
C22B C 0.9386(8) 0.3474(5) 0.6006(9)
H13B H 0.9574 0.3648 0.6578
H14B H 0.9673 0.3124 0.6119
C23B C 0.9784(13) 0.3765(7) 0.5520(16)
H15B H 1.0453 0.3780 0.5851
H16B H 0.9534 0.4120 0.5419
H17B H 0.9637 0.3594 0.4959
O1B O 0.5711(3) 0.38336(14) 0.3394(3)
O2B O 0.7254(3) 0.37718(13) 0.3800(3)
O3B O 0.9302(2) 0.79215(13) 0.3065(2)
O3A O 0.5698(2) 0.29215(13) 0.1935(2)
O3C O 0.4302(2) 0.29215(13) 0.3065(2)
O4B O 0.8522(2) 0.75774(12) 0.1729(2)
O4C O 0.3522(2) 0.25774(12) 0.1729(2)
O4A O 0.6478(2) 0.25774(12) 0.3271(2)
O5B O 0.3447(3) 0.7025(2) 0.5071(3)
O5D O 0.3447(3) 0.2975(2) 0.0071(3)
O5F O 0.6553(3) 0.2975(2) 0.4929(3)
O6B O 0.3476(3) 0.7726(2) 0.4262(3)
O6A O 0.1524(3) 0.2726(2) 0.0738(3)
O6C O 0.8476(3) 0.2726(2) 0.4262(3)
O7B O 0.8362(4) 0.3397(3) 0.5633(3)
C24 C 0.1914(12) 0.3544(4) 0.2798(9)
H18 H 0.2581 0.3469 0.3094
H19 H 0.1617 0.3245 0.2411
C25 C 0.1563(12) 0.3582(6) 0.3430(9)
H20 H 0.1690 0.3258 0.3768
H21 H 0.0898 0.3639 0.3143
H22 H 0.1856 0.3874 0.3821
O8 O 0.1787(9) 0.3978(4) 0.2303(8)
H28 H 0.2013 0.3931 0.1943
C26 C 0.296(2) 0.4615(13) 0.8979(15)
H23 H 0.3384 0.4320 0.9242
H24 H 0.2946 0.4816 0.9473
C27 C 0.3406(10) 0.4925(7) 0.8639(10)
H25 H 0.4023 0.5001 0.9086
H26 H 0.3065 0.5252 0.8437
H27 H 0.3455 0.4748 0.8147
O9 O 0.2194(12) 0.4414(9) 0.8628(12)
H29 H 0.2178 0.4213 0.8232
loop_
_geom_bond_atom_site_label_1
_geom_bond_atom_site_label_2
_geom_bond_site_symmetry_1
_geom_bond_site_symmetry_2
Zn1 O2 1_555 1_555
Zn2 O1 1_555 1_555
N1 C5 1_555 1_555
C1 C2 1_555 1_555
C2 C3 1_555 1_555
C3 H1 1_555 1_555
C4 C3 1_555 1_555
H2 C4 1_555 1_555
C5 C4 1_555 1_555
C6 C5 1_555 1_555
H3 C6 1_555 1_555
C7 C2 1_555 1_555
H4 C7 1_555 1_555
C8 C9 1_555 1_555
C9 C10 1_555 1_555
C10 H5 1_555 1_555
C11 C10 1_555 1_555
H6 C11 1_555 1_555
C12 N1 1_555 1_555
C13 C12 1_555 1_555
H7 C13 1_555 1_555
C14 C9 1_555 1_555
H8 C14 1_555 1_555
C15 C16 1_555 1_555
C16 C17 1_555 1_555
C17 H9 1_555 1_555
C18 C17 1_555 1_555
H10 C18 1_555 1_555
C19 N1 1_555 1_555
C20 C19 1_555 1_555
H11 C20 1_555 1_555
C21 C16 1_555 1_555
H12 C21 1_555 1_555
C22 H13 1_555 1_555
H14 C22 1_555 1_555
C23 C22 1_555 1_555
H15 C23 1_555 1_555
H16 C23 1_555 1_555
H17 C23 1_555 1_555
C24 H18 1_555 1_555
H19 C24 1_555 1_555
C25 C24 1_555 1_555
H20 C25 1_555 1_555
H21 C25 1_555 1_555
H22 C25 1_555 1_555
C26 H23 1_555 1_555
H24 C26 1_555 1_555
C27 C26 1_555 1_555
H25 C27 1_555 1_555
H26 C27 1_555 1_555
H27 C27 1_555 1_555
O1 C1 1_555 1_555
O2 C1 1_555 1_555
O3 C8 1_555 1_555
O4 C8 1_555 1_555
O5 C15 1_555 1_555
O6 C15 1_555 1_555
O7 Zn1 1_555 1_555
O8 C24 1_555 1_555
H28 O8 1_555 1_555
O9 C26 1_555 1_555
H29 O9 1_555 1_555
Zn1B O2B 1_555 1_555
Zn1C O4 1_555 1_555
Zn1D O5 1_555 1_555
Zn1A O6 1_555 1_555
Zn1F O5B 1_555 1_555
Zn2A O3 1_555 1_555
Zn2A_2 O3B 1_555 1_555
N1B C5B 1_555 1_555
C1B C2B 1_555 1_555
C2B C3B 1_555 1_555
C3B H1B 1_555 1_555
C4B C3B 1_555 1_555
H2B C4B 1_555 1_555
C5B C4B 1_555 1_555
C6B C5B 1_555 1_555
H3B C6B 1_555 1_555
C7B C2B 1_555 1_555
H4B C7B 1_555 1_555
C8B C9B 1_555 1_555
C9B C10B 1_555 1_555
C10B H5B 1_555 1_555
C11B C10B 1_555 1_555
H6B C11B 1_555 1_555
C12B N1B 1_555 1_555
C13B C12B 1_555 1_555
H7B C13B 1_555 1_555
C14B C9B 1_555 1_555
H8B C14B 1_555 1_555
C15B C16B 1_555 1_555
C16B C17B 1_555 1_555
C17B H9B 1_555 1_555
C18B C17B 1_555 1_555
H10B C18B 1_555 1_555
C19B N1B 1_555 1_555
C20B C19B 1_555 1_555
H11B C20B 1_555 1_555
C21B C16B 1_555 1_555
H12B C21B 1_555 1_555
C22B H13B 1_555 1_555
H14B C22B 1_555 1_555
C23B C22B 1_555 1_555
H15B C23B 1_555 1_555
H16B C23B 1_555 1_555
H17B C23B 1_555 1_555
O1B Zn2 1_555 1_555
O2B C1B 1_555 1_555
O3B C8B 1_555 1_555
O3A Zn2 1_555 1_555
O3C Zn2 1_555 1_555
O4B Zn1A 1_555 1_555
O4C Zn1 1_555 1_555
O4A Zn1B 1_555 1_555
O5B C15B 1_555 1_555
O5D Zn1 1_555 1_555
O5F Zn1B 1_555 1_555
O6B Zn1C 1_555 1_555
O6A Zn1 1_555 1_555
O6C Zn1B 1_555 1_555
O7B Zn1B 1_555 1_555
C6 C7 1_555 1_555
C11 C12 1_555 1_555
C13 C14 1_555 1_555
C18 C19 1_555 1_555
C20 C21 1_555 1_555
C22 O7 1_555 1_555
C1B O1B 1_555 1_555
C6B C7B 1_555 1_555
C8B O4B 1_555 1_555
C11B C12B 1_555 1_555
C13B C14B 1_555 1_555
C15B O6B 1_555 1_555
C18B C19B 1_555 1_555
C20B C21B 1_555 1_555
C22B O7B 1_555 1_555

#END
