
#######################################################################
#
#                 Cambridge Crystallographic Data Centre
#                                CCDC 
#
#######################################################################
#
# If this CIF has been generated from an entry in the Cambridge 
# Structural Database, then it will include bibliographic, chemical, 
# crystal, experimental, refinement or atomic coordinate data resulting 
# from the CCDC's data processing and validation procedures.
#
#######################################################################

data_LUYHAP
_chemical_name_common            PCN-46
_chemical_formula_moiety         '(C20 H10 Cu2 O10)n,10n(C4 H9 N1 O1),4n(H2 O1)'
_chemical_name_systematic        
'catena-((\m~8~-1,4-bis(3,5-Dicarboxylatophenyl)buta-1,3-diyne)-diaqua-di-copper dimethylacetamide solvate tetrahydrate)'
_symmetry_cell_setting           rhombohedral
_symmetry_space_group_name_H-M   'R -3 m'
_symmetry_Int_Tables_number      166
_space_group_name_Hall           '-R 3 2"'
loop_
_symmetry_equiv_pos_site_id
_symmetry_equiv_pos_as_xyz
1 x,y,z
2 -y,x-y,z
3 -x+y,-x,z
4 x-y,-y,-z
5 -x,-x+y,-z
6 y,x,-z
7 2/3+x,1/3+y,1/3+z
8 2/3-y,1/3+x-y,1/3+z
9 2/3-x+y,1/3-x,1/3+z
10 2/3+x-y,1/3-y,1/3-z
11 2/3-x,1/3-x+y,1/3-z
12 2/3+y,1/3+x,1/3-z
13 1/3+x,2/3+y,2/3+z
14 1/3-y,2/3+x-y,2/3+z
15 1/3-x+y,2/3-x,2/3+z
16 1/3+x-y,2/3-y,2/3-z
17 1/3-x,2/3-x+y,2/3-z
18 1/3+y,2/3+x,2/3-z
19 -x,-y,-z
20 y,-x+y,-z
21 x-y,x,-z
22 -x+y,y,z
23 x,x-y,z
24 -y,-x,z
25 1/3-x,2/3-y,2/3-z
26 1/3+y,2/3-x+y,2/3-z
27 1/3+x-y,2/3+x,2/3-z
28 1/3-x+y,2/3+y,2/3+z
29 1/3+x,2/3+x-y,2/3+z
30 1/3-y,2/3-x,2/3+z
31 2/3-x,1/3-y,1/3-z
32 2/3+y,1/3-x+y,1/3-z
33 2/3+x-y,1/3+x,1/3-z
34 2/3-x+y,1/3+y,1/3+z
35 2/3+x,1/3+x-y,1/3+z
36 2/3-y,1/3-x,1/3+z
_cell_length_a                   18.2386(8)
_cell_length_b                   18.2386(8)
_cell_length_c                   42.049(2)
_cell_angle_alpha                90
_cell_angle_beta                 90
_cell_angle_gamma                120
_cell_volume                     12113.5
_exptl_crystal_colour            green
_exptl_crystal_description       prism
_cell_formula_units_Z            9
loop_
_atom_site_label
_atom_site_type_symbol
_atom_site_fract_x
_atom_site_fract_y
_atom_site_fract_z
_atom_site_U_iso_or_equiv
_atom_site_thermal_displace_type
Cu1 Cu 0.05195(3) 0.525974(17) 0.025335(14) 0.0562 Uani
O1 O 0.02417(18) 0.58659(19) -0.04296(7) 0.0755 Uani
O2 O 0.10785(17) 0.62942(19) 0.00027(7) 0.0745 Uani
O3 O 0.1425(2) 0.57123(12) 0.06300(10) 0.0813 Uani
H1 H 0.1963 0.5981 0.0632 0.0970 Uiso
H2 H 0.1216 0.5608 0.0816 0.0970 Uiso
C1 C 0.0883(3) 0.6387(3) -0.02739(11) 0.0720 Uani
C2 C 0.2215(2) 0.7785(2) -0.02892(14) 0.0697 Uani
H3 H 0.2318 0.7682 -0.0077 0.0830 Uiso
C3 C 0.1488(3) 0.7202(3) -0.04386(10) 0.0768 Uani
C4 C 0.1346(3) 0.7348(4) -0.07467(12) 0.1071 Uani
H4 H 0.0842 0.6943 -0.0851 0.1290 Uiso
C5 C 0.1923(3) 0.8077(3) -0.0912(2) 0.1202 Uani
C6 C 0.1801(5) 0.8199(5) -0.1231(2) 0.1586 Uani
C7 C 0.1724(6) 0.8276(6) -0.1513(3) 0.1587 Uani
Cu1W Cu 0.474026(17) 0.94805(3) 0.025335(14) 0.0562 Uani
Cu1D Cu -0.05195(3) 0.474024(34) -0.025335(14) 0.0562 Uani
Cu1E Cu 0.525974(17) 1.05195(3) -0.025335(14) 0.0562 Uani
Cu1CA Cu -0.192641(17) 0.61472(3) -0.307998(14) 0.0562 Uani
Cu1Q Cu -0.140693(17) 0.71862(3) -0.358668(14) 0.0562 Uani
Cu1L Cu 0.38528(3) 1.192641(17) -0.307998(14) 0.0562 Uani
Cu1X Cu 0.28138(3) 1.140693(17) -0.358668(14) 0.0562 Uani
O1W O 0.41341(19) 0.97583(18) -0.04296(7) 0.0755 Uani
O1Q O -0.08008(19) 0.69084(18) -0.29037(7) 0.0755 Uani
O1X O 0.30916(18) 1.08008(19) -0.29037(7) 0.0755 Uani
O1R O -0.02417(18) 0.41341(19) 0.04296(7) 0.0755 Uani
O1D O -0.02417(18) 0.56242(26) 0.04296(7) 0.0755 Uani
O1E O 0.58659(19) 1.02417(18) 0.04296(7) 0.0755 Uani
O1T O 0.43758(26) 1.02417(18) 0.04296(7) 0.0755 Uani
O2W O 0.37058(19) 0.89215(17) 0.00027(7) 0.0745 Uani
O2Q O -0.03725(19) 0.77452(17) -0.33360(7) 0.0745 Uani
O2X O 0.22548(17) 1.03725(19) -0.33360(7) 0.0745 Uani
O2V O 0.10785(17) 0.47843(25) 0.00027(7) 0.0745 Uani
O2B O 0.52157(25) 0.89215(17) 0.00027(7) 0.0745 Uani
O3W O 0.42877(12) 0.8575(2) 0.06300(10) 0.0813 Uani
H1W H 0.4019 0.8037 0.0632 0.0970 Uiso
H2B H 0.4392 0.8784 0.0816 0.0970 Uiso
C1W C 0.3613(3) 0.9117(3) -0.02739(11) 0.0720 Uani
C1Q C -0.0280(3) 0.7550(3) -0.30594(11) 0.0720 Uani
C1X C 0.2450(3) 1.0280(3) -0.30594(11) 0.0720 Uani
C2Q C 0.1118(2) 0.8882(2) -0.30441(14) 0.0697 Uani
H3Q H 0.1015 0.8985 -0.3256 0.0830 Uiso
C3W C 0.2798(3) 0.8512(3) -0.04386(10) 0.0768 Uani
C3Q C 0.0535(3) 0.8155(3) -0.28947(10) 0.0768 Uani
C3X C 0.1845(3) 0.9465(3) -0.28947(10) 0.0768 Uani
C4W C 0.2652(4) 0.8654(3) -0.07467(12) 0.1071 Uani
C4Q C 0.0681(4) 0.8013(3) -0.25866(12) 0.1071 Uani
C4X C 0.1987(3) 0.9319(4) -0.25866(12) 0.1071 Uani
H4W H 0.3057 0.9158 -0.0851 0.1290 Uiso
H4X H 0.2491 0.9724 -0.2482 0.1290 Uiso
H4Q H 0.0276 0.7509 -0.2482 0.1290 Uiso
C5Q C 0.1410(3) 0.8590(3) -0.2421(2) 0.1202 Uani
C6Q C 0.1532(5) 0.8468(5) -0.2102(2) 0.1586 Uani
C7Q C 0.1609(6) 0.8391(6) -0.1820(3) 0.1587 Uani
loop_
_atom_site_aniso_label
_atom_site_aniso_U_11
_atom_site_aniso_U_22
_atom_site_aniso_U_33
_atom_site_aniso_U_23
_atom_site_aniso_U_13
_atom_site_aniso_U_12
Cu1 0.0409(4) 0.0720(4) 0.0454(4) -0.00301(12) -0.0060(2) 0.02043(19)
O1 0.0614(15) 0.0738(18) 0.0605(17) 0.0074(14) -0.0125(13) 0.0108(14)
O2 0.0636(16) 0.0778(19) 0.0589(17) 0.0086(14) -0.0093(13) 0.0179(14)
O3 0.056(2) 0.107(3) 0.064(2) -0.0097(9) -0.0193(18) 0.0280(11)
C1 0.061(2) 0.071(3) 0.068(3) 0.004(2) 0.002(2) 0.021(2)
C2 0.066(2) 0.066(2) 0.061(3) 0.0050(15) -0.0050(15) 0.021(3)
C3 0.068(2) 0.079(3) 0.057(2) 0.008(2) -0.0078(19) 0.017(2)
C4 0.084(3) 0.104(4) 0.076(3) 0.018(3) -0.020(3) 0.004(3)
C5 0.113(4) 0.113(4) 0.074(5) 0.030(3) -0.030(3) 0.011(5)
C6 0.129(5) 0.129(5) 0.101(7) 0.041(4) -0.041(4) -0.023(6)
C7 0.142(5) 0.142(5) 0.092(6) 0.045(4) -0.045(4) -0.004(7)
Cu1W 0.07204 0.0409 0.0454 0.006 0.00299 0.02047
Cu1D 0.0409 0.07204 0.0454 -0.00299 -0.006 0.02047
Cu1E 0.072 0.0409 0.0454 0.006 0.00301 0.02043
Cu1CA 0.07204 0.0409 0.0454 0.006 0.00299 0.02047
Cu1Q 0.072 0.0409 0.0454 0.006 0.00301 0.02043
Cu1L 0.0409 0.072 0.0454 -0.00301 -0.006 0.02043
Cu1X 0.0409 0.07204 0.0454 -0.00299 -0.006 0.02047
O1W 0.0738 0.0614 0.0605 0.0125 -0.0074 0.0108
O1Q 0.0738 0.0614 0.0605 0.0125 -0.0074 0.0108
O1X 0.0614 0.0738 0.0605 0.0074 -0.0125 0.0108
O1R 0.0614 0.0738 0.0605 0.0074 -0.0125 0.0108
O1D 0.0614 0.1136 0.0605 -0.0199 -0.0125 0.0506
O1E 0.0738 0.0614 0.0605 0.0125 -0.0074 0.0108
O1T 0.1136 0.0614 0.0605 0.0125 0.0199 0.0506
O2W 0.0778 0.0636 0.0589 0.0093 -0.0086 0.0179
O2Q 0.0778 0.0636 0.0589 0.0093 -0.0086 0.0179
O2X 0.0636 0.0778 0.0589 0.0086 -0.0093 0.0179
O2V 0.0636 0.1056 0.0589 -0.0179 -0.0093 0.0457
O2B 0.1056 0.0636 0.0589 0.0093 0.0179 0.0457
O3W 0.107 0.056 0.064 0.0193 0.0096 0.028
C1W 0.071 0.061 0.068 -0.002 -0.004 0.021
C1Q 0.071 0.061 0.068 -0.002 -0.004 0.021
C1X 0.061 0.071 0.068 0.004 0.002 0.021
C2Q 0.066 0.066 0.061 0.005 -0.005 0.021
C3W 0.079 0.068 0.057 0.0078 -0.008 0.017
C3Q 0.079 0.068 0.057 0.0078 -0.008 0.017
C3X 0.068 0.079 0.057 0.008 -0.0078 0.017
C4W 0.104 0.084 0.076 0.02 -0.018 0.004
C4Q 0.104 0.084 0.076 0.02 -0.018 0.004
C4X 0.084 0.104 0.076 0.018 -0.02 0.004
C5Q 0.113 0.113 0.074 0.03 -0.03 0.011
C6Q 0.129 0.129 0.101 0.041 -0.041 -0.023
C7Q 0.142 0.142 0.092 0.045 -0.045 -0.004
loop_
_geom_bond_atom_site_label_1
_geom_bond_atom_site_label_2
_geom_bond_site_symmetry_1
_geom_bond_site_symmetry_2
Cu1 O2 1_555 1_555
O1 C1 1_555 1_555
O2 C1 1_555 1_555
O3 Cu1 1_555 1_555
H1 O3 1_555 1_555
H2 O3 1_555 1_555
C1 C3 1_555 1_555
C2 H3 1_555 1_555
C3 C2 1_555 1_555
C4 C3 1_555 1_555
H4 C4 1_555 1_555
C5 C4 1_555 1_555
C6 C5 1_555 1_555
C7 C6 1_555 1_555
Cu1W Cu1E 1_555 1_555
Cu1D Cu1 1_555 1_555
Cu1E O1W 1_555 1_555
Cu1CA Cu1Q 1_555 1_555
Cu1Q O2Q 1_555 1_555
Cu1L Cu1X 1_555 1_555
Cu1X O2X 1_555 1_555
O1W C1W 1_555 1_555
O1Q Cu1CA 1_555 1_555
O1X Cu1L 1_555 1_555
O1R Cu1 1_555 1_555
O1D Cu1 1_555 1_555
O1E Cu1W 1_555 1_555
O1T Cu1W 1_555 1_555
O2W Cu1W 1_555 1_555
O2Q C1Q 1_555 1_555
O2X C1X 1_555 1_555
O2V Cu1 1_555 1_555
O2B Cu1W 1_555 1_555
O3W Cu1W 1_555 1_555
H1W O3W 1_555 1_555
H2B O3W 1_555 1_555
C1W O2W 1_555 1_555
C1Q O1Q 1_555 1_555
C1X O1X 1_555 1_555
C2Q H3Q 1_555 1_555
C3W C2 1_555 1_555
C3Q C1Q 1_555 1_555
C3X C1X 1_555 1_555
C4W C5 1_555 1_555
C4Q C3Q 1_555 1_555
C4X C3X 1_555 1_555
H4W C4W 1_555 1_555
H4X C4X 1_555 1_555
H4Q C4Q 1_555 1_555
C5Q C4Q 1_555 1_555
C6Q C5Q 1_555 1_555
C7Q C7 1_555 1_555
O1 Cu1D 1_555 1_555
C1W C3W 1_555 1_555
C2Q C3Q 1_555 1_555
C2Q C3X 1_555 1_555
C3W C4W 1_555 1_555
C4X C5Q 1_555 1_555
C6Q C7Q 1_555 1_555

#END
