
#######################################################################
#
#                 Cambridge Crystallographic Data Centre
#                                CCDC 
#
#######################################################################
#
# If this CIF has been generated from an entry in the Cambridge 
# Structural Database, then it will include bibliographic, chemical, 
# crystal, experimental, refinement or atomic coordinate data resulting 
# from the CCDC's data processing and validation procedures.
#
#######################################################################

data_GUPLAF
_chemical_formula_moiety         '(C4 H3 Cu1 N3 O5)n'
_chemical_name_systematic        
catena-((\m~2~-6-Carboxylato-2,4-dioxo-3,4-dihydro-2H-1,3,5-triazin-1-ide)-aqua-copper(ii))
_symmetry_cell_setting           monoclinic
_symmetry_space_group_name_H-M   'P 21/a'
_symmetry_Int_Tables_number      14
_space_group_name_Hall           '-P 2yab'
loop_
_symmetry_equiv_pos_site_id
_symmetry_equiv_pos_as_xyz
1 x,y,z
2 1/2-x,1/2+y,-z
3 -x,-y,-z
4 1/2+x,1/2-y,z
_cell_length_a                   9.85060(43)
_cell_length_b                   10.43589(49)
_cell_length_c                   6.35439(28)
_cell_angle_alpha                90
_cell_angle_beta                 105.9482(21)
_cell_angle_gamma                90
_cell_volume                     628.087
_exptl_crystal_colour            'light blue'
_cell_formula_units_Z            4
loop_
_atom_site_label
_atom_site_type_symbol
_atom_site_fract_x
_atom_site_fract_y
_atom_site_fract_z
Cu1 Cu -0.74185(41) -0.88147(86) -0.03898(57)
O1 O -0.6555(11) -0.8658(21) -0.3083(20)
C1 C -0.822450 -1.120240 -0.055160
C2 C -0.680780 -1.119670 0.091670
O2 O -0.619350 -1.015710 0.151940
O3 O -0.620070 -1.223130 0.157980
N1 N -0.887900 -1.005380 -0.135470
C3 C -1.023710 -1.005930 -0.276220
O4 O -1.087280 -0.894380 -0.354220
N2 N -1.09406 -1.12134 -0.33666
H1 H -1.186880 -1.121720 -0.432860
C4 C -1.028610 -1.236200 -0.256350
O5 O -1.096940 -1.348290 -0.315050
N3 N -0.892800 -1.235650 -0.115600
Cu1A Cu -0.75815(41) -1.38147(86) 0.03898(57)
O3A O -0.879930 -0.723130 -0.157980
N3A N -0.607200 -0.735650 0.115600
loop_
_geom_bond_atom_site_label_1
_geom_bond_atom_site_label_2
_geom_bond_site_symmetry_1
_geom_bond_site_symmetry_2
Cu1 O1 1_555 1_555
C1 C2 1_555 1_555
C2 O2 1_555 1_555
O2 Cu1 1_555 1_555
O3 C2 1_555 1_555
N1 Cu1 1_555 1_555
C3 N1 1_555 1_555
O4 C3 1_555 1_555
N2 C3 1_555 1_555
H1 N2 1_555 1_555
C4 N2 1_555 1_555
O5 C4 1_555 1_555
N3 C1 1_555 1_555
Cu1A O3 1_555 1_555
O3A Cu1 1_555 1_555
N3A Cu1 1_555 1_555
C1 N1 1_555 1_555
C4 N3 1_555 1_555
N3 Cu1A 1_555 1_555

#END
