
#######################################################################
#
#                 Cambridge Crystallographic Data Centre
#                                CCDC 
#
#######################################################################
#
# If this CIF has been generated from an entry in the Cambridge 
# Structural Database, then it will include bibliographic, chemical, 
# crystal, experimental, refinement or atomic coordinate data resulting 
# from the CCDC's data processing and validation procedures.
#
#######################################################################

data_GUPLEJ
_chemical_formula_moiety         '(C18 H10 Cu2 N8 O8)n,3n(H2 O1)'
_chemical_name_systematic        
"catena-(bis(\m~3~-6-Carboxylato-2,4-dioxo-3,4-dihydro-2H-1,3,5-triazin-1-ide)-(\m~2~-4,4'-bipyridine-N,N')-di-copper(ii) trihydrate)"
_symmetry_cell_setting           monoclinic
_symmetry_space_group_name_H-M   'C 2/c'
_symmetry_Int_Tables_number      15
_space_group_name_Hall           '-C 2yc'
loop_
_symmetry_equiv_pos_site_id
_symmetry_equiv_pos_as_xyz
1 x,y,z
2 1/2+x,1/2+y,z
3 -x,y,1/2-z
4 1/2-x,1/2+y,1/2-z
5 -x,-y,-z
6 1/2-x,1/2-y,-z
7 x,-y,1/2+z
8 1/2+x,1/2-y,1/2+z
_cell_length_a                   21.5400(12)
_cell_length_b                   11.46616(70)
_cell_length_c                   9.36790(48)
_cell_angle_alpha                90
_cell_angle_beta                 110.3004(39)
_cell_angle_gamma                90
_cell_volume                     2169.98
_exptl_crystal_colour            'light blue'
_cell_formula_units_Z            4
loop_
_atom_site_label
_atom_site_type_symbol
_atom_site_fract_x
_atom_site_fract_y
_atom_site_fract_z
Cu1 Cu 0.84965(15) 0.62394(30) 0.06178(35)
C1 C 0.830230 0.470030 0.265400
C2 C 0.888390 0.536880 0.350970
O1 O 0.910090 0.613620 0.285870
O2 O 0.916810 0.517780 0.489840
N1 N 0.799940 0.488530 0.109950
C3 C 0.744190 0.424440 0.027920
O3 O 0.714770 0.442410 -0.12306
N2 N 0.718740 0.341850 0.101340
H1 H 0.680640 0.298050 0.045280
C4 C 0.749030 0.323360 0.256790
O4 O 0.724310 0.243150 0.328100
N3 N 0.804780 0.387440 0.338820
N4 N 0.903360 0.761010 0.036870
C5 C 0.875970 0.873960 -0.002840
H2 H 0.827800 0.884840 -0.020560
C6 C 0.914020 0.968070 -0.017360
H3 H 0.892280 1.044280 -0.045160
C7 C 0.979470 0.949220 0.007830
C8 C 1.009870 0.843720 0.046400
H4 H 1.057080 0.830470 0.064480
C9 C 0.971810 0.749610 0.060920
H5 H 0.992600 0.671030 0.089080
Cu1F Cu 0.84965(15) 0.37606(30) -0.43822(35)
Cu1F_2 Cu 0.84965(15) 0.37606(30) 0.56178(35)
Cu1C Cu 0.65035(15) 0.12394(30) 0.43822(35)
Cu1D Cu 1.15035(15) 1.37606(30) -0.06178(35)
Cu1E Cu 0.65035(15) 0.87606(30) -0.06178(35)
C1F C 0.830230 0.529970 -0.234600
C2F C 0.888390 0.463120 -0.149030
O1F O 0.910090 0.386380 -0.214130
O2F O 0.916810 0.482220 -0.010160
O2_2 O 0.916810 0.517780 -0.510160
N1F N 0.799940 0.511470 -0.390050
C3F C 0.744190 0.575560 -0.472080
O3F O 0.714770 0.557590 -0.62306
N2F N 0.718740 0.658150 -0.398660
H1F H 0.680640 0.701950 -0.454720
C4F C 0.749030 0.676640 -0.243210
O4F O 0.724310 0.756850 -0.171900
O4C O 0.775690 0.743150 0.171900
O4E O 0.775690 0.256850 -0.328100
N3F N 0.804780 0.612560 -0.161180
N3_2 N 0.804780 0.387440 -0.661180
N4D N 1.096640 1.238990 -0.036870
N4F N 0.903360 0.238990 -0.463130
C5D C 1.124030 1.126040 0.002840
H2D H 1.172200 1.115160 0.020560
C6D C 1.085980 1.031930 0.017360
H3D H 1.107720 0.955720 0.045160
C7D C 1.020530 1.050780 -0.007830
C8D C 0.990130 1.156280 -0.046400
H4D H 0.942920 1.169530 -0.064480
C9D C 1.028190 1.250390 -0.060920
H5D H 1.007400 1.328970 -0.089080
O5 O 0.50000 -0.1445(15) 0.25000
O6 O 0.88692(64) 0.7542(10) -0.3488(11)
loop_
_geom_bond_atom_site_label_1
_geom_bond_atom_site_label_2
_geom_bond_site_symmetry_1
_geom_bond_site_symmetry_2
Cu1 O1 1_555 1_555
C1 C2 1_555 1_555
C2 O1 1_555 1_555
O2 C2 1_555 1_555
N1 Cu1 1_555 1_555
C3 N1 1_555 1_555
O3 C3 1_555 1_555
N2 C3 1_555 1_555
H1 N2 1_555 1_555
C4 N2 1_555 1_555
O4 C4 1_555 1_555
N3 C1 1_555 1_555
N4 Cu1 1_555 1_555
C5 N4 1_555 1_555
H2 C5 1_555 1_555
C6 C5 1_555 1_555
H3 C6 1_555 1_555
C7 C6 1_555 1_555
C8 C7 1_555 1_555
H4 C8 1_555 1_555
C9 N4 1_555 1_555
H5 C9 1_555 1_555
Cu1F O1F 1_555 1_555
Cu1F_2 O2 1_555 1_555
Cu1C O4 1_555 1_555
Cu1D N4D 1_555 1_555
Cu1E O4F 1_555 1_555
C1F C2F 1_555 1_555
C2F O1F 1_555 1_555
O2F Cu1 1_555 1_555
O2_2 Cu1F 1_555 1_555
N1F Cu1F 1_555 1_555
C3F N1F 1_555 1_555
O3F C3F 1_555 1_555
N2F C3F 1_555 1_555
H1F N2F 1_555 1_555
C4F N2F 1_555 1_555
O4F C4F 1_555 1_555
O4C Cu1 1_555 1_555
O4E Cu1F 1_555 1_555
N3F Cu1 1_555 1_555
N3_2 Cu1F 1_555 1_555
N4D C5D 1_555 1_555
N4F Cu1F 1_555 1_555
C5D H2D 1_555 1_555
C6D C5D 1_555 1_555
H3D C6D 1_555 1_555
C7D C7 1_555 1_555
C8D C7D 1_555 1_555
H4D C8D 1_555 1_555
C9D N4D 1_555 1_555
H5D C9D 1_555 1_555
C1 N1 1_555 1_555
C4 N3 1_555 1_555
N3 Cu1F_2 1_555 1_555
C8 C9 1_555 1_555
C1F N1F 1_555 1_555
C1F N3F 1_555 1_555
C2F O2F 1_555 1_555
C4F N3F 1_555 1_555
C6D C7D 1_555 1_555
C8D C9D 1_555 1_555

#END
