
#######################################################################
#
#                 Cambridge Crystallographic Data Centre
#                                CCDC 
#
#######################################################################
#
# If this CIF has been generated from an entry in the Cambridge 
# Structural Database, then it will include bibliographic, chemical, 
# crystal, experimental, refinement or atomic coordinate data resulting 
# from the CCDC's data processing and validation procedures.
#
#######################################################################

data_ECESEN
_chemical_name_common            InOF-15
_chemical_formula_moiety         '(C63 H42 In3 N6 O16 1+)n,N1 O3 1-'
_chemical_name_systematic        
"catena-[(\m-oxo)-tris(\m-2,2'-biquinoline-4,4'-dicarboxylato)-tri-indium(iii) nitrate unknown solvate]"
_symmetry_cell_setting           hexagonal
_symmetry_space_group_name_H-M   'P 63/m'
_symmetry_Int_Tables_number      176
_space_group_name_Hall           '-P 6c'
loop_
_symmetry_equiv_pos_site_id
_symmetry_equiv_pos_as_xyz
1 x,y,z
2 x-y,x,1/2+z
3 -y,x-y,z
4 -x,-y,1/2+z
5 -x+y,-x,z
6 y,-x+y,1/2+z
7 -x,-y,-z
8 -x+y,-x,1/2-z
9 y,-x+y,-z
10 x,y,1/2-z
11 x-y,x,-z
12 -y,x-y,1/2-z
_cell_length_a                   15.1951(11)
_cell_length_b                   15.1951(11)
_cell_length_c                   23.091(2)
_cell_angle_alpha                90
_cell_angle_beta                 90
_cell_angle_gamma                120
_cell_volume                     4617.22
_exptl_crystal_colour            'light yellow'
_cell_formula_units_Z            2
_exptl_crystal_recrystallization_method 'Vapour deposition'
loop_
_atom_site_label
_atom_site_type_symbol
_atom_site_fract_x
_atom_site_fract_y
_atom_site_fract_z
In1 In 0.20943(2) 0.52396(2) 0.7500
N1 N -0.0265(3) 0.6013(2) 0.50539(13)
O1 O 0.1322(2) 0.5607(2) 0.68366(11)
C1 C 0.1426(3) 0.6419(3) 0.66314(14)
C2 C 0.0826(3) 0.6318(3) 0.60914(14)
C3 C -0.0101(3) 0.6797(3) 0.54252(16)
C4 C 0.0447(3) 0.6993(3) 0.59506(16)
C5 C 0.0622(3) 0.5538(3) 0.57266(16)
H1 H 0.0835 0.5078 0.5821
C6 C 0.0089(3) 0.5418(3) 0.52053(16)
C7 C -0.0516(3) 0.7408(3) 0.52639(19)
H2 H -0.0876 0.7280 0.4919
C8 C 0.0563(3) 0.7807(3) 0.62987(17)
H3 H 0.0929 0.7958 0.6643
C9 C -0.0389(3) 0.8195(3) 0.5616(2)
H4 H -0.0657 0.8603 0.5507
C10 C 0.0134(3) 0.8376(4) 0.6129(2)
H5 H 0.0200 0.8899 0.6368
O2 O 0.3333 0.6667 0.7500
O3 O 0.2002(2) 0.7290(2) 0.68210(11)
O4 O 0.0850(3) 0.3757(3) 0.7500
C11 C 0.0129(5) 0.3113(5) 0.7500
N1F N 0.0265(3) 0.3987(2) 0.49461(13)
O1F O -0.1322(2) 0.4393(2) 0.31634(11)
C1F C -0.1426(3) 0.3581(3) 0.33686(14)
C2F C -0.0826(3) 0.3682(3) 0.39086(14)
C3F C 0.0101(3) 0.3203(3) 0.45748(16)
C4F C -0.0447(3) 0.3007(3) 0.40494(16)
C5F C -0.0622(3) 0.4462(3) 0.42734(16)
H1F H -0.0835 0.4922 0.4179
C6F C -0.0089(3) 0.4582(3) 0.47947(16)
C7F C 0.0516(3) 0.2592(3) 0.47361(19)
H2F H 0.0876 0.2720 0.5081
C8F C -0.0563(3) 0.2193(3) 0.37013(17)
H3F H -0.0929 0.2042 0.3357
C9F C 0.0389(3) 0.1805(3) 0.4384(2)
H4F H 0.0657 0.1397 0.4493
C10F C -0.0134(3) 0.1624(4) 0.3871(2)
H5F H -0.0200 0.1101 0.3632
O3F O -0.2002(2) 0.2710(2) 0.31790(11)
In1B In 0.47604(2) 0.68547(3) 0.7500
N1B N 0.3987(2) 0.3722(4) 0.50539(13)
O1B O 0.4393(2) 0.5715(3) 0.68366(11)
C1B C 0.3581(3) 0.5007(4) 0.66314(14)
C2B C 0.3682(3) 0.4508(4) 0.60914(14)
C3B C 0.3203(3) 0.3102(4) 0.54252(16)
C4B C 0.3007(3) 0.3454(4) 0.59506(16)
C5B C 0.4462(3) 0.5084(4) 0.57266(16)
H1B H 0.4922 0.5757 0.5821
C6B C 0.4582(3) 0.4671(4) 0.52053(16)
C7B C 0.2592(3) 0.2076(4) 0.52639(19)
H2B H 0.2720 0.1844 0.4919
C8B C 0.2193(3) 0.2756(4) 0.62987(17)
H3B H 0.2042 0.2971 0.6643
C9B C 0.1805(3) 0.1416(4) 0.5616(2)
H4B H 0.1397 0.0740 0.5507
C10B C 0.1624(4) 0.1758(5) 0.6129(2)
H5B H 0.1101 0.1301 0.6368
O3B O 0.2710(2) 0.4712(3) 0.68210(11)
O4B O 0.6243(3) 0.7093(4) 0.7500
C11B C 0.6887(5) 0.7016(7) 0.7500
N1H N 0.6013(2) 0.6278(4) 0.49461(13)
O1H O 0.5607(2) 0.4285(3) 0.31634(11)
C1H C 0.6419(3) 0.4993(4) 0.33686(14)
C2H C 0.6318(3) 0.5492(4) 0.39086(14)
C3H C 0.6797(3) 0.6898(4) 0.45748(16)
C4H C 0.6993(3) 0.6546(4) 0.40494(16)
C5H C 0.5538(3) 0.4916(4) 0.42734(16)
H1H H 0.5078 0.4243 0.4179
C6H C 0.5418(3) 0.5329(4) 0.47947(16)
C7H C 0.7408(3) 0.7924(4) 0.47361(19)
H2H H 0.7280 0.8156 0.5081
C8H C 0.7807(3) 0.7244(4) 0.37013(17)
H3H H 0.7958 0.7029 0.3357
C9H C 0.8195(3) 0.8584(4) 0.4384(2)
H4H H 0.8603 0.9260 0.4493
C10H C 0.8376(4) 0.8242(5) 0.3871(2)
H5H H 0.8899 0.8699 0.3632
O3H O 0.7290(2) 0.5288(3) 0.31790(11)
In1D In 0.31453(3) 0.79057(2) 0.7500
N1D N 0.6278(4) 1.0265(3) 0.50539(13)
O1D O 0.4285(3) 0.8678(2) 0.68366(11)
C1D C 0.4993(4) 0.8574(3) 0.66314(14)
C2D C 0.5492(4) 0.9174(3) 0.60914(14)
C3D C 0.6898(4) 1.0101(3) 0.54252(16)
C4D C 0.6546(4) 0.9553(3) 0.59506(16)
C5D C 0.4916(4) 0.9378(3) 0.57266(16)
H1D H 0.4243 0.9165 0.5821
C6D C 0.5329(4) 0.9911(3) 0.52053(16)
C7D C 0.7924(4) 1.0516(3) 0.52639(19)
H2D H 0.8156 1.0876 0.4919
C8D C 0.7244(4) 0.9437(3) 0.62987(17)
H3D H 0.7029 0.9071 0.6643
C9D C 0.8584(4) 1.0389(3) 0.5616(2)
H4D H 0.9260 1.0657 0.5507
C10D C 0.8242(5) 0.9866(3) 0.6129(2)
H5D H 0.8699 0.9800 0.6368
O3D O 0.5288(3) 0.7998(2) 0.68210(11)
O4D O 0.2907(4) 0.9150(3) 0.7500
C11D C 0.2984(7) 0.9871(5) 0.7500
N1J N 0.3722(4) 0.9735(3) 0.49461(13)
O1J O 0.5715(3) 1.1322(2) 0.31634(11)
C1J C 0.5007(4) 1.1426(3) 0.33686(14)
C2J C 0.4508(4) 1.0826(3) 0.39086(14)
C3J C 0.3102(4) 0.9899(3) 0.45748(16)
C4J C 0.3454(4) 1.0447(3) 0.40494(16)
C5J C 0.5084(4) 1.0622(3) 0.42734(16)
H1J H 0.5757 1.0835 0.4179
C6J C 0.4671(4) 1.0089(3) 0.47947(16)
C7J C 0.2076(4) 0.9484(3) 0.47361(19)
H2J H 0.1844 0.9124 0.5081
C8J C 0.2756(4) 1.0563(3) 0.37013(17)
H3J H 0.2971 1.0929 0.3357
C9J C 0.1416(4) 0.9611(3) 0.4384(2)
H4J H 0.0740 0.9343 0.4493
C10J C 0.1758(5) 1.0134(3) 0.3871(2)
H5J H 0.1301 1.0200 0.3632
O3J O 0.4712(3) 1.2002(2) 0.31790(11)
In1A In -0.31453(3) 0.20943(2) 0.2500
In1A_2 In 0.68547(3) 1.20943(2) 0.2500
In1C In -0.20943(2) 0.47604(2) 0.2500
In1C_2 In 0.79057(2) 0.47604(2) 0.2500
In1E In 0.52396(2) 0.31453(3) 0.2500
In1E_2 In 0.52396(2) 1.31453(3) 0.2500
O1G O 0.4285(3) 0.8678(2) 0.81634(11)
O1I O 0.1322(2) 0.5607(2) 0.81634(11)
O1K O 0.4393(2) 0.5715(3) 0.81634(11)
O3G O 0.5288(3) 0.7998(2) 0.81790(11)
O3I O 0.2002(2) 0.7290(2) 0.81790(11)
O3K O 0.2710(2) 0.4712(3) 0.81790(11)
H6? H 0.0122 0.2614 0.7242
H7? H -0.0362 0.3294 0.7374
H8? H -0.0037 0.2837 0.7884
loop_
_geom_bond_atom_site_label_1
_geom_bond_atom_site_label_2
_geom_bond_site_symmetry_1
_geom_bond_site_symmetry_2
In1 O1 1_555 1_555
N1 C3 1_555 1_555
O1 C1 1_555 1_555
C1 C2 1_555 1_555
C2 C4 1_555 1_555
C3 C4 1_555 1_555
C4 C8 1_555 1_555
C5 C2 1_555 1_555
H1 C5 1_555 1_555
C6 N1 1_555 1_555
C7 C3 1_555 1_555
H2 C7 1_555 1_555
C8 H3 1_555 1_555
C9 C7 1_555 1_555
H4 C9 1_555 1_555
C10 C8 1_555 1_555
H5 C10 1_555 1_555
O2 In1 1_555 1_555
O3 C1 1_555 1_555
O4 In1 1_555 1_555
C11 O4 1_555 1_555
N1F C3F 1_555 1_555
O1F C1F 1_555 1_555
C1F C2F 1_555 1_555
C2F C4F 1_555 1_555
C3F C4F 1_555 1_555
C4F C8F 1_555 1_555
C5F C2F 1_555 1_555
H1F C5F 1_555 1_555
C6F C6 1_555 1_555
C7F C3F 1_555 1_555
H2F C7F 1_555 1_555
C8F H3F 1_555 1_555
C9F C7F 1_555 1_555
H4F C9F 1_555 1_555
C10F C8F 1_555 1_555
H5F C10F 1_555 1_555
O3F C1F 1_555 1_555
In1B O2 1_555 1_555
N1B C3B 1_555 1_555
O1B In1B 1_555 1_555
C1B O1B 1_555 1_555
C2B C1B 1_555 1_555
C3B C4B 1_555 1_555
C4B C2B 1_555 1_555
C5B C2B 1_555 1_555
H1B C5B 1_555 1_555
C6B N1B 1_555 1_555
C7B C3B 1_555 1_555
H2B C7B 1_555 1_555
C8B C4B 1_555 1_555
H3B C8B 1_555 1_555
C9B C7B 1_555 1_555
H4B C9B 1_555 1_555
C10B C8B 1_555 1_555
H5B C10B 1_555 1_555
O3B In1 1_555 1_555
O4B In1B 1_555 1_555
C11B O4B 1_555 1_555
N1H C3H 1_555 1_555
O1H C1H 1_555 1_555
C1H C2H 1_555 1_555
C2H C4H 1_555 1_555
C3H C4H 1_555 1_555
C4H C8H 1_555 1_555
C5H C2H 1_555 1_555
H1H C5H 1_555 1_555
C6H C6B 1_555 1_555
C7H C3H 1_555 1_555
H2H C7H 1_555 1_555
C8H H3H 1_555 1_555
C9H C7H 1_555 1_555
H4H C9H 1_555 1_555
C10H C8H 1_555 1_555
H5H C10H 1_555 1_555
O3H C1H 1_555 1_555
In1D O2 1_555 1_555
N1D C3D 1_555 1_555
O1D In1D 1_555 1_555
C1D O1D 1_555 1_555
C2D C1D 1_555 1_555
C3D C4D 1_555 1_555
C4D C2D 1_555 1_555
C5D C2D 1_555 1_555
H1D C5D 1_555 1_555
C6D N1D 1_555 1_555
C7D C3D 1_555 1_555
H2D C7D 1_555 1_555
C8D C4D 1_555 1_555
H3D C8D 1_555 1_555
C9D C7D 1_555 1_555
H4D C9D 1_555 1_555
C10D C8D 1_555 1_555
H5D C10D 1_555 1_555
O3D In1B 1_555 1_555
O4D In1D 1_555 1_555
C11D O4D 1_555 1_555
N1J C3J 1_555 1_555
O1J C1J 1_555 1_555
C1J C2J 1_555 1_555
C2J C4J 1_555 1_555
C3J C4J 1_555 1_555
C4J C8J 1_555 1_555
C5J C2J 1_555 1_555
H1J C5J 1_555 1_555
C6J C6D 1_555 1_555
C7J C3J 1_555 1_555
H2J C7J 1_555 1_555
C8J H3J 1_555 1_555
C9J C7J 1_555 1_555
H4J C9J 1_555 1_555
C10J C8J 1_555 1_555
H5J C10J 1_555 1_555
O3J C1J 1_555 1_555
In1A O3F 1_555 1_555
In1A_2 O1J 1_555 1_555
In1C O1F 1_555 1_555
In1C_2 O3H 1_555 1_555
In1E O1H 1_555 1_555
In1E_2 O3J 1_555 1_555
O1G In1D 1_555 1_555
O1I In1 1_555 1_555
O1K In1B 1_555 1_555
O3G In1B 1_555 1_555
O3I In1D 1_555 1_555
O3K In1 1_555 1_555
C5 C6 1_555 1_555
C9 C10 1_555 1_555
O3 In1D 1_555 1_555
N1F C6F 1_555 1_555
C5F C6F 1_555 1_555
C9F C10F 1_555 1_555
C1B O3B 1_555 1_555
C5B C6B 1_555 1_555
C9B C10B 1_555 1_555
N1H C6H 1_555 1_555
C5H C6H 1_555 1_555
C9H C10H 1_555 1_555
C1D O3D 1_555 1_555
C5D C6D 1_555 1_555
C9D C10D 1_555 1_555
N1J C6J 1_555 1_555
C5J C6J 1_555 1_555
C9J C10J 1_555 1_555

#END
