
#######################################################################
#
#                 Cambridge Crystallographic Data Centre
#                                CCDC 
#
#######################################################################
#
# If this CIF has been generated from an entry in the Cambridge 
# Structural Database, then it will include bibliographic, chemical, 
# crystal, experimental, refinement or atomic coordinate data resulting 
# from the CCDC's data processing and validation procedures.
#
#######################################################################

data_GAZZIS04
_chemical_formula_moiety         '(C40 H22 In1 O8 1-)1.75n,1.75n(C2 H8 N1 1+)'
_chemical_name_systematic        
"catena-(dimethylammonium (\m~4~-biphenyl-3,3',5,5'-tetrakis(4-carboxyphenyl))-tetra-indium)"
_symmetry_cell_setting           monoclinic
_symmetry_space_group_name_H-M   'C 2/c'
_symmetry_Int_Tables_number      15
_space_group_name_Hall           '-C 2yc'
loop_
_symmetry_equiv_pos_site_id
_symmetry_equiv_pos_as_xyz
1 x,y,z
2 -x,y,1/2-z
3 1/2+x,1/2+y,z
4 1/2-x,1/2+y,1/2-z
5 -x,-y,-z
6 x,-y,1/2+z
7 1/2-x,1/2-y,-z
8 1/2+x,1/2-y,1/2+z
_cell_length_a                   19.645(4)
_cell_length_b                   28.655(6)
_cell_length_c                   26.785(6)
_cell_angle_alpha                90
_cell_angle_beta                 96.005(4)
_cell_angle_gamma                90
_cell_volume                     14995.3
_exptl_crystal_colour            colorless
_exptl_crystal_description       tablet
_cell_formula_units_Z            4
loop_
_atom_site_label
_atom_site_type_symbol
_atom_site_fract_x
_atom_site_fract_y
_atom_site_fract_z
In1 In 0.886102(10) 0.258119(8) 1.115427(8)
O1 O 0.98462(11) 0.21939(8) 1.11732(8)
O2 O 0.93642(13) 0.24172(9) 1.04446(10)
O3 O 1.39913(16) 0.23838(10) 0.69563(10)
O4 O 1.2888(2) 0.22738(13) 0.67393(11)
O5 O 1.83126(12) 0.18578(8) 1.11945(10)
O6 O 1.78947(12) 0.24121(8) 1.06888(9)
O7 O 1.34923(13) -0.16972(9) 1.09413(11)
O8 O 1.45774(14) -0.17668(9) 1.11572(12)
C3 C 1.04907(16) 0.21000(12) 1.04730(12)
C4 C 1.0517(2) 0.2139(2) 0.99685(15)
H9 H 1.0129 0.2243 0.9764
C5 C 1.1106(2) 0.20273(19) 0.97513(15)
H10 H 1.1110 0.2052 0.9402
C6 C 1.16936(17) 0.18783(12) 1.00475(12)
C7 C 1.1657(2) 0.18445(15) 1.05555(14)
H11 H 1.2046 0.1745 1.0763
C8 C 1.1068(2) 0.19514(15) 1.07716(14)
H12 H 1.1059 0.1923 1.1120
C9 C 1.3303(2) 0.22078(14) 0.76096(13)
C10 C 1.38607(19) 0.22068(14) 0.79741(13)
H13 H 1.4299 0.2279 0.7885
C11 C 1.37750(18) 0.21006(13) 0.84622(13)
H14 H 1.4158 0.2099 0.8704
C12 C 1.31278(17) 0.19943(13) 0.86072(13)
C13 C 1.25745(19) 0.20091(16) 0.82370(14)
H15 H 1.2133 0.1948 0.8326
C14 C 1.2657(2) 0.21112(16) 0.77449(14)
H16 H 1.2276 0.2115 0.7501
C15 C 1.71874(17) 0.17503(12) 1.07610(13)
C16 C 1.70243(19) 0.13705(14) 1.10523(16)
H17 H 1.7345 0.1260 1.1310
C17 C 1.63934(18) 0.11561(13) 1.09636(15)
H18 H 1.6282 0.0907 1.1168
C18 C 1.59181(16) 0.13072(11) 1.05709(13)
C19 C 1.61086(17) 0.16766(12) 1.02763(13)
H19 H 1.5803 0.1779 1.0005
C20 C 1.67262(17) 0.18929(12) 1.03721(13)
H20 H 1.6837 0.2143 1.0169
C21 C 1.41726(16) -0.10128(11) 1.09040(13)
C22 C 1.43609(16) -0.00706(12) 1.06711(13)
C23 C 1.3698(4) -0.0781(2) 1.0579(3)
H21 H 1.3301 -0.0937 1.0441
C24 C 1.3801(3) -0.0329(2) 1.0457(3)
H22 H 1.3483 -0.0184 1.0219
C25 C 1.4866(4) -0.0326(3) 1.0965(4)
H23 H 1.5282 -0.0178 1.1074
C26 C 1.4774(4) -0.0798(3) 1.1102(4)
H24 H 1.5104 -0.0957 1.1316
C27 C 1.30414(16) 0.18494(12) 0.91258(12)
C28 C 1.35592(17) 0.16039(12) 0.94051(13)
H25 H 1.3977 0.1555 0.9271
C29 C 1.34707(16) 0.14291(12) 0.98801(12)
C30 C 1.28526(16) 0.15088(12) 1.00823(13)
H26 H 1.2784 0.1383 1.0397
C31 C 1.23364(16) 0.17750(12) 0.98182(13)
C32 C 1.24430(17) 0.19401(13) 0.93440(12)
H27 H 1.2099 0.2119 0.9165
C33 C 1.44658(16) 0.04276(12) 1.05364(13)
C34 C 1.39236(17) 0.06979(12) 1.03134(13)
H28 H 1.3480 0.0571 1.0269
C35 C 1.40346(16) 0.11511(12) 1.01570(12)
C36 C 1.46836(16) 0.13441(12) 1.02399(12)
H29 H 1.4754 0.1652 1.0135
C37 C 1.52307(17) 0.10936(12) 1.04738(13)
C38 C 1.51147(17) 0.06301(12) 1.06188(14)
H30 H 1.5481 0.0454 1.0774
C39 C 0.98676(17) 0.22390(12) 1.07093(12)
C40 C 1.3392(3) 0.22943(15) 0.70594(16)
C41 C 1.78390(17) 0.20132(12) 1.08857(13)
C42 C 1.40777(19) -0.15180(12) 1.10089(13)
In1G In 1.386102(10) 0.241881(8) 0.615427(8)
In1_2 In 1.886102(10) 0.258119(8) 1.115427(8)
In1B In 1.386102(10) -0.241881(8) 1.115427(8)
O3G O 0.89913(16) 0.26162(10) 1.19563(10)
O5_2 O 0.83126(12) 0.18578(8) 1.11945(10)
O6_2 O 0.78947(12) 0.24121(8) 1.06888(9)
O7B O 0.84923(13) 0.33028(9) 1.09413(11)
O8B O 0.95774(14) 0.32332(9) 1.11572(12)
N1 N 0.6956(3) 0.31782(18) 1.09283(19)
H1 H 0.7061 0.3429 1.1130
H2 H 0.7326 0.2986 1.0950
C1 C 0.6798(3) 0.3332(2) 1.0415(2)
H3 H 0.7190 0.3494 1.0306
H4 H 0.6407 0.3541 1.0394
H5 H 0.6691 0.3063 1.0201
C2 C 0.6374(5) 0.2933(3) 1.1098(4)
H6 H 0.6494 0.2817 1.1436
H7 H 0.6251 0.2672 1.0875
H8 H 0.5989 0.3145 1.1096
C43? C 0.3610(4) -0.0695(3) 1.0885(3)
C44? C 0.3704(4) -0.0229(3) 1.0773(3)
C45? C 0.4901(4) -0.0371(3) 1.0718(3)
C46? C 0.4805(4) -0.0831(3) 1.0848(3)
H31? H 0.3175 -0.0803 1.0949
H32? H 0.3336 -0.0019 1.0764
H33? H 0.5339 -0.0266 1.0661
H34? H 0.5189 -0.1028 1.0900
loop_
_geom_bond_atom_site_label_1
_geom_bond_atom_site_label_2
_geom_bond_site_symmetry_1
_geom_bond_site_symmetry_2
N1 H1 1_555 1_555
H2 N1 1_555 1_555
C1 N1 1_555 1_555
H3 C1 1_555 1_555
H4 C1 1_555 1_555
H5 C1 1_555 1_555
C2 N1 1_555 1_555
H6 C2 1_555 1_555
H7 C2 1_555 1_555
H8 C2 1_555 1_555
In1 O1 1_555 1_555
O1 C39 1_555 1_555
O2 In1 1_555 1_555
O3 C40 1_555 1_555
O4 C40 1_555 1_555
O5 C41 1_555 1_555
O6 C41 1_555 1_555
O7 C42 1_555 1_555
O8 C42 1_555 1_555
C3 C4 1_555 1_555
C4 H9 1_555 1_555
C5 C4 1_555 1_555
H10 C5 1_555 1_555
C6 C5 1_555 1_555
C7 C6 1_555 1_555
H11 C7 1_555 1_555
C8 C3 1_555 1_555
H12 C8 1_555 1_555
C9 C10 1_555 1_555
C10 H13 1_555 1_555
C11 C10 1_555 1_555
H14 C11 1_555 1_555
C12 C11 1_555 1_555
C13 C12 1_555 1_555
H15 C13 1_555 1_555
C14 C9 1_555 1_555
H16 C14 1_555 1_555
C15 C16 1_555 1_555
C16 H17 1_555 1_555
C17 C16 1_555 1_555
H18 C17 1_555 1_555
C18 C17 1_555 1_555
C19 C18 1_555 1_555
H19 C19 1_555 1_555
C20 C15 1_555 1_555
H20 C20 1_555 1_555
C21 C23 1_555 1_555
C22 C24 1_555 1_555
C23 H21 1_555 1_555
C24 C23 1_555 1_555
H22 C24 1_555 1_555
C25 C22 1_555 1_555
H23 C25 1_555 1_555
C26 C21 1_555 1_555
H24 C26 1_555 1_555
C27 C12 1_555 1_555
C28 C27 1_555 1_555
H25 C28 1_555 1_555
C29 C28 1_555 1_555
C30 C29 1_555 1_555
H26 C30 1_555 1_555
C31 C6 1_555 1_555
C32 C27 1_555 1_555
H27 C32 1_555 1_555
C33 C22 1_555 1_555
C34 C33 1_555 1_555
H28 C34 1_555 1_555
C35 C29 1_555 1_555
C36 C35 1_555 1_555
H29 C36 1_555 1_555
C37 C18 1_555 1_555
C38 C33 1_555 1_555
H30 C38 1_555 1_555
C39 O2 1_555 1_555
C40 C9 1_555 1_555
C41 C15 1_555 1_555
C42 C21 1_555 1_555
In1G O3 1_555 1_555
In1_2 O5 1_555 1_555
In1B O7 1_555 1_555
O3G In1 1_555 1_555
O5_2 In1 1_555 1_555
O6_2 In1 1_555 1_555
O7B In1 1_555 1_555
O8B In1 1_555 1_555
O6 In1_2 1_555 1_555
O8 In1B 1_555 1_555
C3 C39 1_555 1_555
C7 C8 1_555 1_555
C13 C14 1_555 1_555
C19 C20 1_555 1_555
C25 C26 1_555 1_555
C30 C31 1_555 1_555
C31 C32 1_555 1_555
C34 C35 1_555 1_555
C36 C37 1_555 1_555
C37 C38 1_555 1_555

#END
