
#######################################################################
#
#                 Cambridge Crystallographic Data Centre
#                                CCDC 
#
#######################################################################
#
# If this CIF has been generated from an entry in the Cambridge 
# Structural Database, then it will include bibliographic, chemical, 
# crystal, experimental, refinement or atomic coordinate data resulting 
# from the CCDC's data processing and validation procedures.
#
#######################################################################

data_DUPKAC
_chemical_name_common            JUC-135
_chemical_formula_moiety         '(C60 H36 O13 Zn4)n,5n(H2 O1),11n(C3 H7 N1 O1)'
_chemical_name_systematic        
"catena-[(\m-oxo)-tris(\m-1,1':3',1''-terphenyl-4,4''-dicarboxylato)-tetra-zinc N,N-dimethylformamide solvate pentahydrate]"
_symmetry_cell_setting           rhombohedral
_symmetry_space_group_name_H-M   'R 3 c'
_symmetry_Int_Tables_number      161
_space_group_name_Hall           'R 3 -2"c'
loop_
_symmetry_equiv_pos_site_id
_symmetry_equiv_pos_as_xyz
1 x,y,z
2 -y,x-y,z
3 -x+y,-x,z
4 -y,-x,1/2+z
5 -x+y,y,1/2+z
6 x,x-y,1/2+z
7 2/3+x,1/3+y,1/3+z
8 2/3-y,1/3+x-y,1/3+z
9 2/3-x+y,1/3-x,1/3+z
10 2/3-y,1/3-x,5/6+z
11 2/3-x+y,1/3+y,5/6+z
12 2/3+x,1/3+x-y,5/6+z
13 1/3+x,2/3+y,2/3+z
14 1/3-y,2/3+x-y,2/3+z
15 1/3-x+y,2/3-x,2/3+z
16 1/3-y,2/3-x,1/6+z
17 1/3-x+y,2/3+y,1/6+z
18 1/3+x,2/3+x-y,1/6+z
_cell_length_a                   23.452(4)
_cell_length_b                   23.452(4)
_cell_length_c                   79.27(3)
_cell_angle_alpha                90
_cell_angle_beta                 90
_cell_angle_gamma                120
_cell_volume                     37757.2
_exptl_crystal_colour            colorless
_exptl_crystal_description       block
_cell_formula_units_Z            6
loop_
_atom_site_label
_atom_site_type_symbol
_atom_site_fract_x
_atom_site_fract_y
_atom_site_fract_z
C21 C 0.53905(17) 0.31353(19) 0.18857(5)
C22 C 0.48913(18) 0.30522(18) 0.17589(5)
C23 C 0.4477(2) 0.24578(19) 0.16883(6)
H13 H 0.4509 0.2096 0.1724
C24 C 0.4009(2) 0.23566(19) 0.15665(6)
H14 H 0.3756 0.1943 0.1518
C25 C 0.39228(17) 0.28716(17) 0.15174(5)
C26 C 0.42875(18) 0.34539(18) 0.15968(5)
H15 H 0.4211 0.3799 0.1575
C27 C 0.47734(16) 0.35454(16) 0.17106(5)
H16 H 0.5033 0.3962 0.1757
C28 C 0.34151(18) 0.27625(16) 0.13889(5)
C29 C 0.28751(18) 0.21447(19) 0.13590(5)
H17 H 0.2809 0.1788 0.1425
C30 C 0.24319(18) 0.20574(18) 0.12311(6)
H18 H 0.2070 0.1641 0.1214
C31 C 0.25126(18) 0.25681(19) 0.11295(5)
H19 H 0.2226 0.2487 0.1040
C32 C 0.30206(17) 0.32041(17) 0.11606(5)
C33 C 0.34655(16) 0.32929(17) 0.12920(5)
H20 H 0.3805 0.3717 0.1316
C34 C 0.30875(18) 0.3766(2) 0.10572(6)
C35 C 0.29352(19) 0.3695(2) 0.08861(6)
H21 H 0.2830 0.3303 0.0831
C36 C 0.2940(2) 0.4193(2) 0.07992(6)
H22 H 0.2809 0.4125 0.0687
C37 C 0.3130(2) 0.4794(2) 0.08703(6)
C38 C 0.3307(2) 0.4901(2) 0.10457(6)
H23 H 0.3416 0.5298 0.1098
C39 C 0.3311(2) 0.4387(2) 0.11351(6)
H24 H 0.3460 0.4453 0.1246
C40 C 0.3150(4) 0.5345(2) 0.07752(7)
O6 O 0.57342(11) 0.37173(13) 0.19486(4)
O7 O 0.54074(15) 0.26420(14) 0.19308(4)
O8 O 0.33154(22) 0.58954(16) 0.08515(5)
O9 O 0.30648(17) 0.52547(24) 0.06119(5)
O10 O 0.6667 0.3333 0.21723(5)
Zn3 Zn 0.653563(18) 0.404387(19) 0.209095(4)
Zn4 Zn 0.6667 0.3333 0.241888(9)
C21A C 0.68647(19) 0.22552(25) 0.18857(5)
C22A C 0.69478(18) 0.18391(25) 0.17589(5)
C23A C 0.75422(19) 0.20192(28) 0.16883(6)
H13A H 0.7904 0.2413 0.1724
C24A C 0.76434(19) 0.16524(28) 0.15665(6)
H14A H 0.8057 0.1813 0.1518
C25A C 0.71284(17) 0.10512(24) 0.15174(5)
C26A C 0.65461(18) 0.08336(25) 0.15968(5)
H15A H 0.6201 0.0412 0.1575
C27A C 0.64546(16) 0.12280(23) 0.17106(5)
H16A H 0.6038 0.1071 0.1757
C28A C 0.72375(16) 0.06526(24) 0.13889(5)
C29A C 0.78553(19) 0.07304(26) 0.13590(5)
H17A H 0.8212 0.1021 0.1425
C30A C 0.79426(18) 0.03745(25) 0.12311(6)
H18A H 0.8359 0.0429 0.1214
C31A C 0.74319(19) -0.00555(26) 0.11295(5)
H19A H 0.7513 -0.0261 0.1040
C32A C 0.67959(17) -0.01835(24) 0.11606(5)
C33A C 0.67071(17) 0.01726(23) 0.12920(5)
H20A H 0.6283 0.0088 0.1316
C34A C 0.6234(2) -0.06785(27) 0.10572(6)
C35A C 0.6305(2) -0.07598(28) 0.08861(6)
H21A H 0.6697 -0.0473 0.0831
C36A C 0.5807(2) -0.1253(3) 0.07992(6)
H22A H 0.5875 -0.1316 0.0687
C37A C 0.5206(2) -0.1664(3) 0.08703(6)
C38A C 0.5099(2) -0.1594(3) 0.10457(6)
H23A H 0.4702 -0.1882 0.1098
C39A C 0.5613(2) -0.1076(3) 0.11351(6)
H24A H 0.5547 -0.0993 0.1246
C40A C 0.4655(2) -0.2195(4) 0.07752(7)
O6A O 0.62827(13) 0.20169(17) 0.19486(4)
O7A O 0.73580(14) 0.27654(21) 0.19308(4)
O8A O 0.41046(16) -0.25800(27) 0.08515(5)
O9A O 0.47453(24) -0.21899(29) 0.06119(5)
Zn3A Zn 0.595613(19) 0.249176(26) 0.209095(4)
C21B C 0.77448(25) 0.46095(17) 0.18857(5)
C22B C 0.81609(25) 0.51087(18) 0.17589(5)
C23B C 0.79808(28) 0.5523(2) 0.16883(6)
H13B H 0.7587 0.5491 0.1724
C24B C 0.83476(28) 0.5991(2) 0.15665(6)
H14B H 0.8187 0.6244 0.1518
C25B C 0.89488(24) 0.60772(17) 0.15174(5)
C26B C 0.91664(25) 0.57125(18) 0.15968(5)
H15B H 0.9588 0.5789 0.1575
C27B C 0.87720(23) 0.52266(16) 0.17106(5)
H16B H 0.8929 0.4967 0.1757
C28B C 0.93474(24) 0.65849(18) 0.13889(5)
C29B C 0.92696(26) 0.71249(18) 0.13590(5)
H17B H 0.8979 0.7191 0.1425
C30B C 0.96255(25) 0.75681(18) 0.12311(6)
H18B H 0.9571 0.7930 0.1214
C31B C 1.00555(26) 0.74874(18) 0.11295(5)
H19B H 1.0261 0.7774 0.1040
C32B C 1.01835(24) 0.69794(17) 0.11606(5)
C33B C 0.98274(23) 0.65345(16) 0.12920(5)
H20B H 0.9912 0.6195 0.1316
C34B C 1.06785(27) 0.69125(18) 0.10572(6)
C35B C 1.07598(28) 0.70648(19) 0.08861(6)
H21B H 1.0473 0.7170 0.0831
C36B C 1.1253(3) 0.7060(2) 0.07992(6)
H22B H 1.1316 0.7191 0.0687
C37B C 1.1664(3) 0.6870(2) 0.08703(6)
C38B C 1.1594(3) 0.6693(2) 0.10457(6)
H23B H 1.1882 0.6584 0.1098
C39B C 1.1076(3) 0.6689(2) 0.11351(6)
H24B H 1.0993 0.6540 0.1246
C40B C 1.2195(4) 0.6850(4) 0.07752(7)
O6B O 0.79831(17) 0.42658(11) 0.19486(4)
O7B O 0.72346(21) 0.45926(15) 0.19308(4)
O8B O 1.25800(27) 0.66846(22) 0.08515(5)
O9B O 1.21899(29) 0.69352(17) 0.06119(5)
Zn3B Zn 0.750824(26) 0.346437(18) 0.209095(4)
O8O O 0.74379(16) 0.33513(22) 0.25182(5)
O8P O 0.59133(27) 0.25621(16) 0.25182(5)
O8Q O 0.66487(22) 0.40867(27) 0.25182(5)
O9O O 0.80786(24) 0.36019(17) 0.22786(5)
O9P O 0.55232(29) 0.19214(24) 0.22786(5)
O9Q O 0.63981(17) 0.44768(29) 0.22786(5)
Zn3I Zn 1.262280(19) 0.679770(18) 0.042428(4)
Zn3J Zn 0.417491(26) -0.262280(19) 0.042428(4)
Zn3K Zn 0.320230(18) 0.582509(26) 0.042428(4)
Zn4I Zn 0.3334 -0.3334 0.075221(9)
Zn4I_2 Zn 0.3334 0.6666 0.075221(9)
Zn4I_3 Zn 1.3334 0.6666 0.075221(9)
O11 O 0.0000 0.0000 0.2268(3)
Zn1 Zn 0.082577(19) 0.07007(2) 0.148300(5)
O1 O 0.14249(13) 0.13046(14) 0.16362(5)
O2 O 0.0000 0.0000 0.15756(5)
O3 O 0.13348(12) 0.04127(13) 0.13449(3)
O4 O 0.06305(14) 0.11645(27) 0.13048(4)
C1 C 0.1316(3) 0.1236(4) 0.18000(10)
Zn2 Zn 0.0000 0.0000 0.182394(11)
C2 C 0.1108(2) -0.0135(3) 0.12833(5)
C3 C 0.1893(2) 0.1770(2) 0.19070(7)
O5 O 0.0800(2) 0.0856(2) 0.18651(6)
C4 C 0.1544(3) -0.0227(4) 0.11512(7)
C5 C 0.2465(3) 0.2180(3) 0.18463(7)
C6 C 0.1832(3) 0.1793(2) 0.20767(7)
C7 C 0.2191(2) 0.0247(3) 0.11284(6)
C8 C 0.1272(3) -0.0817(4) 0.10539(9)
H1 H 0.2536 0.2150 0.1732
C9 C 0.2962(2) 0.2642(3) 0.19359(8)
C10 C 0.2333(3) 0.2249(3) 0.21814(7)
H2 H 0.1436 0.1488 0.2126
H3 H 0.2395 0.0629 0.1193
C11 C 0.2522(2) 0.0113(3) 0.10013(7)
C12 C 0.1599(3) -0.0888(4) 0.09252(11)
H4 H 0.0855 -0.1162 0.1081
H5 H 0.3355 0.2917 0.1880
C13 C 0.2930(2) 0.2732(3) 0.21017(7)
H6 H 0.2281 0.2239 0.2298
C14 C 0.2208(3) -0.0424(4) 0.08934(8)
H7 H 0.2972 0.0396 0.0988
H8 H 0.1397 -0.1263 0.0858
C15 C 0.3464(3) 0.3207(3) 0.22053(7)
C16 C 0.2603(3) -0.0543(4) 0.07615(8)
C17 C 0.4111(3) 0.3361(4) 0.21752(10)
C18 C 0.3355(2) 0.3553(2) 0.23356(6)
C19 C 0.2388(5) -0.1193(6) 0.07078(10)
H9 H 0.4201 0.3101 0.2103
C20 C 0.4582(3) 0.3866(4) 0.22480(11)
H10 H 0.2924 0.3440 0.2362
H11 H 0.2011 -0.1555 0.0750
H12 H 0.5007 0.3979 0.2216
Zn1A Zn -0.07007(2) 0.012507(28) 0.148300(5)
Zn1B Zn -0.012507(28) -0.082577(19) 0.148300(5)
O5A O -0.0856(2) -0.0056(3) 0.18651(6)
O5B O 0.0056(3) -0.0800(2) 0.18651(6)
O1A O -0.13046(14) 0.01203(19) 0.16362(5)
O3A O -0.04127(13) 0.09221(18) 0.13449(3)
O4A O -0.11645(27) -0.05340(30) 0.13048(4)
O1B O -0.01203(19) -0.14249(13) 0.16362(5)
O3B O -0.09221(18) -0.13348(12) 0.13449(3)
O4B O 0.05340(30) -0.06305(14) 0.13048(4)
C1B C -0.0080(5) -0.1316(3) 0.18000(10)
C3B C -0.0123(3) -0.1893(2) 0.19070(7)
C5B C -0.0285(4) -0.2465(3) 0.18463(7)
C6B C -0.0039(4) -0.1832(3) 0.20767(7)
H1B H -0.0386 -0.2536 0.1732
C9B C -0.0320(4) -0.2962(2) 0.19359(8)
C10B C -0.0084(4) -0.2333(3) 0.21814(7)
H2B H 0.0052 -0.1436 0.2126
H5B H -0.0438 -0.3355 0.1880
C13B C -0.0198(4) -0.2930(2) 0.21017(7)
H6B H -0.0042 -0.2281 0.2298
C18I C 0.3114(2) -0.0022(2) 0.06689(6)
C16O C 0.3876(4) 0.4064(3) 0.24282(8)
C15B C -0.0257(4) -0.3464(3) 0.22053(7)
C15I C 0.3460(3) -0.0131(3) 0.05386(7)
H10I H 0.3227 0.0409 0.0695
C20I C 0.2801(4) -0.1249(3) 0.05813(11)
C19O C 0.4526(6) 0.4279(5) 0.23745(10)
C14O C 0.3757(4) 0.4459(3) 0.25601(8)
C17B C -0.0750(5) -0.4111(3) 0.21752(10)
C18B C 0.0198(3) -0.3355(2) 0.23356(6)
C17I C 0.3306(4) -0.0778(3) 0.05085(10)
C13I C 0.3935(3) 0.0403(2) 0.04350(7)
H12I H 0.2688 -0.1674 0.0549
H11O H 0.4888 0.4656 0.2417
C12O C 0.4221(4) 0.5068(3) 0.25919(11)
C11O C 0.3220(3) 0.4145(2) 0.26680(7)
H9B H -0.1100 -0.4201 0.2103
C20B C -0.0716(5) -0.4582(3) 0.22480(11)
C16P C 0.0187(5) -0.3876(4) 0.24282(8)
H10B H 0.0516 -0.2924 0.2362
H9I H 0.3566 -0.0868 0.0436
C9I C 0.4025(3) 0.0371(2) 0.02692(8)
C10I C 0.4418(3) 0.1000(3) 0.05147(7)
H8O H 0.4596 0.5270 0.2525
C8O C 0.4150(4) 0.5395(3) 0.27206(9)
C7O C 0.3086(3) 0.4476(2) 0.27951(6)
H7O H 0.2937 0.3695 0.2655
H12B H -0.1028 -0.5007 0.2216
C19P C -0.0248(8) -0.4526(6) 0.23745(10)
C14P C 0.0701(5) -0.3757(4) 0.25601(8)
H5I H 0.3750 -0.0022 0.0213
C5I C 0.4487(3) 0.0868(3) 0.01796(7)
C6I C 0.4874(2) 0.1501(3) 0.04100(7)
H6I H 0.4428 0.1052 0.0631
H4O H 0.4495 0.5812 0.2748
C4O C 0.3560(4) 0.5123(3) 0.28179(7)
H3O H 0.2704 0.4272 0.2860
H11P H -0.0233 -0.4888 0.2417
C12P C 0.0846(5) -0.4221(4) 0.25919(11)
C11P C 0.0924(4) -0.3220(3) 0.26680(7)
C3I C 0.4897(2) 0.1440(2) 0.02403(7)
H1I H 0.4517 0.0797 0.0065
H2I H 0.5179 0.1897 0.0459
C2O C 0.3468(3) 0.5559(2) 0.29500(5)
H8P H 0.0673 -0.4596 0.2525
C8P C 0.1244(5) -0.4150(4) 0.27206(9)
C7P C 0.1389(4) -0.3086(3) 0.27951(6)
H7P H 0.0757 -0.2937 0.2655
C1I C 0.5431(4) 0.2017(3) 0.01333(10)
O3O O 0.29206(13) 0.53319(12) 0.30116(3)
O4Q O 0.39638(14) 0.61327(30) 0.29715(4)
H4P H 0.1316 -0.4495 0.2748
C4P C 0.1562(5) -0.3560(4) 0.28179(7)
H3P H 0.1567 -0.2704 0.2860
O5I O 0.5811(2) 0.2533(2) 0.01984(6)
O1I O 0.53621(14) 0.19084(13) -0.00305(5)
Zn1O Zn 0.26326(2) 0.584090(19) 0.314967(5)
Zn1Q Zn 0.415910(19) 0.679174(28) 0.314967(5)
C2P C 0.2090(4) -0.3468(3) 0.29500(5)
Zn2I Zn 0.6667 0.3333 0.015727(11)
Zn1I Zn 0.59660(2) 0.250756(19) -0.018367(5)
O3P O 0.24112(18) -0.29206(13) 0.30116(3)
O4O O 0.21688(27) -0.39638(14) 0.29715(4)
Zn1P Zn 0.320826(28) -0.26326(2) 0.314967(5)
Zn1O_2 Zn 0.26326(2) -0.415910(19) 0.314967(5)
loop_
_geom_bond_atom_site_label_1
_geom_bond_atom_site_label_2
_geom_bond_site_symmetry_1
_geom_bond_site_symmetry_2
Zn1 O1 1_555 1_555
O1 C1 1_555 1_555
O2 Zn1 1_555 1_555
O3 Zn1 1_555 1_555
O4 Zn1 1_555 1_555
C1 C3 1_555 1_555
Zn2 O2 1_555 1_555
C2 O3 1_555 1_555
C3 C5 1_555 1_555
O5 C1 1_555 1_555
C4 C2 1_555 1_555
C5 H1 1_555 1_555
C6 C3 1_555 1_555
C7 C4 1_555 1_555
C8 C4 1_555 1_555
C9 C5 1_555 1_555
C10 C6 1_555 1_555
H2 C6 1_555 1_555
H3 C7 1_555 1_555
C11 C7 1_555 1_555
C12 C8 1_555 1_555
H4 C8 1_555 1_555
H5 C9 1_555 1_555
C13 C9 1_555 1_555
H6 C10 1_555 1_555
C14 C11 1_555 1_555
H7 C11 1_555 1_555
H8 C12 1_555 1_555
C15 C13 1_555 1_555
C16 C14 1_555 1_555
C17 C15 1_555 1_555
C18 C15 1_555 1_555
C19 C16 1_555 1_555
H9 C17 1_555 1_555
C20 C17 1_555 1_555
H10 C18 1_555 1_555
H11 C19 1_555 1_555
H12 C20 1_555 1_555
C21 C22 1_555 1_555
C22 C23 1_555 1_555
C23 H13 1_555 1_555
C24 C23 1_555 1_555
H14 C24 1_555 1_555
C25 C24 1_555 1_555
C26 C25 1_555 1_555
H15 C26 1_555 1_555
C27 C22 1_555 1_555
H16 C27 1_555 1_555
C28 C25 1_555 1_555
C29 C28 1_555 1_555
H17 C29 1_555 1_555
C30 C29 1_555 1_555
H18 C30 1_555 1_555
C31 C30 1_555 1_555
H19 C31 1_555 1_555
C32 C31 1_555 1_555
C33 C28 1_555 1_555
H20 C33 1_555 1_555
C34 C32 1_555 1_555
C35 C34 1_555 1_555
H21 C35 1_555 1_555
C36 C35 1_555 1_555
H22 C36 1_555 1_555
C37 C36 1_555 1_555
C38 C37 1_555 1_555
H23 C38 1_555 1_555
C39 C34 1_555 1_555
H24 C39 1_555 1_555
C40 C37 1_555 1_555
O6 C21 1_555 1_555
O7 C21 1_555 1_555
O8 C40 1_555 1_555
O9 C40 1_555 1_555
O10 Zn3 1_555 1_555
Zn3 O6 1_555 1_555
Zn4 O10 1_555 1_555
Zn1A O2 1_555 1_555
Zn1B O2 1_555 1_555
O5A Zn2 1_555 1_555
O5B Zn2 1_555 1_555
O1A Zn1A 1_555 1_555
O3A Zn1A 1_555 1_555
O4A Zn1A 1_555 1_555
O1B Zn1B 1_555 1_555
O3B Zn1B 1_555 1_555
O4B C2 1_555 1_555
C1B O5B 1_555 1_555
C3B C1B 1_555 1_555
C5B C3B 1_555 1_555
C6B C3B 1_555 1_555
H1B C5B 1_555 1_555
C9B C5B 1_555 1_555
C10B C6B 1_555 1_555
H2B C6B 1_555 1_555
H5B C9B 1_555 1_555
C13B C9B 1_555 1_555
H6B C10B 1_555 1_555
C18I C16 1_555 1_555
C16O C18 1_555 1_555
C15B C13B 1_555 1_555
C15I C18I 1_555 1_555
H10I C18I 1_555 1_555
C20I C19 1_555 1_555
C19O C20 1_555 1_555
C14O C16O 1_555 1_555
C17B C15B 1_555 1_555
C18B C15B 1_555 1_555
C17I C15I 1_555 1_555
C13I C15I 1_555 1_555
H12I C20I 1_555 1_555
H11O C19O 1_555 1_555
C12O C14O 1_555 1_555
C11O C14O 1_555 1_555
H9B C17B 1_555 1_555
C20B C17B 1_555 1_555
C16P C18B 1_555 1_555
H10B C18B 1_555 1_555
H9I C17I 1_555 1_555
C9I C13I 1_555 1_555
C10I C13I 1_555 1_555
H8O C12O 1_555 1_555
C8O C12O 1_555 1_555
C7O C11O 1_555 1_555
H7O C11O 1_555 1_555
H12B C20B 1_555 1_555
C19P C20B 1_555 1_555
C14P C16P 1_555 1_555
H5I C9I 1_555 1_555
C5I C9I 1_555 1_555
C6I C10I 1_555 1_555
H6I C10I 1_555 1_555
H4O C8O 1_555 1_555
C4O C8O 1_555 1_555
H3O C7O 1_555 1_555
H11P C19P 1_555 1_555
C12P C14P 1_555 1_555
C11P C14P 1_555 1_555
C3I C5I 1_555 1_555
H1I C5I 1_555 1_555
H2I C6I 1_555 1_555
C2O C4O 1_555 1_555
H8P C12P 1_555 1_555
C8P C12P 1_555 1_555
C7P C11P 1_555 1_555
H7P C11P 1_555 1_555
C1I C3I 1_555 1_555
O3O C2O 1_555 1_555
O4Q C2O 1_555 1_555
H4P C8P 1_555 1_555
C4P C8P 1_555 1_555
H3P C7P 1_555 1_555
O5I C1I 1_555 1_555
O1I C1I 1_555 1_555
Zn1O O3O 1_555 1_555
Zn1Q O4Q 1_555 1_555
C2P C4P 1_555 1_555
Zn2I O5I 1_555 1_555
Zn1I O1I 1_555 1_555
O3P C2P 1_555 1_555
O4O C2P 1_555 1_555
Zn1P O3P 1_555 1_555
Zn1O_2 O4O 1_555 1_555
C21A C22A 1_555 1_555
C22A C23A 1_555 1_555
C23A H13A 1_555 1_555
C24A C23A 1_555 1_555
H14A C24A 1_555 1_555
C25A C24A 1_555 1_555
C26A C25A 1_555 1_555
H15A C26A 1_555 1_555
C27A C22A 1_555 1_555
H16A C27A 1_555 1_555
C28A C25A 1_555 1_555
C29A C28A 1_555 1_555
H17A C29A 1_555 1_555
C30A C29A 1_555 1_555
H18A C30A 1_555 1_555
C31A C30A 1_555 1_555
H19A C31A 1_555 1_555
C32A C31A 1_555 1_555
C33A C28A 1_555 1_555
H20A C33A 1_555 1_555
C34A C32A 1_555 1_555
C35A C34A 1_555 1_555
H21A C35A 1_555 1_555
C36A C35A 1_555 1_555
H22A C36A 1_555 1_555
C37A C36A 1_555 1_555
C38A C37A 1_555 1_555
H23A C38A 1_555 1_555
C39A C34A 1_555 1_555
H24A C39A 1_555 1_555
C40A C37A 1_555 1_555
O6A C21A 1_555 1_555
O7A C21A 1_555 1_555
O8A C40A 1_555 1_555
O9A C40A 1_555 1_555
Zn3A O7 1_555 1_555
C21B C22B 1_555 1_555
C22B C23B 1_555 1_555
C23B H13B 1_555 1_555
C24B C23B 1_555 1_555
H14B C24B 1_555 1_555
C25B C24B 1_555 1_555
C26B C25B 1_555 1_555
H15B C26B 1_555 1_555
C27B C22B 1_555 1_555
H16B C27B 1_555 1_555
C28B C25B 1_555 1_555
C29B C28B 1_555 1_555
H17B C29B 1_555 1_555
C30B C29B 1_555 1_555
H18B C30B 1_555 1_555
C31B C30B 1_555 1_555
H19B C31B 1_555 1_555
C32B C31B 1_555 1_555
C33B C28B 1_555 1_555
H20B C33B 1_555 1_555
C34B C32B 1_555 1_555
C35B C34B 1_555 1_555
H21B C35B 1_555 1_555
C36B C35B 1_555 1_555
H22B C36B 1_555 1_555
C37B C36B 1_555 1_555
C38B C37B 1_555 1_555
H23B C38B 1_555 1_555
C39B C34B 1_555 1_555
H24B C39B 1_555 1_555
C40B C37B 1_555 1_555
O6B C21B 1_555 1_555
O7B Zn3 1_555 1_555
O8B C40B 1_555 1_555
O9B C40B 1_555 1_555
Zn3B O10 1_555 1_555
O8O Zn4 1_555 1_555
O8P Zn4 1_555 1_555
O8Q Zn4 1_555 1_555
O9O Zn3B 1_555 1_555
O9P Zn3A 1_555 1_555
O9Q Zn3 1_555 1_555
Zn3I O9B 1_555 1_555
Zn3J O9A 1_555 1_555
Zn3K O9 1_555 1_555
Zn4I O8A 1_555 1_555
Zn4I_2 O8 1_555 1_555
Zn4I_3 O8B 1_555 1_555
Zn2 O5 1_555 1_555
C10 C13 1_555 1_555
C12 C14 1_555 1_555
C26 C27 1_555 1_555
C32 C33 1_555 1_555
C38 C39 1_555 1_555
O10 Zn3A 1_555 1_555
Zn1B O4B 1_555 1_555
O1B C1B 1_555 1_555
C10B C13B 1_555 1_555
C16O C19O 1_555 1_555
C20I C17I 1_555 1_555
C16P C19P 1_555 1_555
C7O C4O 1_555 1_555
C6I C3I 1_555 1_555
C7P C4P 1_555 1_555
C26A C27A 1_555 1_555
C32A C33A 1_555 1_555
C38A C39A 1_555 1_555
O6A Zn3A 1_555 1_555
O7A Zn3B 1_555 1_555
C21B O7B 1_555 1_555
C26B C27B 1_555 1_555
C32B C33B 1_555 1_555
C38B C39B 1_555 1_555
O6B Zn3B 1_555 1_555

#END
