
#######################################################################
#
#                 Cambridge Crystallographic Data Centre
#                                CCDC 
#
#######################################################################
#
# If this CIF has been generated from an entry in the Cambridge 
# Structural Database, then it will include bibliographic, chemical, 
# crystal, experimental, refinement or atomic coordinate data resulting 
# from the CCDC's data processing and validation procedures.
#
#######################################################################

data_LEJRIC
_chemical_formula_moiety         '(C8 H6 Ni2 O8)n,8n(H2 O1)'
_chemical_name_systematic        
'catena-((\m~8~-2,5-Dioxyterephthalato)-diaqua-di-nickel(ii) octahydrate)'
_symmetry_cell_setting           rhombohedral
_symmetry_space_group_name_H-M   'R -3'
_symmetry_Int_Tables_number      148
_space_group_name_Hall           '-R 3'
loop_
_symmetry_equiv_pos_site_id
_symmetry_equiv_pos_as_xyz
1 x,y,z
2 -y,x-y,z
3 -x+y,-x,z
4 2/3+x,1/3+y,1/3+z
5 2/3-y,1/3+x-y,1/3+z
6 2/3-x+y,1/3-x,1/3+z
7 1/3+x,2/3+y,2/3+z
8 1/3-y,2/3+x-y,2/3+z
9 1/3-x+y,2/3-x,2/3+z
10 -x,-y,-z
11 y,-x+y,-z
12 x-y,x,-z
13 1/3-x,2/3-y,2/3-z
14 1/3+y,2/3-x+y,2/3-z
15 1/3+x-y,2/3+x,2/3-z
16 2/3-x,1/3-y,1/3-z
17 2/3+y,1/3-x+y,1/3-z
18 2/3+x-y,1/3+x,1/3-z
_cell_length_a                   25.9783(7)
_cell_length_b                   25.9783(7)
_cell_length_c                   6.6883(2)
_cell_angle_alpha                90
_cell_angle_beta                 90
_cell_angle_gamma                120
_cell_volume                     3909.02
_exptl_crystal_colour            greenish-yellow
_cell_formula_units_Z            9
loop_
_atom_site_label
_atom_site_type_symbol
_atom_site_fract_x
_atom_site_fract_y
_atom_site_fract_z
C1 C -0.3995(15) -0.4153(16) 0.264(5)
C2 C -0.4516(17) -0.4569(18) 0.111(5)
C3 C -0.4548(17) -0.4467(17) -0.078(6)
C4 C -0.4935(16) -0.5108(16) 0.188(5)
Ni1 Ni -0.2839(2) -0.2988(2) 0.3167(7)
O1 O -0.4057(9) -0.4400(10) 0.440(3)
O2 O -0.3616(9) -0.3701(10) 0.201(3)
O3 O -0.4169(9) -0.3931(8) -0.171(4)
O4 O -0.2123(9) -0.2273(8) 0.457(3)
H1 H -0.494(5) -0.518(5) 0.38(2)
C1I C -0.6005(15) -0.5847(16) -0.264(5)
C2I C -0.5484(17) -0.5431(18) -0.111(5)
C3I C -0.5452(17) -0.5533(17) 0.078(6)
C4I C -0.5065(16) -0.4892(16) -0.188(5)
Ni1N Ni -0.6518(3) -0.6172(2) -0.6500(7)
Ni1G Ni -0.3679(2) -0.3184(3) -0.0166(7)
Ni1E Ni -0.3482(3) -0.3828(2) 0.6500(7)
Ni1E_2 Ni -0.3482(3) -0.3828(2) -0.3500(7)
Ni1I Ni -0.7161(2) -0.7012(2) -0.3167(7)
Ni1P Ni -0.6321(2) -0.6816(3) 0.0166(7)
Ni1N_2 Ni -0.6518(3) -0.6172(2) 0.3500(7)
O1I O -0.5943(9) -0.5600(10) -0.440(3)
O1G O -0.2267(10) -0.2990(13) 0.107(3)
O1P O -0.7733(10) -0.7010(13) -0.107(3)
O2I O -0.6384(9) -0.6299(10) -0.201(3)
O2E O -0.3418(13) -0.3051(9) 0.534(3)
O2N O -0.6582(13) -0.6949(9) -0.534(3)
O3I O -0.5831(9) -0.6069(8) 0.171(4)
O3G O -0.2736(8) -0.3571(12) 0.496(4)
O3P O -0.7264(8) -0.6429(12) -0.496(4)
O3E O -0.3095(12) -0.2498(9) 0.162(4)
O3N O -0.6905(12) -0.7502(9) -0.162(4)
O4I O -0.7877(9) -0.7727(8) -0.457(3)
H1I H -0.506(5) -0.482(5) -0.38(2)
O5 O -0.3029(11) -0.4495(10) 0.191(4)
O6 O -0.2588(19) -0.4945(15) 0.734(8)
O7 O -0.262(2) -0.645(5) 1.113(9)
O8 O -0.443(2) -0.8432(15) 0.488(7)
loop_
_geom_bond_atom_site_label_1
_geom_bond_atom_site_label_2
_geom_bond_site_symmetry_1
_geom_bond_site_symmetry_2
C1 C2 1_555 1_555
C2 C3 1_555 1_555
C3 O3 1_555 1_555
C4 C2 1_555 1_555
Ni1 O2 1_555 1_555
O1 C1 1_555 1_555
O2 C1 1_555 1_555
O3 Ni1G 1_555 1_555
O4 Ni1 1_555 1_555
H1 C4 1_555 1_555
C1I C2I 1_555 1_555
C2I C3I 1_555 1_555
C3I C4 1_555 1_555
C4I C3 1_555 1_555
Ni1N O1I 1_555 1_555
Ni1G O2 1_555 1_555
Ni1E O1 1_555 1_555
Ni1E_2 O3 1_555 1_555
Ni1I O1P 1_555 1_555
Ni1P O2I 1_555 1_555
Ni1N_2 O3I 1_555 1_555
O1I C1I 1_555 1_555
O1G Ni1 1_555 1_555
O2I C1I 1_555 1_555
O2E Ni1 1_555 1_555
O2N Ni1N 1_555 1_555
O3I C3I 1_555 1_555
O3G Ni1 1_555 1_555
O3P Ni1N 1_555 1_555
O3E Ni1 1_555 1_555
O3N Ni1I 1_555 1_555
O4I Ni1I 1_555 1_555
H1I C4I 1_555 1_555
C2I C4I 1_555 1_555
Ni1G O3E 1_555 1_555
Ni1E O2E 1_555 1_555
Ni1E O3G 1_555 1_555
Ni1I O2I 1_555 1_555
Ni1I O2N 1_555 1_555
Ni1I O3P 1_555 1_555
Ni1P O3I 1_555 1_555
Ni1P O3N 1_555 1_555

#END
