
#######################################################################
#
#                 Cambridge Crystallographic Data Centre
#                                CCDC 
#
#######################################################################
#
# If this CIF has been generated from an entry in the Cambridge 
# Structural Database, then it will include bibliographic, chemical, 
# crystal, experimental, refinement or atomic coordinate data resulting 
# from the CCDC's data processing and validation procedures.
#
#######################################################################

data_WAVRES
_chemical_formula_moiety         '(C117 H84 Co3 In3 N3 O30)n,n(C3 H7 N1 O1)'
_chemical_name_systematic        
'catena-((\m~6~-Benzene-1,3,5-triphenylcarboxylato)-tris((\m~5~-benzene-1,3,5-triphenylcarboxylato)-(\m~3~-hydroxo)-(N,N-dimethylacetamide))-tri-indium-tri-cobalt N,N-dimethylacetamide solvate)'
_symmetry_cell_setting           rhombohedral
_symmetry_space_group_name_H-M   'R -3'
_symmetry_Int_Tables_number      148
_space_group_name_Hall           '-R 3'
loop_
_symmetry_equiv_pos_site_id
_symmetry_equiv_pos_as_xyz
1 x,y,z
2 -y,x-y,z
3 -x+y,-x,z
4 2/3+x,1/3+y,1/3+z
5 2/3-y,1/3+x-y,1/3+z
6 2/3-x+y,1/3-x,1/3+z
7 1/3+x,2/3+y,2/3+z
8 1/3-y,2/3+x-y,2/3+z
9 1/3-x+y,2/3-x,2/3+z
10 -x,-y,-z
11 y,-x+y,-z
12 x-y,x,-z
13 1/3-x,2/3-y,2/3-z
14 1/3+y,2/3-x+y,2/3-z
15 1/3+x-y,2/3+x,2/3-z
16 2/3-x,1/3-y,1/3-z
17 2/3+y,1/3-x+y,1/3-z
18 2/3+x-y,1/3+x,1/3-z
_cell_length_a                   36.3966(5)
_cell_length_b                   36.3966(5)
_cell_length_c                   23.9655(6)
_cell_angle_alpha                90
_cell_angle_beta                 90
_cell_angle_gamma                120
_cell_volume                     27494.1
_exptl_crystal_colour            red
_exptl_crystal_description       block
_cell_formula_units_Z            6
loop_
_atom_site_label
_atom_site_type_symbol
_atom_site_fract_x
_atom_site_fract_y
_atom_site_fract_z
N2 N 0.4461(6) -0.1389(6) 0.7758(9)
O11 O 0.4009(5) -0.1799(4) 0.8458(6)
C40 C 0.4345(7) -0.1636(7) 0.8210(9)
C41 C 0.4081(7) -0.1285(7) 0.7692(9)
C42 C 0.4790(9) -0.1254(8) 0.7383(11)
In1 In 0.133005(16) -0.22644(2) 0.72941(2)
Co1 Co 0.21551(2) -0.14788(3) 0.81670(3)
O1 O 0.21862(18) -0.20250(17) 0.8029(2)
O2 O 0.11740(17) -0.24902(15) 0.63790(19)
O3 O 0.30804(13) 0.06918(16) 0.27154(19)
O4 O 0.18840(13) -0.23116(15) 0.72092(17)
O5 O 0.26901(12) 0.06400(16) 0.19639(17)
O6 O -0.0876(2) -0.3053(2) 0.1714(3)
O7 O 0.2443(2) -0.1269(2) 0.7423(3)
O8 O 0.14795(18) -0.1825(2) 0.65517(18)
O9 O 0.15682(11) -0.17154(11) 0.77786(14)
O10 O -0.0459(2) -0.2723(2) 0.1007(3)
C1 C 0.0102(3) -0.2353(4) 0.2861(5)
H1 H 0.0039 -0.2353 0.3238
C2 C 0.0887(2) -0.1949(3) 0.3592(3)
H2 H 0.0668 -0.2203 0.3732
C3 C 0.0599(3) -0.2147(3) 0.2095(3)
H3 H 0.0876 -0.2012 0.1961
C4 C 0.1834(2) -0.0730(3) 0.2987(3)
C5 C 0.0526(2) -0.2124(2) 0.2648(3)
C6 C 0.1193(2) -0.1457(3) 0.2840(3)
H4 H 0.1190 -0.1388 0.2467
C7 C 0.1214(2) -0.1683(3) 0.3948(3)
C8 C 0.1533(2) -0.1278(3) 0.3750(3)
H5 H 0.1748 -0.1092 0.3987
C9 C 0.0874(2) -0.1850(2) 0.3038(3)
C10 C 0.2542(2) -0.0133(2) 0.3022(3)
H6 H 0.2816 -0.0005 0.3163
C11 C 0.3008(2) -0.25170(19) 0.7809(3)
H7 H 0.3257 -0.2415 0.8016
C12 C 0.25223(19) -0.2990(2) 0.7139(3)
H8 H 0.2435 -0.3218 0.6896
C13 C 0.2241(2) -0.0512(3) 0.3227(3)
H9 H 0.2304 -0.0629 0.3531
C14 C 0.1517(2) -0.1164(3) 0.3190(3)
C15 C 0.2770(2) -0.2313(2) 0.7856(3)
H10 H 0.2851 -0.2091 0.8109
C16 C 0.2148(2) -0.2236(2) 0.7585(3)
C17 C 0.1744(2) -0.0532(3) 0.2568(3)
H11 H 0.1472 -0.0665 0.2418
C18 C 0.2893(2) -0.35470(18) 0.7447(3)
C19 C 0.27676(19) 0.0503(2) 0.2412(3)
C20 C 0.31121(18) -0.31089(18) 0.7453(2)
C21 C 0.28892(19) -0.28620(18) 0.7470(2)
C22 C 0.20416(19) -0.0142(2) 0.2362(3)
H12 H 0.1975 -0.0020 0.2067
C23 C 0.24406(17) 0.0066(2) 0.2597(2)
C24 C 0.22924(19) -0.2783(2) 0.7169(3)
H13 H 0.2052 -0.2872 0.6950
C25 C 0.2422(2) -0.2437(2) 0.7533(3)
C26 C 0.2790(5) -0.0947(5) 0.7230(6)
C27 C 0.1117(3) -0.2216(4) 0.4690(3)
H14 H 0.1025 -0.2430 0.4424
C28 C 0.0251(2) -0.2378(3) 0.1715(4)
H15 H 0.0304 -0.2383 0.1336
C29 C -0.0220(3) -0.2582(3) 0.2457(5)
H16 H -0.0498 -0.2738 0.2582
C30 C 0.1129(3) -0.2320(3) 0.5244(3)
H17 H 0.1025 -0.2601 0.5349
C31 C 0.1238(2) -0.1807(3) 0.4512(3)
C32 C 0.1428(3) -0.1611(4) 0.5504(4)
H18 H 0.1533 -0.1408 0.5787
C33 C 0.1330(2) -0.2130(2) 0.6253(4)
C34 C 0.1413(3) -0.1490(4) 0.4905(4)
H19 H 0.1519 -0.1208 0.4804
C35 C -0.0151(2) -0.2588(2) 0.1908(4)
C36 C 0.1286(2) -0.2019(2) 0.5610(3)
N1 N 0.2767(5) -0.0713(5) 0.6760(6)
C37 C 0.3086(9) -0.0303(9) 0.6563(11)
C38 C 0.2388(8) -0.0900(8) 0.6416(11)
C39 C -0.0529(2) -0.2790(2) 0.1489(3)
In1B In 0.640555(26) -0.133005(16) 0.72941(2)
In1A In 0.22644(2) -0.640555(26) 0.72941(2)
In1K In 0.359445(26) 0.133005(16) 0.27059(2)
In1D In -0.10689(2) -0.307222(26) 0.06274(2)
In1H In -0.026112(26) -0.466338(16) 1.39608(2)
In1M In 0.10689(2) -0.692778(26) 0.93726(2)
In1J In -0.22644(2) -0.359445(26) 0.27059(2)
In1N In -0.307222(26) -0.200328(16) 0.93726(2)
In1L In 0.200328(16) -0.10689(2) 0.93726(2)
Co1B Co 0.63661(4) -0.21551(2) 0.81670(3)
Co1A Co 0.14788(3) -0.63661(4) 0.81670(3)
Co1E Co 0.30328(4) 0.11782(2) 0.15003(3)
Co1J Co -0.14788(3) -0.36339(4) 0.18330(3)
Co1L Co 0.11782(2) -0.18545(3) 0.84997(3)
Co1B_2 Co -0.36339(4) -0.21551(2) 0.81670(3)
Co1N Co 0.69672(4) -0.11782(2) 0.84997(3)
O1B O 0.57888(25) -0.21862(18) 0.8029(2)
O1A O 0.20250(17) -0.57888(25) 0.8029(2)
O2H O -0.03309(23) -0.45073(17) 1.30457(19)
O2J O -0.24902(15) -0.36642(23) 0.36210(19)
O2B O 0.63358(23) -0.11740(17) 0.63790(19)
O2A O 0.24902(15) -0.63358(23) 0.63790(19)
O3H O 0.09447(21) -0.64137(13) 0.93821(19)
O3J O 0.06918(16) -0.23886(21) 0.72846(19)
O3I O 0.69196(13) -0.06918(16) 0.72846(19)
O3K O 0.23886(21) -0.69196(13) 0.72846(19)
O4B O 0.58044(20) -0.18840(13) 0.72092(17)
O4A O 0.23116(15) -0.58044(20) 0.72092(17)
O5H O 0.12832(20) -0.60234(12) 0.86306(17)
O5J O 0.06400(16) -0.20501(20) 0.80361(17)
O5G O 0.26933(16) -0.12832(20) 0.86306(17)
O5F O 0.60234(12) -0.26933(16) 0.86306(17)
O6H O 0.1156(3) -0.2457(2) 0.8381(3)
O6J O -0.3053(2) -0.2177(3) 0.8286(3)
O6K O 0.2177(3) -0.0876(2) 0.8286(3)
O6J_2 O 0.6947(2) -0.2177(3) 0.8286(3)
O6I O 0.0876(2) -0.6947(2) 0.8286(3)
O7B O 0.6288(3) -0.2443(2) 0.7423(3)
O7A O 0.1269(2) -0.6288(3) 0.7423(3)
O8H O 0.00288(27) -0.48128(18) 1.32184(18)
O8J O -0.1825(2) -0.33045(27) 0.34483(18)
O8B O 0.66955(27) -0.14795(18) 0.65517(18)
O8A O 0.1825(2) -0.66955(27) 0.65517(18)
O9L O 0.17651(11) -0.16179(11) 0.88881(14)
O9B O 0.67164(16) -0.15682(11) 0.77786(14)
O9A O 0.17154(11) -0.67164(16) 0.77786(14)
O9N O 0.66169(16) -0.17651(11) 0.88881(14)
O9M O 0.16179(11) -0.66169(16) 0.88881(14)
O10H O 0.1069(3) -0.2874(2) 0.7674(3)
O10J O -0.2723(2) -0.2264(3) 0.8993(3)
O10G O 0.6056(2) -0.1069(3) 0.7674(3)
O10F O 0.2874(2) -0.6056(2) 0.7674(3)
C1H C 0.0878(5) -0.3435(3) 0.9528(5)
C1J C -0.2353(4) -0.2455(5) 0.7139(5)
H1H H 0.0941 -0.3372 0.9905
H1J H -0.2353 -0.2392 0.6762
C2H C 0.0497(4) -0.4220(2) 1.0259(3)
C2J C -0.1949(3) -0.2836(4) 0.6408(3)
H2H H 0.0462 -0.4001 1.0399
H2J H -0.2203 -0.2871 0.6268
C3H C 0.0587(4) -0.3932(3) 0.8762(3)
C3J C -0.2147(3) -0.2746(4) 0.7905(3)
H3H H 0.0445 -0.4209 0.8628
H3J H -0.2012 -0.2888 0.8039
C4H C 0.0769(4) -0.5167(2) 0.9654(3)
C4J C -0.0730(3) -0.2564(4) 0.7013(3)
C5H C 0.0683(3) -0.3859(2) 0.9315(3)
C5J C -0.2124(2) -0.2650(3) 0.7352(3)
C6H C 0.0683(4) -0.4526(2) 0.9507(3)
C6J C -0.1457(3) -0.2650(4) 0.7160(3)
H4H H 0.0755 -0.4523 0.9134
H4J H -0.1388 -0.2578 0.7533
C7H C 0.0436(4) -0.4547(2) 1.0615(3)
C7J C -0.1683(3) -0.2897(4) 0.6052(3)
C8H C 0.0522(4) -0.4866(2) 1.0417(3)
C8J C -0.1278(3) -0.2811(4) 0.6250(3)
H5H H 0.0493 -0.5081 1.0654
H5J H -0.1092 -0.2840 0.6013
C9H C 0.0609(3) -0.4207(2) 0.9705(3)
C9J C -0.1850(2) -0.2724(3) 0.6962(3)
C10H C 0.0658(3) -0.5875(2) 0.9689(3)
C10J C -0.0133(2) -0.2675(3) 0.6978(3)
H6H H 0.0512 -0.6149 0.9830
H6J H -0.0005 -0.2821 0.6837
C11B C 0.44750(28) -0.3008(2) 0.7809(3)
C11A C 0.25170(19) -0.44750(28) 0.7809(3)
H7B H 0.4328 -0.3257 0.8016
H7A H 0.2415 -0.4328 0.8016
C12B C 0.44877(28) -0.25223(19) 0.7139(3)
C12A C 0.2990(2) -0.44877(28) 0.7139(3)
H8B H 0.4347 -0.2435 0.6896
H8A H 0.3218 -0.4347 0.6896
C13H C 0.0580(4) -0.5574(2) 0.9894(3)
C13J C -0.0512(3) -0.2753(4) 0.6773(3)
H9H H 0.0400 -0.5637 1.0198
H9J H -0.0629 -0.2933 0.6469
C14H C 0.0652(4) -0.4850(2) 0.9857(3)
C14J C -0.1164(3) -0.2681(4) 0.6810(3)
C15B C 0.4917(3) -0.2770(2) 0.7856(3)
C15A C 0.2313(2) -0.4917(3) 0.7856(3)
H10B H 0.5058 -0.2851 0.8109
H10A H 0.2091 -0.5058 0.8109
C16B C 0.5616(3) -0.2148(2) 0.7585(3)
C16A C 0.2236(2) -0.5616(3) 0.7585(3)
C17H C 0.1057(4) -0.5077(2) 0.9235(3)
C17J C -0.0532(3) -0.2276(4) 0.7432(3)
H11H H 0.1196 -0.4805 0.9085
H11J H -0.0665 -0.2137 0.7582
C18A C 0.35470(18) -0.35600(27) 0.7447(3)
C18B C 0.35600(27) -0.2893(2) 0.7447(3)
C19H C 0.10687(28) -0.61009(19) 0.9079(3)
C19J C 0.0503(2) -0.22646(28) 0.7588(3)
C20A C 0.31089(18) -0.37790(25) 0.7453(2)
C20B C 0.37790(25) -0.31121(18) 0.7453(2)
C21B C 0.42488(26) -0.28892(19) 0.7470(2)
C21A C 0.28620(18) -0.42488(26) 0.7470(2)
C22H C 0.11497(28) -0.53749(19) 0.9029(3)
C22J C -0.0142(2) -0.21836(28) 0.7638(3)
H12H H 0.1338 -0.5308 0.8734
H12J H -0.0020 -0.1995 0.7933
C23H C 0.09587(26) -0.57739(17) 0.9264(2)
C23J C 0.0066(2) -0.23746(26) 0.7403(2)
C24B C 0.49246(28) -0.22924(19) 0.7169(3)
C24A C 0.2783(2) -0.49246(28) 0.7169(3)
H13B H 0.5076 -0.2052 0.6950
H13A H 0.2872 -0.5076 0.6950
C25B C 0.5141(3) -0.2422(2) 0.7533(3)
C25A C 0.2437(2) -0.5141(3) 0.7533(3)
C26B C 0.6263(7) -0.2790(5) 0.7230(6)
C26A C 0.0947(5) -0.6263(7) 0.7230(6)
C27H C 0.0000(5) -0.4450(3) 1.1357(3)
C27J C -0.2216(4) -0.3333(5) 0.5310(3)
H14H H -0.0122 -0.4358 1.1091
H14J H -0.2430 -0.3455 0.5576
C28H C 0.0704(4) -0.3584(2) 0.8382(4)
C28J C -0.2378(3) -0.2629(4) 0.8285(4)
H15H H 0.0646 -0.3637 0.8003
H15J H -0.2383 -0.2687 0.8664
C29H C 0.0971(4) -0.3113(3) 0.9124(5)
C29J C -0.2582(3) -0.2362(4) 0.7543(5)
H16H H 0.1093 -0.2835 0.9249
H16J H -0.2738 -0.2240 0.7418
C30H C -0.0116(4) -0.4462(3) 1.1911(3)
C30J C -0.2320(3) -0.3449(4) 0.4756(3)
H17H H -0.0293 -0.4358 1.2016
H17J H -0.2601 -0.3626 0.4651
C31H C 0.0288(4) -0.4571(2) 1.1179(3)
C31J C -0.1807(3) -0.3045(4) 0.5488(3)
C32H C 0.0294(5) -0.4761(3) 1.2171(4)
C32J C -0.1611(4) -0.3039(5) 0.4496(4)
H18H H 0.0392 -0.4866 1.2454
H18J H -0.1408 -0.2941 0.4213
C33H C -0.0127(3) -0.4663(2) 1.2920(4)
C33J C -0.2130(2) -0.3460(3) 0.3747(4)
C34H C 0.0430(5) -0.4746(3) 1.1572(4)
C34J C -0.1490(4) -0.2903(5) 0.5095(4)
H19H H 0.0606 -0.4852 1.1471
H19J H -0.1208 -0.2727 0.5196
C35H C 0.0896(3) -0.3182(2) 0.8575(4)
C35J C -0.2588(2) -0.2437(3) 0.8092(4)
C36H C 0.0028(3) -0.4619(2) 1.2277(3)
C36J C -0.2019(2) -0.3305(3) 0.4390(3)
N1B N 0.6520(7) -0.2767(5) 0.6760(6)
N1A N 0.0713(5) -0.6520(7) 0.6760(6)
C37B C 0.6611(13) -0.3086(9) 0.6563(11)
C37A C 0.0303(9) -0.6611(13) 0.6563(11)
C38B C 0.6712(11) -0.2388(8) 0.6416(11)
C38A C 0.0900(8) -0.6712(11) 0.6416(11)
C39H C 0.1072(3) -0.2804(2) 0.8156(3)
C39J C -0.2790(2) -0.2261(3) 0.8511(3)
C43? C -0.3183(11) -0.0901(8) 1.0311(11)
C44? C -0.2908(13) -0.0115(9) 1.0230(11)
Co2? Co 0.2032(3) -0.1768(3) 0.8398(5)
In2? In 0.12580(14) -0.24545(13) 0.74073(17)
N3? N -0.2995(7) -0.0516(5) 0.9982(7)
loop_
_geom_bond_atom_site_label_1
_geom_bond_atom_site_label_2
_geom_bond_site_symmetry_1
_geom_bond_site_symmetry_2
In1 O2 1_555 1_555
Co1 O1 1_555 1_555
O1 C16 1_555 1_555
O2 C33 1_555 1_555
O3 C19 1_555 1_555
O4 In1 1_555 1_555
O5 C19 1_555 1_555
O6 C39 1_555 1_555
O7 Co1 1_555 1_555
O8 In1 1_555 1_555
O9 In1 1_555 1_555
O10 C39 1_555 1_555
C1 H1 1_555 1_555
C2 H2 1_555 1_555
C3 H3 1_555 1_555
C4 C13 1_555 1_555
C5 C1 1_555 1_555
C6 H4 1_555 1_555
C7 C2 1_555 1_555
C8 C7 1_555 1_555
H5 C8 1_555 1_555
C9 C2 1_555 1_555
C10 H6 1_555 1_555
C11 H7 1_555 1_555
C12 H8 1_555 1_555
C13 C10 1_555 1_555
H9 C13 1_555 1_555
C14 C4 1_555 1_555
C15 C11 1_555 1_555
H10 C15 1_555 1_555
C16 O4 1_555 1_555
C17 C4 1_555 1_555
H11 C17 1_555 1_555
C18 C20 1_555 1_555
C19 C23 1_555 1_555
C20 C21 1_555 1_555
C21 C11 1_555 1_555
C22 C17 1_555 1_555
H12 C22 1_555 1_555
C23 C10 1_555 1_555
C24 C12 1_555 1_555
H13 C24 1_555 1_555
C25 C15 1_555 1_555
C26 O7 1_555 1_555
C27 H14 1_555 1_555
C28 C3 1_555 1_555
H15 C28 1_555 1_555
C29 C1 1_555 1_555
H16 C29 1_555 1_555
C30 C27 1_555 1_555
H17 C30 1_555 1_555
C31 C7 1_555 1_555
C32 H18 1_555 1_555
C33 O8 1_555 1_555
C34 C31 1_555 1_555
H19 C34 1_555 1_555
C35 C28 1_555 1_555
C36 C30 1_555 1_555
N1 C26 1_555 1_555
C37 N1 1_555 1_555
C38 N1 1_555 1_555
C39 C35 1_555 1_555
N2 C40 1_555 1_555
O11 C40 1_555 1_555
C41 N2 1_555 1_555
C42 N2 1_555 1_555
In1B O2B 1_555 1_555
In1A O2A 1_555 1_555
In1K O3 1_555 1_555
In1D O10 1_555 1_555
In1H O2H 1_555 1_555
In1M O3H 1_555 1_555
In1J O2J 1_555 1_555
In1N O10J 1_555 1_555
In1L O9L 1_555 1_555
Co1B O1B 1_555 1_555
Co1A O1A 1_555 1_555
Co1E O5 1_555 1_555
Co1J O6 1_555 1_555
Co1L O9 1_555 1_555
Co1B_2 O6J 1_555 1_555
Co1N O9B 1_555 1_555
O1B C16B 1_555 1_555
O1A C16A 1_555 1_555
O2H C33H 1_555 1_555
O2J C33J 1_555 1_555
O3H C19H 1_555 1_555
O3J In1 1_555 1_555
O3I In1B 1_555 1_555
O3K In1A 1_555 1_555
O4B In1B 1_555 1_555
O4A In1A 1_555 1_555
O5H Co1A 1_555 1_555
O5J Co1L 1_555 1_555
O5G Co1 1_555 1_555
O5F Co1B 1_555 1_555
O6H Co1L 1_555 1_555
O6J C39J 1_555 1_555
O6K Co1 1_555 1_555
O6J_2 Co1B 1_555 1_555
O6I Co1A 1_555 1_555
O7B Co1B 1_555 1_555
O7A Co1A 1_555 1_555
O8H In1H 1_555 1_555
O8J In1J 1_555 1_555
O8B In1B 1_555 1_555
O8A In1A 1_555 1_555
O9L Co1 1_555 1_555
O9B In1B 1_555 1_555
O9A In1A 1_555 1_555
O9N Co1B 1_555 1_555
O9M In1M 1_555 1_555
O10H In1 1_555 1_555
O10J C39J 1_555 1_555
O10G In1B 1_555 1_555
O10F In1A 1_555 1_555
C1H H1H 1_555 1_555
C1J H1J 1_555 1_555
C2H H2H 1_555 1_555
C2J H2J 1_555 1_555
C3H H3H 1_555 1_555
C3J H3J 1_555 1_555
C4H C13H 1_555 1_555
C4J C13J 1_555 1_555
C5H C1H 1_555 1_555
C5J C1J 1_555 1_555
C6H H4H 1_555 1_555
C6J H4J 1_555 1_555
C7H C2H 1_555 1_555
C7J C2J 1_555 1_555
C8H C7H 1_555 1_555
C8J C7J 1_555 1_555
H5H C8H 1_555 1_555
H5J C8J 1_555 1_555
C9H C2H 1_555 1_555
C9J C2J 1_555 1_555
C10H H6H 1_555 1_555
C10J H6J 1_555 1_555
C11B H7B 1_555 1_555
C11A H7A 1_555 1_555
C12B H8B 1_555 1_555
C12A H8A 1_555 1_555
C13H C10H 1_555 1_555
C13J C10J 1_555 1_555
H9H C13H 1_555 1_555
H9J C13J 1_555 1_555
C14H C4H 1_555 1_555
C14J C4J 1_555 1_555
C15B C11B 1_555 1_555
C15A C11A 1_555 1_555
H10B C15B 1_555 1_555
H10A C15A 1_555 1_555
C16B O4B 1_555 1_555
C16A O4A 1_555 1_555
C17H C4H 1_555 1_555
C17J C4J 1_555 1_555
H11H C17H 1_555 1_555
H11J C17J 1_555 1_555
C18A C20A 1_555 1_555
C18B C20 1_555 1_555
C19H O5H 1_555 1_555
C19J O3J 1_555 1_555
C20A C18 1_555 1_555
C20B C18A 1_555 1_555
C21B C11B 1_555 1_555
C21A C11A 1_555 1_555
C22H C17H 1_555 1_555
C22J C17J 1_555 1_555
H12H C22H 1_555 1_555
H12J C22J 1_555 1_555
C23H C10H 1_555 1_555
C23J C10J 1_555 1_555
C24B C12B 1_555 1_555
C24A C12A 1_555 1_555
H13B C24B 1_555 1_555
H13A C24A 1_555 1_555
C25B C15B 1_555 1_555
C25A C15A 1_555 1_555
C26B O7B 1_555 1_555
C26A O7A 1_555 1_555
C27H H14H 1_555 1_555
C27J H14J 1_555 1_555
C28H C3H 1_555 1_555
C28J C3J 1_555 1_555
H15H C28H 1_555 1_555
H15J C28J 1_555 1_555
C29H C1H 1_555 1_555
C29J C1J 1_555 1_555
H16H C29H 1_555 1_555
H16J C29J 1_555 1_555
C30H C27H 1_555 1_555
C30J C27J 1_555 1_555
H17H C30H 1_555 1_555
H17J C30J 1_555 1_555
C31H C7H 1_555 1_555
C31J C7J 1_555 1_555
C32H H18H 1_555 1_555
C32J H18J 1_555 1_555
C33H O8H 1_555 1_555
C33J O8J 1_555 1_555
C34H C31H 1_555 1_555
C34J C31J 1_555 1_555
H19H C34H 1_555 1_555
H19J C34J 1_555 1_555
C35H C28H 1_555 1_555
C35J C28J 1_555 1_555
C36H C30H 1_555 1_555
C36J C30J 1_555 1_555
N1B C26B 1_555 1_555
N1A C26A 1_555 1_555
C37B N1B 1_555 1_555
C37A N1A 1_555 1_555
C38B N1B 1_555 1_555
C38A N1A 1_555 1_555
C39H O6H 1_555 1_555
C39J C35J 1_555 1_555
Co1 O9 1_555 1_555
C3 C5 1_555 1_555
C5 C9 1_555 1_555
C6 C9 1_555 1_555
C6 C14 1_555 1_555
C8 C14 1_555 1_555
C12 C21 1_555 1_555
C16 C25 1_555 1_555
C22 C23 1_555 1_555
C24 C25 1_555 1_555
C27 C31 1_555 1_555
C29 C35 1_555 1_555
C32 C34 1_555 1_555
C32 C36 1_555 1_555
C33 C36 1_555 1_555
Co1B O9B 1_555 1_555
Co1A O9A 1_555 1_555
Co1A O9M 1_555 1_555
Co1L O9L 1_555 1_555
Co1N O9N 1_555 1_555
O5J C19J 1_555 1_555
O10H C39H 1_555 1_555
C3H C5H 1_555 1_555
C3J C5J 1_555 1_555
C5H C9H 1_555 1_555
C5J C9J 1_555 1_555
C6H C9H 1_555 1_555
C6H C14H 1_555 1_555
C6J C9J 1_555 1_555
C6J C14J 1_555 1_555
C8H C14H 1_555 1_555
C8J C14J 1_555 1_555
C12B C21B 1_555 1_555
C12A C21A 1_555 1_555
C16B C25B 1_555 1_555
C16A C25A 1_555 1_555
C18B C20B 1_555 1_555
C19H C23H 1_555 1_555
C19J C23J 1_555 1_555
C20A C21A 1_555 1_555
C20B C21B 1_555 1_555
C22H C23H 1_555 1_555
C22J C23J 1_555 1_555
C24B C25B 1_555 1_555
C24A C25A 1_555 1_555
C27H C31H 1_555 1_555
C27J C31J 1_555 1_555
C29H C35H 1_555 1_555
C29J C35J 1_555 1_555
C32H C34H 1_555 1_555
C32H C36H 1_555 1_555
C32J C34J 1_555 1_555
C32J C36J 1_555 1_555
C33H C36H 1_555 1_555
C33J C36J 1_555 1_555
C35H C39H 1_555 1_555

#END
