
#######################################################################
#
#                 Cambridge Crystallographic Data Centre
#                                CCDC 
#
#######################################################################
#
# If this CIF has been generated from an entry in the Cambridge 
# Structural Database, then it will include bibliographic, chemical, 
# crystal, experimental, refinement or atomic coordinate data resulting 
# from the CCDC's data processing and validation procedures.
#
#######################################################################

data_YOYBIZ
_chemical_formula_moiety         '(C48 H32 N4 O10 Zn2)n,3(C4 H9 N1 O1),H2 O1'
_chemical_name_systematic        
"catena-[bis(\m-4,4'-(4,4'-bipyridine-2,6-diyl)dibenzoato)-diaqua-di-zinc N,N-dimethylformamide sc monohydrate]"
_symmetry_cell_setting           triclinic
_symmetry_space_group_name_H-M   'P -1'
_symmetry_Int_Tables_number      2
_space_group_name_Hall           '-P 1'
loop_
_symmetry_equiv_pos_site_id
_symmetry_equiv_pos_as_xyz
1 x,y,z
2 -x,-y,-z
_cell_length_a                   7.4379(5)
_cell_length_b                   14.7017(12)
_cell_length_c                   25.1694(10)
_cell_angle_alpha                88.492(5)
_cell_angle_beta                 87.735(4)
_cell_angle_gamma                89.118(6)
_cell_volume                     2748.88
_cell_formula_units_Z            2
loop_
_atom_site_label
_atom_site_type_symbol
_atom_site_fract_x
_atom_site_fract_y
_atom_site_fract_z
Zn1 Zn 0.04580(16) 1.30523(7) 1.04592(4)
Zn2 Zn 0.48778(17) 0.67950(7) 0.54864(4)
C1 C 0.3428(14) 0.9608(7) 0.6263(4)
H1 H 0.3828 0.9625 0.5908
O1 O 0.7599(10) 0.4666(4) 0.0081(3)
N1 N 0.0839(10) 1.1888(5) 0.6911(3)
O2 O 0.4492(10) 0.7985(4) 0.5794(3)
O3 O 0.2613(10) 0.6074(5) 0.5606(3)
H2 H 0.1686 0.6422 0.5568
H3 H 0.2570 0.5840 0.5923
O4 O 0.0786(13) 1.2484(5) 0.1516(3)
O5 O 0.8574(9) 0.3806(4) 0.0757(3)
O6 O 0.1044(10) 1.1835(4) 0.0737(3)
O7 O -0.3260(10) 1.6037(5) 0.5798(3)
O8 O -0.2479(11) 1.5183(5) 0.5112(3)
N2 N 0.4858(11) 0.7080(5) 0.4693(3)
N3 N 0.0387(11) 1.2739(5) 0.9669(3)
C2 C -0.0663(14) 1.3927(7) 0.5807(4)
H4 H -0.0402 1.3861 0.5445
O9 O 0.2700(9) 1.3787(4) 1.0474(3)
H5 H 0.3161 1.3744 1.0785
H6 H 0.2468 1.4357 1.0405
C3 C 0.6896(13) 0.5109(6) 0.0970(4)
C4 C 0.7273(13) 0.4990(6) 0.1499(4)
H7 H 0.7968 0.4492 0.1606
C5 C -0.0023(13) 1.3300(7) 0.6166(4)
H8 H 0.0667 1.2811 0.6043
C6 C 0.2787(14) 1.0397(6) 0.6498(4)
H9 H 0.2815 1.0943 0.6304
C7 C 0.2155(14) 0.9559(6) 0.7307(4)
H10 H 0.1750 0.9539 0.7661
C8 C 0.5103(12) 0.6906(6) 0.2660(4)
H11 H 0.5520 0.6348 0.2792
C9 C 0.5026(13) 0.7062(6) 0.2116(4)
N4 N 0.4404(10) 0.7850(5) 0.1909(3)
O10 O 0.4209(12) 0.7216(5) 0.6571(3)
C10 C 0.5199(13) 0.6468(6) 0.1191(4)
H12 H 0.4500 0.6964 0.1083
C11 C 0.1698(13) 1.1910(6) 0.8946(4)
H13 H 0.2518 1.1469 0.8827
C12 C 0.4560(12) 0.7581(6) 0.3011(3)
C13 C 0.2150(14) 1.0189(7) 0.1212(4)
H14 H 0.1899 1.0192 0.0853
C14 C -0.0373(13) 1.3374(6) 0.6710(4)
C15 C 0.2797(14) 0.8765(7) 0.7079(4)
H15 H 0.2776 0.8218 0.7273
C16 C 0.1392(13) 1.1231(6) 0.7259(4)
C17 C -0.0631(13) 1.2986(6) 0.8793(4)
H16 H -0.1433 1.3283 0.8571
C18 C -0.1713(12) 1.4672(6) 0.5982(4)
C19 C -0.0666(13) 1.3160(7) 0.9324(4)
H17 H -0.1475 1.3599 0.9451
C20 C 0.3478(13) 0.8795(6) 0.6553(4)
C21 C 0.0622(13) 1.2355(6) 0.8587(4)
C22 C 0.0714(13) 1.2179(6) 0.8005(3)
C23 C 0.4097(14) 0.7857(7) 0.4501(4)
H18 H 0.3683 0.8292 0.4739
C24 C 0.5444(14) 0.6636(6) 0.3804(4)
H19 H 0.5931 0.6203 0.3574
C25 C 0.0201(12) 1.2854(6) 0.7644(4)
H20 H -0.0184 1.3420 0.7766
C26 C 0.7765(13) 0.4475(6) 0.0558(4)
C27 C 0.2805(14) 0.9394(7) 0.1457(4)
H21 H 0.2976 0.8872 0.1259
C28 C 0.0259(12) 1.2692(6) 0.7106(4)
C29 C 0.4653(13) 0.7418(6) 0.3596(4)
C30 C 0.6642(13) 0.5594(6) 0.1868(4)
H22 H 0.6888 0.5489 0.2224
C31 C 0.5785(13) 0.5844(6) 0.0817(4)
H23 H 0.5445 0.5911 0.0466
C32 C 0.1874(13) 1.0959(6) 0.1495(4)
C33 C 0.2952(15) 1.0173(7) 0.2271(4)
H24 H 0.3248 1.0186 0.2626
C34 C 0.1584(14) 1.2102(7) 0.9469(4)
H25 H 0.2341 1.1794 0.9701
C35 C 0.1318(13) 1.1352(6) 0.7803(4)
H26 H 0.1671 1.0882 0.8033
C36 C 0.3916(14) 0.8025(7) 0.3966(4)
H27 H 0.3300 0.8544 0.3850
C37 C 0.3943(12) 0.8392(6) 0.2790(3)
H28 H 0.3571 0.8863 0.3010
C38 C -0.1402(13) 1.4133(6) 0.6877(4)
H29 H -0.1646 1.4213 0.7239
C39 C 0.1190(14) 1.1837(6) 0.1236(4)
C40 C 0.5627(12) 0.6372(6) 0.1722(3)
C41 C 0.3202(12) 0.9372(6) 0.1991(3)
C42 C 0.4115(13) 0.7915(6) 0.6291(4)
C43 C 0.2270(16) 1.0943(7) 0.2026(4)
H30 H 0.2072 1.1465 0.2222
C44 C 0.2095(13) 1.0383(6) 0.7026(4)
C45 C -0.2508(13) 1.5331(7) 0.5589(4)
C46 C 0.5522(14) 0.6487(7) 0.4342(4)
H31 H 0.6059 0.5952 0.4467
C47 C -0.2048(15) 1.4756(7) 0.6514(4)
H32 H -0.2733 1.5249 0.6635
C48 C 0.3874(12) 0.8508(6) 0.2242(4)
Zn1_2 Zn 0.04580(16) 1.30523(7) 0.04592(4)
Zn1_3 Zn 1.04580(16) 0.30523(7) 0.04592(4)
Zn2_2 Zn -0.51222(17) 1.67950(7) 0.54864(4)
O5_2 O -0.1426(9) 1.3806(4) 1.0757(3)
O6_2 O 0.1044(10) 1.1835(4) 1.0737(3)
O7_2 O 0.6740(10) 0.6037(5) 0.5798(3)
O11 O 0.6912(11) 0.4588(5) 0.3377(3)
C49 C 0.3789(16) 0.3471(8) 0.2369(5)
H33 H 0.3791 0.2944 0.2152
H34 H 0.3894 0.3284 0.2735
H35 H 0.4786 0.3849 0.2260
O12 O -0.0785(10) 0.4292(6) 0.2540(3)
N5 N 0.2103(13) 0.3985(6) 0.2307(4)
C50 C 0.2028(17) 0.4570(8) 0.1824(4)
H36 H 0.3078 0.4942 0.1795
H37 H 0.0970 0.4952 0.1846
H38 H 0.1986 0.4197 0.1518
C51 C 0.0696(17) 0.3123(7) 0.3054(4)
H39 H -0.0448 0.3103 0.3244
H40 H 0.1612 0.3277 0.3293
H41 H 0.0969 0.2539 0.2907
C52 C 0.0626(18) 0.3838(8) 0.2608(5)
O13 O 0.2612(14) -0.0110(6) 0.4459(4)
C53 C 0.154(2) 0.1038(12) 0.5210(5)
H42 H 0.2066 0.0444 0.5261
H43 H 0.0419 0.1077 0.5412
H44 H 0.2344 0.1489 0.5327
C54 C 0.1554(19) 0.0786(11) 0.3725(5)
H45 H 0.2193 0.1321 0.3607
H46 H 0.0293 0.0876 0.3670
H47 H 0.1993 0.0275 0.3526
N6 N 0.1219(15) 0.1196(7) 0.4650(4)
C55 C 0.1836(18) 0.0608(10) 0.4302(6)
C56 C 0.035(2) 0.2046(9) 0.4496(7)
H48 H -0.0601 0.2186 0.4750
H49 H -0.0129 0.1992 0.4151
H50 H 0.1221 0.2525 0.4486
O14 O 0.5313(11) 0.2597(5) 0.0249(3)
N7 N 0.6663(16) 0.1331(8) 0.0570(6)
C57 C 0.7201(19) 0.0728(11) 0.1010(7)
H51 H 0.6243 0.0318 0.1105
H52 H 0.7454 0.1086 0.1312
H53 H 0.8259 0.0387 0.0903
C58 C 0.689(2) 0.1035(12) 0.0014(7)
H54 H 0.8148 0.0946 -0.0074
H55 H 0.6402 0.1493 -0.0220
H56 H 0.6272 0.0474 -0.0024
C59 C 0.5859(17) 0.2140(10) 0.0622(6)
C60 C 0.572(2) 0.2441(10) 0.1195(5)
H57 H 0.6896 0.2441 0.1338
H58 H 0.4966 0.2029 0.1402
H59 H 0.5205 0.3043 0.1208
loop_
_geom_bond_atom_site_label_1
_geom_bond_atom_site_label_2
_geom_bond_site_symmetry_1
_geom_bond_site_symmetry_2
Zn1 N3 1_555 1_555
Zn2 O2 1_555 1_555
C1 H1 1_555 1_555
O1 C26 1_555 1_555
N1 C16 1_555 1_555
O2 C42 1_555 1_555
O3 Zn2 1_555 1_555
H2 O3 1_555 1_555
H3 O3 1_555 1_555
O4 C39 1_555 1_555
O5 C26 1_555 1_555
O6 C39 1_555 1_555
O7 C45 1_555 1_555
O8 C45 1_555 1_555
N2 Zn2 1_555 1_555
N3 C19 1_555 1_555
C2 H4 1_555 1_555
O9 Zn1 1_555 1_555
H5 O9 1_555 1_555
H6 O9 1_555 1_555
C3 C4 1_555 1_555
C4 H7 1_555 1_555
C5 C2 1_555 1_555
H8 C5 1_555 1_555
C6 C1 1_555 1_555
H9 C6 1_555 1_555
C7 H10 1_555 1_555
C8 H11 1_555 1_555
C9 C8 1_555 1_555
N4 C9 1_555 1_555
O10 C42 1_555 1_555
C10 H12 1_555 1_555
C11 H13 1_555 1_555
C12 C8 1_555 1_555
C13 H14 1_555 1_555
C14 C5 1_555 1_555
C15 C7 1_555 1_555
H15 C15 1_555 1_555
C16 C35 1_555 1_555
C17 H16 1_555 1_555
C18 C2 1_555 1_555
C19 C17 1_555 1_555
H17 C19 1_555 1_555
C20 C1 1_555 1_555
C21 C11 1_555 1_555
C22 C21 1_555 1_555
C23 N2 1_555 1_555
H18 C23 1_555 1_555
C24 H19 1_555 1_555
C25 C22 1_555 1_555
H20 C25 1_555 1_555
C26 C3 1_555 1_555
C27 C13 1_555 1_555
H21 C27 1_555 1_555
C28 N1 1_555 1_555
C29 C12 1_555 1_555
C30 C4 1_555 1_555
H22 C30 1_555 1_555
C31 C3 1_555 1_555
H23 C31 1_555 1_555
C32 C13 1_555 1_555
C33 H24 1_555 1_555
C34 N3 1_555 1_555
H25 C34 1_555 1_555
C35 C22 1_555 1_555
H26 C35 1_555 1_555
C36 C23 1_555 1_555
H27 C36 1_555 1_555
C37 C12 1_555 1_555
H28 C37 1_555 1_555
C38 C14 1_555 1_555
H29 C38 1_555 1_555
C39 C32 1_555 1_555
C40 C9 1_555 1_555
C41 C27 1_555 1_555
C42 C20 1_555 1_555
C43 C32 1_555 1_555
H30 C43 1_555 1_555
C44 C6 1_555 1_555
C45 C18 1_555 1_555
C46 N2 1_555 1_555
H31 C46 1_555 1_555
C47 C18 1_555 1_555
H32 C47 1_555 1_555
C48 N4 1_555 1_555
C49 H33 1_555 1_555
H34 C49 1_555 1_555
H35 C49 1_555 1_555
O12 C52 1_555 1_555
N5 C49 1_555 1_555
C50 N5 1_555 1_555
H36 C50 1_555 1_555
H37 C50 1_555 1_555
H38 C50 1_555 1_555
C51 H39 1_555 1_555
H40 C51 1_555 1_555
H41 C51 1_555 1_555
C52 N5 1_555 1_555
O13 C55 1_555 1_555
C53 H42 1_555 1_555
H43 C53 1_555 1_555
H44 C53 1_555 1_555
C54 H45 1_555 1_555
H46 C54 1_555 1_555
H47 C54 1_555 1_555
N6 C53 1_555 1_555
C55 C54 1_555 1_555
C56 N6 1_555 1_555
H48 C56 1_555 1_555
H49 C56 1_555 1_555
H50 C56 1_555 1_555
O14 C59 1_555 1_555
N7 C57 1_555 1_555
C57 H51 1_555 1_555
H52 C57 1_555 1_555
H53 C57 1_555 1_555
C58 N7 1_555 1_555
H54 C58 1_555 1_555
H55 C58 1_555 1_555
H56 C58 1_555 1_555
C59 N7 1_555 1_555
C60 C59 1_555 1_555
H57 C60 1_555 1_555
H58 C60 1_555 1_555
H59 C60 1_555 1_555
Zn1_2 O6 1_555 1_555
Zn1_3 O5 1_555 1_555
Zn2_2 O7 1_555 1_555
O5_2 Zn1 1_555 1_555
O6_2 Zn1 1_555 1_555
O7_2 Zn2 1_555 1_555
C7 C44 1_555 1_555
C10 C31 1_555 1_555
C10 C40 1_555 1_555
C11 C34 1_555 1_555
C14 C28 1_555 1_555
C15 C20 1_555 1_555
C16 C44 1_555 1_555
C17 C21 1_555 1_555
C24 C29 1_555 1_555
C24 C46 1_555 1_555
C25 C28 1_555 1_555
C29 C36 1_555 1_555
C30 C40 1_555 1_555
C33 C41 1_555 1_555
C33 C43 1_555 1_555
C37 C48 1_555 1_555
C38 C47 1_555 1_555
C41 C48 1_555 1_555
C51 C52 1_555 1_555
N6 C55 1_555 1_555

#END
