
#######################################################################
#
#                 Cambridge Crystallographic Data Centre
#                                CCDC 
#
#######################################################################
#
# If this CIF has been generated from an entry in the Cambridge 
# Structural Database, then it will include bibliographic, chemical, 
# crystal, experimental, refinement or atomic coordinate data resulting 
# from the CCDC's data processing and validation procedures.
#
#######################################################################

data_QOVDAH
_chemical_formula_moiety         '(C6 H16 N2 Ni2 O8 P2)n,6n(H2 O1)'
_chemical_name_systematic        
"catena-((\m~8~-N,N'-piperazine-bis(methylenephosphonato))-di-aqua-di-nickel(ii) hexahydrate)"
_symmetry_cell_setting           rhombohedral
_symmetry_space_group_name_H-M   'R -3'
_symmetry_Int_Tables_number      148
_space_group_name_Hall           '-R 3'
loop_
_symmetry_equiv_pos_site_id
_symmetry_equiv_pos_as_xyz
1 x,y,z
2 -y,x-y,z
3 -x+y,-x,z
4 1/3+x,2/3+y,2/3+z
5 1/3-y,2/3+x-y,2/3+z
6 1/3-x+y,2/3-x,2/3+z
7 2/3+x,1/3+y,1/3+z
8 2/3-y,1/3+x-y,1/3+z
9 2/3-x+y,1/3-x,1/3+z
10 -x,-y,-z
11 y,-x+y,-z
12 x-y,x,-z
13 2/3-x,1/3-y,1/3-z
14 2/3+y,1/3-x+y,1/3-z
15 2/3+x-y,1/3+x,1/3-z
16 1/3-x,2/3-y,2/3-z
17 1/3+y,2/3-x+y,2/3-z
18 1/3+x-y,2/3+x,2/3-z
_cell_length_a                   27.83424(11)
_cell_length_b                   27.83424(11)
_cell_length_c                   6.242081(26)
_cell_angle_alpha                90
_cell_angle_beta                 90
_cell_angle_gamma                120
_cell_volume                     4188.12
_exptl_crystal_colour            green
_cell_formula_units_Z            9
loop_
_atom_site_label
_atom_site_type_symbol
_atom_site_fract_x
_atom_site_fract_y
_atom_site_fract_z
Ni1 Ni 0.30346(5) 0.02706(5) -0.28079(22)
P1 P 0.29402(11) 0.05095(12) 0.2375(5)
O1 O 0.24067(21) 0.05063(22) 0.1831(10)
O2 O 0.22306(22) 0.00589(19) -0.2202(10)
O4 O 0.32394(22) 0.04578(23) 0.0496(9)
N1 N 0.32491(28) 0.11125(29) 0.6230(12)
C1 C 0.2781(4) 0.1198(4) 0.6450(14)
O5 O 0.28276(22) 0.00262(22) 0.3979(9)
C2 C 0.37743(34) 0.1573(4) 0.7449(12)
C3 C 0.3467(4) 0.1170(4) 0.3949(13)
Ni1L Ni 0.36321(5) 0.30627(5) 1.61412(22)
Ni1H Ni 0.39027(7) 0.02987(5) 0.05254(22)
Ni1_2 Ni 0.30346(5) 0.02706(5) 0.71921(22)
Ni1D Ni 0.30627(5) -0.05693(7) 0.38588(22)
Ni1L_2 Ni 0.36321(5) 0.30627(5) 0.61412(22)
Ni1K Ni 0.27640(7) 0.30346(5) 1.28079(22)
Ni1P Ni 0.36039(5) 0.39027(7) 0.94746(22)
P1L P 0.37265(11) 0.28238(12) 1.0958(5)
O1L O 0.42600(21) 0.28270(22) 1.1502(10)
O2L O 0.44361(22) 0.32744(19) 1.5535(10)
O4L O 0.34273(22) 0.28755(23) 1.2837(9)
O4D O 0.28755(23) -0.05517(32) -0.2837(9)
O4P O 0.37911(23) 0.38851(32) 1.6171(9)
N1L N 0.34176(28) 0.22208(29) 0.7103(12)
N1_2 N 0.32491(28) 0.11125(29) -0.3770(12)
N1L_2 N 0.34176(28) 0.22208(29) 1.7103(12)
C1L C 0.3886(4) 0.2135(4) 0.6883(14)
O5L O 0.38391(22) 0.33071(22) 0.9354(9)
O5H O 0.38653(31) 0.05057(22) -0.2688(9)
O5_2 O 0.28276(22) 0.00262(22) -0.6021(9)
O5K O 0.28014(31) 0.28276(22) 1.6021(9)
O5L_2 O 0.38391(22) 0.33071(22) 1.9354(9)
C2L C 0.28924(34) 0.1760(4) 0.5884(12)
C3L C 0.3200(4) 0.2163(4) 0.9384(13)
O3 O 0.41454(27) -0.13624(26) -0.5565(11)
O6 O 0.36927(30) -0.22480(28) -0.2815(13)
O7 O 0.37749(31) -0.21739(27) -0.8657(13)
loop_
_geom_bond_atom_site_label_1
_geom_bond_atom_site_label_2
_geom_bond_site_symmetry_1
_geom_bond_site_symmetry_2
Ni1 O2 1_555 1_555
P1 O1 1_555 1_555
O4 Ni1 1_555 1_555
N1 C1 1_555 1_555
C1 C2L 1_555 1_555
O5 P1 1_555 1_555
C2 N1 1_555 1_555
C3 P1 1_555 1_555
Ni1L O2L 1_555 1_555
Ni1H O4 1_555 1_555
Ni1_2 N1 1_555 1_555
Ni1D O5 1_555 1_555
Ni1L_2 N1L 1_555 1_555
Ni1K O4L 1_555 1_555
Ni1P O5L 1_555 1_555
P1L O1L 1_555 1_555
O4L Ni1L 1_555 1_555
O4D Ni1 1_555 1_555
O4P Ni1L 1_555 1_555
N1L C1L 1_555 1_555
N1_2 Ni1 1_555 1_555
N1L_2 Ni1L 1_555 1_555
C1L C2 1_555 1_555
O5L Ni1L_2 1_555 1_555
O5H Ni1 1_555 1_555
O5_2 Ni1 1_555 1_555
O5K Ni1L 1_555 1_555
O5L_2 Ni1L 1_555 1_555
C2L N1L 1_555 1_555
C3L P1L 1_555 1_555
P1 O4 1_555 1_555
N1 C3 1_555 1_555
O5 Ni1_2 1_555 1_555
Ni1H O5H 1_555 1_555
Ni1K O5K 1_555 1_555
P1L O4L 1_555 1_555
P1L O5L 1_555 1_555
N1L C3L 1_555 1_555

#END
