
#######################################################################
#
#                 Cambridge Crystallographic Data Centre
#                                CCDC 
#
#######################################################################
#
# If this CIF has been generated from an entry in the Cambridge 
# Structural Database, then it will include bibliographic, chemical, 
# crystal, experimental, refinement or atomic coordinate data resulting 
# from the CCDC's data processing and validation procedures.
#
#######################################################################

data_VEYREY
_chemical_name_common            UHM-7
_chemical_formula_moiety         '(C114 H92 Cu6 N4 O30 Si3)n,0.5n(H2 O1)'
_chemical_name_systematic        
"catena-[tris(\m~8~-5,5'-((Dimethylsilanediyl)bis(benzene-4,1-diylethyne-2,1-diyl))dibenzene-1,3-dicarboxylato)-tetrakis(N,N-dimethylformamide-O)-diaqua-hexa-copper(ii) hemihydrate unknown solvate]"
_symmetry_cell_setting           tetragonal
_symmetry_space_group_name_H-M   'I 4/m'
_symmetry_Int_Tables_number      87
_space_group_name_Hall           '-I 4'
loop_
_symmetry_equiv_pos_site_id
_symmetry_equiv_pos_as_xyz
1 x,y,z
2 -x,-y,z
3 -y,x,z
4 y,-x,z
5 1/2+x,1/2+y,1/2+z
6 1/2-x,1/2-y,1/2+z
7 1/2-y,1/2+x,1/2+z
8 1/2+y,1/2-x,1/2+z
9 -x,-y,-z
10 x,y,-z
11 y,-x,-z
12 -y,x,-z
13 1/2-x,1/2-y,1/2-z
14 1/2+x,1/2+y,1/2-z
15 1/2+y,1/2-x,1/2-z
16 1/2-y,1/2+x,1/2-z
_cell_length_a                   28.75270(10)
_cell_length_b                   28.75270(10)
_cell_length_c                   35.4316(2)
_cell_angle_alpha                90
_cell_angle_beta                 90
_cell_angle_gamma                90
_cell_volume                     29291.9
_exptl_crystal_colour            blue
_exptl_crystal_description       block
_cell_formula_units_Z            8
loop_
_atom_site_label
_atom_site_type_symbol
_atom_site_fract_x
_atom_site_fract_y
_atom_site_fract_z
O17 O 0.6231(9) 0.6744(9) 0.5000
Cu1 Cu 0.88826(3) 0.83706(3) 0.15537(2)
Cu2 Cu 0.85050(3) 0.78669(3) 0.20989(2)
O1 O 0.40076(15) 1.27371(14) 0.36370(12)
O2 O 0.37302(13) 1.23133(13) 0.31578(10)
O3 O 0.83350(16) 0.84747(14) 0.22965(12)
O4 O 0.86745(14) 0.89114(13) 0.18487(10)
O5 O 0.49492(15) 1.20743(13) 0.46066(10)
O6 O 0.51085(16) 1.13107(13) 0.46083(11)
O7 O 0.65182(14) 0.89670(16) 0.03860(11)
O8 O 0.72822(15) 0.91182(15) 0.03859(11)
O9 O 0.79686(14) 0.79015(15) 0.17506(11)
O10 O 0.82839(14) 0.83622(14) 0.13073(11)
O11 O 0.79465(15) 1.08891(14) 0.23570(11)
O12 O 0.83285(17) 1.05640(14) 0.18687(12)
Si1 Si 0.42966(6) 0.82169(6) 0.28887(5)
Si2 Si 0.64897(12) 0.89071(12) 0.5000
C1 C 0.39356(19) 1.2365(2) 0.34647(15)
C2 C 0.41430(19) 1.19374(19) 0.36494(15)
C3 C 0.4100(2) 1.1494(2) 0.34816(15)
H1 H 0.3926 1.1458 0.3262
C4 C 0.4312(2) 1.1118(2) 0.36411(17)
C5 C 0.4571(2) 1.11700(19) 0.39711(16)
H2 H 0.4719 1.0914 0.4077
C6 C 0.46079(19) 1.16056(18) 0.41425(14)
C7 C 0.43943(18) 1.19868(18) 0.39792(14)
H3 H 0.4420 1.2278 0.4092
C8 C 0.4914(2) 1.16664(19) 0.44793(14)
C9 C 0.8453(2) 0.8857(2) 0.21557(15)
C10 C 0.8305(2) 0.9277(2) 0.23645(15)
C11 C 0.83203(19) 0.9714(2) 0.21998(15)
H4 H 0.8440 0.9747 0.1958
C12 C 0.8160(2) 1.0099(2) 0.23899(16)
C13 C 0.7996(2) 1.0048(2) 0.27636(17)
H5 H 0.7889 1.0306 0.2896
C14 C 0.7995(2) 0.9615(2) 0.29319(17)
C15 C 0.8140(2) 0.9233(2) 0.27328(16)
H6 H 0.8128 0.8940 0.2845
C16 C 0.7808(3) 0.9537(2) 0.33030(18)
C17 C 0.7951(2) 0.8150(2) 0.14622(16)
C18 C 0.7484(2) 0.8226(2) 0.12922(17)
C19 C 0.7088(3) 0.8078(2) 0.14843(18)
H7 H 0.7119 0.7896 0.1700
C20 C 0.6655(2) 0.8197(3) 0.1359(2)
C21 C 0.6603(2) 0.8449(2) 0.10272(19)
H8 H 0.6307 0.8524 0.0939
C22 C 0.7429(2) 0.84919(19) 0.09677(15)
H9 H 0.7690 0.8606 0.0843
C23 C 0.6243(2) 0.8105(3) 0.15790(19)
C24 C 0.5911(3) 0.8083(2) 0.1777(2)
C25 C 0.5531(2) 0.8096(2) 0.20317(18)
C26 C 0.5606(2) 0.8056(2) 0.24242(17)
H10 H 0.5905 0.8009 0.2516
C27 C 0.5240(2) 0.8085(2) 0.26687(18)
H11 H 0.5296 0.8062 0.2927
C28 C 0.4785(2) 0.8147(2) 0.25426(19)
C29 C 0.4714(2) 0.8190(2) 0.21561(18)
H12 H 0.4415 0.8239 0.2065
C30 C 0.5078(2) 0.8161(2) 0.1905(2)
H13 H 0.5020 0.8185 0.1648
C31 C 0.3735(3) 0.8089(3) 0.2645(2)
H14 H 0.3714 0.8270 0.2418
H15 H 0.3480 0.8166 0.2809
H16 H 0.3721 0.7764 0.2583
C32 C 0.4402(3) 0.7832(2) 0.3308(2)
H17 H 0.4384 0.7512 0.3231
H18 H 0.4170 0.7893 0.3497
H19 H 0.4705 0.7894 0.3409
C33 C 0.4304(2) 0.8846(2) 0.30416(19)
C34 C 0.4271(2) 0.9195(2) 0.2775(2)
H20 H 0.4243 0.9113 0.2522
C35 C 0.4278(2) 0.9659(2) 0.2869(2)
H21 H 0.4258 0.9885 0.2682
C36 C 0.4373(3) 0.9436(3) 0.3518(2)
H22 H 0.4408 0.9516 0.3771
C37 C 0.4375(3) 0.8981(3) 0.3413(2)
H23 H 0.4427 0.8754 0.3595
C38 C 0.4287(2) 1.0660(2) 0.3474(2)
C39 C 0.4303(3) 1.0270(2) 0.3362(2)
C40 C 0.4315(2) 0.9784(2) 0.32438(19)
C41 C 0.6927(2) 0.8917(2) 0.05079(14)
C42 C 0.6991(2) 0.8587(2) 0.08293(17)
C43 C 0.7627(3) 0.9438(3) 0.35949(19)
C44 C 0.7378(3) 0.9318(3) 0.39287(18)
C45 C 0.6843(3) 0.9070(3) 0.45730(18)
C46 C 0.7329(6) 0.9185(8) 0.4620(4)
H24 H 0.7480 0.9158 0.4851
C47 C 0.7567(5) 0.9346(7) 0.4281(3)
H25 H 0.7862 0.9474 0.4307
C48 C 0.6967(5) 0.9132(7) 0.3913(3)
H26 H 0.6830 0.9089 0.3678
C49 C 0.6715(5) 0.8989(8) 0.4245(3)
H27 H 0.6439 0.8826 0.4211
C50 C 0.5942(5) 0.9237(5) 0.5000
C51 C 0.6339(5) 0.8282(4) 0.5000
C52 C 0.8138(2) 1.0555(2) 0.21933(17)
O13 O 0.93025(18) 0.86903(19) 0.11189(13)
C53 C 0.9700(4) 0.8437(4) 0.1097(3)
N1 N 1.0075(4) 0.8551(4) 0.0920(3)
C54 C 1.0503(6) 0.8294(6) 0.0898(5)
C55 C 1.010(3) 0.908(3) 0.082(2)
O14 O 0.81546(17) 0.75447(19) 0.25647(14)
C56 C 0.7843(5) 0.7763(5) 0.2734(4)
N2 N 0.7891(5) 0.7997(4) 0.3087(4)
C57 C 0.7473(6) 0.8133(6) 0.3234(5)
C58 C 0.8321(7) 0.8024(7) 0.3232(6)
Cu3 Cu 0.53954(4) 1.22502(3) 0.5000
Cu4 Cu 0.55804(4) 1.13477(3) 0.5000
O15 O 0.5253(3) 1.2983(3) 0.5000
O16 O 0.5736(3) 1.0617(2) 0.5000
O3I O 0.83350(16) 0.84747(14) 0.77035(12)
O4I O 0.86745(14) 0.89114(13) 0.81513(10)
O11I O 0.79465(15) 1.08891(14) 0.76430(11)
O12I O 0.83285(17) 1.05640(14) 0.81313(12)
C9I C 0.8453(2) 0.8857(2) 0.78443(15)
C10I C 0.8305(2) 0.9277(2) 0.76355(15)
C11I C 0.83203(19) 0.9714(2) 0.78002(15)
H4I H 0.8440 0.9747 0.8042
C12I C 0.8160(2) 1.0099(2) 0.76101(16)
C13I C 0.7996(2) 1.0048(2) 0.72364(17)
H5I H 0.7889 1.0306 0.7104
C14I C 0.7995(2) 0.9615(2) 0.70681(17)
C15I C 0.8140(2) 0.9233(2) 0.72672(16)
H6I H 0.8128 0.8940 0.7155
C16I C 0.7808(3) 0.9537(2) 0.66970(18)
C43I C 0.7627(3) 0.9438(3) 0.64051(19)
C44I C 0.7378(3) 0.9318(3) 0.60713(18)
C45I C 0.6843(3) 0.9070(3) 0.54270(18)
C46I C 0.7329(6) 0.9185(8) 0.5380(4)
H24I H 0.7480 0.9158 0.5149
C47I C 0.7567(5) 0.9346(7) 0.5719(3)
H25I H 0.7862 0.9474 0.5693
C48I C 0.6967(5) 0.9132(7) 0.6087(3)
H26I H 0.6830 0.9089 0.6322
C49I C 0.6715(5) 0.8989(8) 0.5755(3)
H27I H 0.6439 0.8826 0.5789
C52I C 0.8138(2) 1.0555(2) 0.78067(17)
Cu1M Cu 1.38826(3) 0.33706(3) 0.34463(2)
Cu2M Cu 1.35050(3) 0.28669(3) 0.29011(2)
O1M O 0.90076(15) 0.77371(14) 0.13630(12)
O2M O 0.87302(13) 0.73133(13) 0.18422(10)
O5M O 0.99492(15) 0.70743(13) 0.03934(10)
O6M O 1.01085(16) 0.63107(13) 0.03917(11)
O7M O 1.15182(14) 0.39670(16) 0.46140(11)
O8M O 1.22822(15) 0.41182(15) 0.46141(11)
O9M O 1.29686(14) 0.29015(15) 0.32494(11)
O10M O 1.32839(14) 0.33622(14) 0.36927(11)
Si1M Si 0.92966(6) 0.32169(6) 0.21113(5)
C1M C 0.89356(19) 0.7365(2) 0.15353(15)
C2M C 0.91430(19) 0.69374(19) 0.13506(15)
C3M C 0.9100(2) 0.6494(2) 0.15184(15)
H1M H 0.8926 0.6458 0.1738
C4M C 0.9312(2) 0.6118(2) 0.13589(17)
C5M C 0.9571(2) 0.61700(19) 0.10289(16)
H2M H 0.9719 0.5914 0.0923
C6M C 0.96079(19) 0.66056(18) 0.08575(14)
C7M C 0.93943(18) 0.69868(18) 0.10208(14)
H3M H 0.9420 0.7278 0.0908
C8M C 0.9914(2) 0.66664(19) 0.05207(14)
C17M C 1.2951(2) 0.3150(2) 0.35378(16)
C18M C 1.2484(2) 0.3226(2) 0.37078(17)
C19M C 1.2088(3) 0.3078(2) 0.35157(18)
H7M H 1.2119 0.2896 0.3300
C20M C 1.1655(2) 0.3197(3) 0.3641(2)
C21M C 1.1603(2) 0.3449(2) 0.39728(19)
H8M H 1.1307 0.3524 0.4061
C22M C 1.2429(2) 0.34919(19) 0.40323(15)
H9M H 1.2690 0.3606 0.4157
C23M C 1.1243(2) 0.3105(3) 0.34210(19)
C24M C 1.0911(3) 0.3083(2) 0.3223(2)
C25M C 1.0531(2) 0.3096(2) 0.29683(18)
C26M C 1.0606(2) 0.3056(2) 0.25758(17)
H10M H 1.0905 0.3009 0.2484
C27M C 1.0240(2) 0.3085(2) 0.23313(18)
H11M H 1.0296 0.3062 0.2073
C28M C 0.9785(2) 0.3147(2) 0.24574(19)
C29M C 0.9714(2) 0.3190(2) 0.28439(18)
H12M H 0.9415 0.3239 0.2935
C30M C 1.0078(2) 0.3161(2) 0.3095(2)
H13M H 1.0020 0.3185 0.3352
C31M C 0.8735(3) 0.3089(3) 0.2355(2)
H14M H 0.8714 0.3270 0.2582
H15M H 0.8480 0.3166 0.2191
H16M H 0.8721 0.2764 0.2417
C32M C 0.9402(3) 0.2832(2) 0.1692(2)
H17M H 0.9384 0.2512 0.1769
H18M H 0.9170 0.2893 0.1503
H19M H 0.9705 0.2894 0.1591
C33M C 0.9304(2) 0.3846(2) 0.19584(19)
C34M C 0.9271(2) 0.4195(2) 0.2225(2)
H20M H 0.9243 0.4113 0.2478
C35M C 0.9278(2) 0.4659(2) 0.2131(2)
H21M H 0.9258 0.4885 0.2318
C36M C 0.9373(3) 0.4436(3) 0.1482(2)
H22M H 0.9408 0.4516 0.1229
C37M C 0.9375(3) 0.3981(3) 0.1587(2)
H23M H 0.9427 0.3754 0.1405
C38M C 0.9287(2) 0.5660(2) 0.1526(2)
C39M C 0.9303(3) 0.5270(2) 0.1638(2)
C40M C 0.9315(2) 0.4784(2) 0.17562(19)
C41M C 1.1927(2) 0.3917(2) 0.44921(14)
C42M C 1.1991(2) 0.3587(2) 0.41707(17)
O13M O 1.43025(18) 0.36903(19) 0.38811(13)
C53M C 1.4700(4) 0.3437(4) 0.3903(3)
N1M N 1.5075(4) 0.3551(4) 0.4080(3)
C54M C 1.5503(6) 0.3294(6) 0.4102(5)
C55M C 1.510(3) 0.408(3) 0.418(2)
O14M O 1.31546(17) 0.25447(19) 0.24353(14)
C56M C 1.2843(5) 0.2763(5) 0.2266(4)
N2M N 1.2891(5) 0.2997(4) 0.1913(4)
C57M C 1.2473(6) 0.3133(6) 0.1766(5)
C58M C 1.3321(7) 0.3024(7) 0.1768(6)
Cu1C Cu 0.83706(3) 1.11174(3) 0.15537(2)
Cu1I Cu 0.88826(3) 0.83706(3) 0.84463(2)
Cu1J Cu 0.83706(3) 1.11174(3) 0.84463(2)
Cu1M_2 Cu 0.38826(3) 1.33706(3) 0.34463(2)
Cu2C Cu 0.78669(3) 1.14950(3) 0.20989(2)
Cu2I Cu 0.85050(3) 0.78669(3) 0.79011(2)
Cu2J Cu 0.78669(3) 1.14950(3) 0.79011(2)
Cu2M_2 Cu 0.35050(3) 1.28669(3) 0.29011(2)
O1_2 O 1.40076(15) 0.27371(14) 0.36370(12)
O2_2 O 1.37302(13) 0.23133(13) 0.31578(10)
O3M O 1.33350(16) 0.34747(14) 0.27035(12)
O4M O 1.36745(14) 0.39114(13) 0.31513(10)
O5I O 0.49492(15) 1.20743(13) 0.53934(10)
O6I O 0.51085(16) 1.13107(13) 0.53917(11)
O7F O 0.60330(16) 1.15182(14) 0.53860(11)
O7O O 0.60330(16) 1.15182(14) 0.46140(11)
O8F O 0.58818(15) 1.22822(15) 0.53859(11)
O8O O 0.58818(15) 1.22822(15) 0.46141(11)
O11B O 0.91109(14) 0.79465(15) 0.23570(11)
O11O O 1.41109(14) 0.29465(15) 0.26430(11)
O12B O 0.94360(14) 0.83285(17) 0.18687(12)
O12O O 1.44360(14) 0.33285(17) 0.31313(12)
Cu3C Cu 1.22502(3) 0.46046(4) 0.5000
Cu3D Cu 1.03954(4) 0.72502(3) 0.0000
Cu3G Cu 0.72502(3) 0.96046(4) 0.0000
Cu4C Cu 1.13477(3) 0.44196(4) 0.5000
Cu4D Cu 1.05804(4) 0.63477(3) 0.0000
Cu4G Cu 0.63477(3) 0.94196(4) 0.0000
H28? H 0.6068 0.8233 0.5153
H29? H 0.6594 0.8106 0.5100
H30? H 0.6276 0.8182 0.4746
H31? H 0.5721 0.9085 0.4839
H32? H 0.5999 0.9547 0.4909
H33? H 0.5821 0.9252 0.5252
loop_
_geom_bond_atom_site_label_1
_geom_bond_atom_site_label_2
_geom_bond_site_symmetry_1
_geom_bond_site_symmetry_2
Cu1 Cu2 1_555 1_555
Cu2 O3 1_555 1_555
O1 C1 1_555 1_555
O2 C1 1_555 1_555
O3 C9 1_555 1_555
O4 Cu1 1_555 1_555
O5 C8 1_555 1_555
O6 C8 1_555 1_555
O7 C41 1_555 1_555
O8 C41 1_555 1_555
O9 Cu2 1_555 1_555
O10 Cu1 1_555 1_555
O11 C52 1_555 1_555
O12 C52 1_555 1_555
Si1 C28 1_555 1_555
Si2 C45 1_555 1_555
C1 C2 1_555 1_555
C2 C3 1_555 1_555
C3 H1 1_555 1_555
C4 C3 1_555 1_555
C5 C4 1_555 1_555
H2 C5 1_555 1_555
C6 C5 1_555 1_555
C7 C2 1_555 1_555
H3 C7 1_555 1_555
C8 C6 1_555 1_555
C9 O4 1_555 1_555
C10 C9 1_555 1_555
C11 C10 1_555 1_555
H4 C11 1_555 1_555
C12 C11 1_555 1_555
C13 C12 1_555 1_555
H5 C13 1_555 1_555
C14 C13 1_555 1_555
C15 C10 1_555 1_555
H6 C15 1_555 1_555
C16 C14 1_555 1_555
C17 O9 1_555 1_555
C18 C17 1_555 1_555
C19 C18 1_555 1_555
H7 C19 1_555 1_555
C20 C19 1_555 1_555
C21 C20 1_555 1_555
H8 C21 1_555 1_555
C22 C18 1_555 1_555
H9 C22 1_555 1_555
C23 C20 1_555 1_555
C24 C23 1_555 1_555
C25 C24 1_555 1_555
C26 C25 1_555 1_555
H10 C26 1_555 1_555
C27 C26 1_555 1_555
H11 C27 1_555 1_555
C28 C27 1_555 1_555
C29 C28 1_555 1_555
H12 C29 1_555 1_555
C30 C25 1_555 1_555
H13 C30 1_555 1_555
C31 Si1 1_555 1_555
H14 C31 1_555 1_555
H15 C31 1_555 1_555
H16 C31 1_555 1_555
C32 Si1 1_555 1_555
H17 C32 1_555 1_555
H18 C32 1_555 1_555
H19 C32 1_555 1_555
C33 Si1 1_555 1_555
C34 C33 1_555 1_555
H20 C34 1_555 1_555
C35 C34 1_555 1_555
H21 C35 1_555 1_555
C36 H22 1_555 1_555
C37 C33 1_555 1_555
H23 C37 1_555 1_555
C38 C4 1_555 1_555
C39 C38 1_555 1_555
C40 C35 1_555 1_555
C41 C42 1_555 1_555
C42 C21 1_555 1_555
C43 C16 1_555 1_555
C44 C43 1_555 1_555
C45 C46 1_555 1_555
C46 H24 1_555 1_555
C47 C44 1_555 1_555
H25 C47 1_555 1_555
C48 C44 1_555 1_555
H26 C48 1_555 1_555
C49 C45 1_555 1_555
H27 C49 1_555 1_555
C50 Si2 1_555 1_555
C51 Si2 1_555 1_555
C52 C12 1_555 1_555
O13 Cu1 1_555 1_555
C53 O13 1_555 1_555
N1 C53 1_555 1_555
C54 N1 1_555 1_555
C55 N1 1_555 1_555
O14 Cu2 1_555 1_555
C56 O14 1_555 1_555
N2 C56 1_555 1_555
C57 N2 1_555 1_555
C58 N2 1_555 1_555
Cu3 O5 1_555 1_555
Cu4 O6 1_555 1_555
O15 Cu3 1_555 1_555
O16 Cu4 1_555 1_555
O3I C9I 1_555 1_555
O4I C9I 1_555 1_555
O11I C52I 1_555 1_555
O12I C52I 1_555 1_555
C9I C10I 1_555 1_555
C10I C11I 1_555 1_555
C11I H4I 1_555 1_555
C12I C11I 1_555 1_555
C13I C12I 1_555 1_555
H5I C13I 1_555 1_555
C14I C13I 1_555 1_555
C15I C10I 1_555 1_555
H6I C15I 1_555 1_555
C16I C14I 1_555 1_555
C43I C16I 1_555 1_555
C44I C43I 1_555 1_555
C45I Si2 1_555 1_555
C46I C45I 1_555 1_555
H24I C46I 1_555 1_555
C47I C44I 1_555 1_555
H25I C47I 1_555 1_555
C48I C44I 1_555 1_555
H26I C48I 1_555 1_555
C49I C45I 1_555 1_555
H27I C49I 1_555 1_555
C52I C12I 1_555 1_555
Cu1M Cu2M 1_555 1_555
Cu2M O9M 1_555 1_555
O1M Cu1 1_555 1_555
O2M Cu2 1_555 1_555
O5M C8M 1_555 1_555
O6M C8M 1_555 1_555
O7M C41M 1_555 1_555
O8M C41M 1_555 1_555
O9M C17M 1_555 1_555
O10M Cu1M 1_555 1_555
Si1M C28M 1_555 1_555
C1M O1M 1_555 1_555
C2M C1M 1_555 1_555
C3M C2M 1_555 1_555
H1M C3M 1_555 1_555
C4M C3M 1_555 1_555
C5M C4M 1_555 1_555
H2M C5M 1_555 1_555
C6M C5M 1_555 1_555
C7M C2M 1_555 1_555
H3M C7M 1_555 1_555
C8M C6M 1_555 1_555
C17M O10M 1_555 1_555
C18M C17M 1_555 1_555
C19M C18M 1_555 1_555
H7M C19M 1_555 1_555
C20M C19M 1_555 1_555
C21M C20M 1_555 1_555
H8M C21M 1_555 1_555
C22M C18M 1_555 1_555
H9M C22M 1_555 1_555
C23M C20M 1_555 1_555
C24M C23M 1_555 1_555
C25M C24M 1_555 1_555
C26M C25M 1_555 1_555
H10M C26M 1_555 1_555
C27M C26M 1_555 1_555
H11M C27M 1_555 1_555
C28M C27M 1_555 1_555
C29M C28M 1_555 1_555
H12M C29M 1_555 1_555
C30M C25M 1_555 1_555
H13M C30M 1_555 1_555
C31M Si1M 1_555 1_555
H14M C31M 1_555 1_555
H15M C31M 1_555 1_555
H16M C31M 1_555 1_555
C32M Si1M 1_555 1_555
H17M C32M 1_555 1_555
H18M C32M 1_555 1_555
H19M C32M 1_555 1_555
C33M Si1M 1_555 1_555
C34M C33M 1_555 1_555
H20M C34M 1_555 1_555
C35M C34M 1_555 1_555
H21M C35M 1_555 1_555
C36M H22M 1_555 1_555
C37M C33M 1_555 1_555
H23M C37M 1_555 1_555
C38M C4M 1_555 1_555
C39M C38M 1_555 1_555
C40M C35M 1_555 1_555
C41M C42M 1_555 1_555
C42M C21M 1_555 1_555
O13M Cu1M 1_555 1_555
C53M O13M 1_555 1_555
N1M C53M 1_555 1_555
C54M N1M 1_555 1_555
C55M N1M 1_555 1_555
O14M Cu2M 1_555 1_555
C56M O14M 1_555 1_555
N2M C56M 1_555 1_555
C57M N2M 1_555 1_555
C58M N2M 1_555 1_555
Cu1C O12 1_555 1_555
Cu1I O4I 1_555 1_555
Cu1J O12I 1_555 1_555
Cu1M_2 O1 1_555 1_555
Cu2C O11 1_555 1_555
Cu2I O3I 1_555 1_555
Cu2J O11I 1_555 1_555
Cu2M_2 O2 1_555 1_555
O1_2 Cu1M 1_555 1_555
O2_2 Cu2M 1_555 1_555
O3M Cu2M 1_555 1_555
O4M Cu1M 1_555 1_555
O5I Cu3 1_555 1_555
O6I Cu4 1_555 1_555
O7F Cu4 1_555 1_555
O7O Cu4 1_555 1_555
O8F Cu3 1_555 1_555
O8O Cu3 1_555 1_555
O11B Cu2 1_555 1_555
O11O Cu2M 1_555 1_555
O12B Cu1 1_555 1_555
O12O Cu1M 1_555 1_555
Cu3C O8M 1_555 1_555
Cu3D O5M 1_555 1_555
Cu3G O8 1_555 1_555
Cu4C O7M 1_555 1_555
Cu4D O6M 1_555 1_555
Cu4G O7 1_555 1_555
O10 C17 1_555 1_555
C6 C7 1_555 1_555
C14 C15 1_555 1_555
C22 C42 1_555 1_555
C29 C30 1_555 1_555
C36 C37 1_555 1_555
C36 C40 1_555 1_555
C39 C40 1_555 1_555
C46 C47 1_555 1_555
C48 C49 1_555 1_555
Cu3 Cu4 1_555 1_555
C14I C15I 1_555 1_555
C46I C47I 1_555 1_555
C48I C49I 1_555 1_555
O2M C1M 1_555 1_555
C6M C7M 1_555 1_555
C22M C42M 1_555 1_555
C29M C30M 1_555 1_555
C36M C37M 1_555 1_555
C36M C40M 1_555 1_555
C39M C40M 1_555 1_555
Cu1C Cu2C 1_555 1_555
Cu1I Cu2I 1_555 1_555
Cu1J Cu2J 1_555 1_555
Cu1M_2 Cu2M_2 1_555 1_555
Cu3C Cu4C 1_555 1_555
Cu3D Cu4D 1_555 1_555
Cu3G Cu4G 1_555 1_555

#END
