
#######################################################################
#
#                 Cambridge Crystallographic Data Centre
#                                CCDC 
#
#######################################################################
#
# If this CIF has been generated from an entry in the Cambridge 
# Structural Database, then it will include bibliographic, chemical, 
# crystal, experimental, refinement or atomic coordinate data resulting 
# from the CCDC's data processing and validation procedures.
#
#######################################################################

data_QOMCUS
_chemical_formula_moiety         
'(C22 H16 N4 O5 Pb1)n,0.6n(C3 H7 N1 O1),1.5n(H2 O1)'
_chemical_name_systematic        
"catena-((\m~3~-4,4'-(Quinoxaline-2,3-diyldi-imino)dibenzoato)-aqua-lead dimethylformamide solvate sesquihydrate)"
_symmetry_cell_setting           monoclinic
_symmetry_space_group_name_H-M   'P 21/n'
_symmetry_Int_Tables_number      14
_space_group_name_Hall           '-P 2yn'
loop_
_symmetry_equiv_pos_site_id
_symmetry_equiv_pos_as_xyz
1 x,y,z
2 1/2-x,1/2+y,1/2-z
3 -x,-y,-z
4 1/2+x,1/2-y,1/2+z
_cell_length_a                   20.976(4)
_cell_length_b                   4.9944(10)
_cell_length_c                   23.082(5)
_cell_angle_alpha                90
_cell_angle_beta                 96.07(3)
_cell_angle_gamma                90
_cell_volume                     2404.57
_exptl_crystal_colour            yellow
_exptl_crystal_description       prism
_cell_formula_units_Z            4
loop_
_atom_site_label
_atom_site_type_symbol
_atom_site_fract_x
_atom_site_fract_y
_atom_site_fract_z
Pb1 Pb 0.8043(3) 1.5250(19) 1.2068(4)
C1 C 0.8713(9) 0.018(3) 0.8299(8)
H1 H 0.9139 0.0543 0.8254
C2 C 0.7421(6) -0.079(3) 0.8378(6)
C3 C 0.7251(6) 0.911(3) 1.0842(5)
C4 C 0.7507(6) 1.110(2) 1.1297(5)
C5 C 0.6805(6) 0.537(2) 0.9990(6)
C6 C 0.6535(6) 0.573(3) 1.0525(6)
H2 H 0.6188 0.4663 1.0594
C7 C 0.6849(6) 0.224(2) 0.9171(5)
C8 C 0.7524(7) 0.897(3) 1.0312(6)
H3 H 0.7853 1.0131 1.0241
C9 C 0.6746(6) 0.748(3) 1.0928(5)
H4 H 0.6551 0.7606 1.1271
C10 C 0.6512(6) 0.029(2) 0.8777(6)
C11 C 0.7305(6) 0.713(2) 0.9903(5)
H5 H 0.7493 0.7036 0.9557
C12 C 0.7762(6) 0.128(2) 0.8736(5)
C13 C 0.5405(5) -0.172(3) 0.8483(5)
C14 C 0.7741(7) -0.233(3) 0.8026(5)
H6 H 0.7527 -0.3681 0.7808
C15 C 0.8403(7) -0.188(3) 0.7989(6)
H7 H 0.8628 -0.2967 0.7755
C16 C 0.8396(6) 0.170(3) 0.8678(6)
H8 H 0.8618 0.3028 0.8898
C17 C 0.5573(6) -0.368(3) 0.8123(5)
H9 H 0.6004 -0.3986 0.8082
N1 N 0.6790(5) -0.116(2) 0.8420(4)
N2 N 0.7449(5) 0.272(2) 0.9121(4)
N3 N 0.5835(5) 0.0068(17) 0.8800(5)
H10 H 0.5670 0.1143 0.9034
N4 N 0.6536(4) 0.357(2) 0.9594(4)
H11 H 0.6136 0.3209 0.9605
C18 C 0.4465(7) -0.485(2) 0.7878(6)
C19 C 0.4760(6) -0.130(3) 0.8558(5)
H12 H 0.4642 0.0039 0.8805
C20 C 0.5106(7) -0.522(2) 0.7817(7)
H13 H 0.5226 -0.6541 0.7566
C21 C 0.4305(5) -0.289(3) 0.8259(5)
H14 H 0.3877 -0.2647 0.8316
O1 O 0.8014(4) 1.2557(18) 1.1204(3)
O2 O 0.7251(4) 1.1374(18) 1.1761(3)
C22 C 0.3963(6) -0.659(3) 0.7576(5)
O3 O 0.3385(4) -0.625(2) 0.7635(4)
O4 O 0.4132(4) -0.8408(19) 0.7212(4)
O5 O 0.8814(7) 1.775(3) 1.1372(6)
Pb1A Pb 0.6957(3) 1.0250(19) 1.2932(4)
Pb1C Pb 0.3043(3) -1.0250(19) 0.7068(4)
O2A O 0.7749(4) 1.6374(18) 1.3239(3)
O3C O 0.8385(4) 1.125(2) 1.2635(4)
O4C O 0.9132(4) 1.3408(19) 1.2212(4)
Pb2? Pb 0.8047(2) 1.5127(18) 1.2042(4)
loop_
_geom_bond_atom_site_label_1
_geom_bond_atom_site_label_2
_geom_bond_site_symmetry_1
_geom_bond_site_symmetry_2
Pb1 O1 1_555 1_555
C1 H1 1_555 1_555
C2 C12 1_555 1_555
C3 C4 1_555 1_555
C4 O1 1_555 1_555
C5 C6 1_555 1_555
C6 H2 1_555 1_555
C7 C10 1_555 1_555
C8 C3 1_555 1_555
H3 C8 1_555 1_555
C9 C3 1_555 1_555
H4 C9 1_555 1_555
C10 N1 1_555 1_555
C11 C5 1_555 1_555
H5 C11 1_555 1_555
C12 C16 1_555 1_555
C13 C17 1_555 1_555
C14 C2 1_555 1_555
H6 C14 1_555 1_555
C15 C1 1_555 1_555
H7 C15 1_555 1_555
C16 C1 1_555 1_555
H8 C16 1_555 1_555
C17 H9 1_555 1_555
N1 C2 1_555 1_555
N2 C7 1_555 1_555
N3 C10 1_555 1_555
H10 N3 1_555 1_555
N4 C5 1_555 1_555
H11 N4 1_555 1_555
C18 C20 1_555 1_555
C19 C13 1_555 1_555
H12 C19 1_555 1_555
C20 C17 1_555 1_555
H13 C20 1_555 1_555
C21 C18 1_555 1_555
H14 C21 1_555 1_555
O2 Pb1 1_555 1_555
C22 C18 1_555 1_555
O3 C22 1_555 1_555
O4 C22 1_555 1_555
O5 Pb1 1_555 1_555
Pb1A O2 1_555 1_555
Pb1C O3 1_555 1_555
O2A Pb1 1_555 1_555
O3C Pb1 1_555 1_555
O4C Pb1 1_555 1_555
C4 O2 1_555 1_555
C6 C9 1_555 1_555
C7 N4 1_555 1_555
C8 C11 1_555 1_555
C12 N2 1_555 1_555
C13 N3 1_555 1_555
C14 C15 1_555 1_555
C19 C21 1_555 1_555
O4 Pb1C 1_555 1_555

#END
