
#######################################################################
#
#                 Cambridge Crystallographic Data Centre
#                                CCDC 
#
#######################################################################
#
# If this CIF has been generated from an entry in the Cambridge 
# Structural Database, then it will include bibliographic, chemical, 
# crystal, experimental, refinement or atomic coordinate data resulting 
# from the CCDC's data processing and validation procedures.
#
#######################################################################

data_QOMDAZ
_chemical_formula_moiety         
'(C22 H20 Cu2 N4 O7)n,0.5n(C3 H7 N1 O1),5n(H2 O1)'
_chemical_name_systematic        
"catena-[(\m~5~-4,4'-(1,4-Dihydroquinoxaline-2,3-diylidenediazanylylidene)dibenzoato)-tri-aqua-di-copper N,N-dimethylformamide solvate pentahydrate]"
_symmetry_cell_setting           monoclinic
_symmetry_space_group_name_H-M   'C 2/c'
_symmetry_Int_Tables_number      15
_space_group_name_Hall           '-C 2yc'
loop_
_symmetry_equiv_pos_site_id
_symmetry_equiv_pos_as_xyz
1 x,y,z
2 -x,y,1/2-z
3 1/2+x,1/2+y,z
4 1/2-x,1/2+y,1/2-z
5 -x,-y,-z
6 x,-y,1/2+z
7 1/2-x,1/2-y,-z
8 1/2+x,1/2-y,1/2+z
_cell_length_a                   18.889(4)
_cell_length_b                   24.870(5)
_cell_length_c                   6.5249(13)
_cell_angle_alpha                90
_cell_angle_beta                 110.21(3)
_cell_angle_gamma                90
_cell_volume                     2876.48
_exptl_crystal_colour            green
_exptl_crystal_description       prism
_cell_formula_units_Z            4
loop_
_atom_site_label
_atom_site_type_symbol
_atom_site_fract_x
_atom_site_fract_y
_atom_site_fract_z
O4 O 0.2722(4) 0.0482(4) 0.394(2)
Cu1 Cu 0.0000 0.19607(17) -0.2500
O1 O 0.0812(4) 0.2215(3) 0.3944(19)
O2 O 0.0875(5) 0.2273(4) 0.0693(15)
C1 C 0.1168(6) 0.2134(6) 0.2660(15)
N1 N 0.4276(3) 0.16488(19) 0.6533(9)
C2 C 0.1966(3) 0.1930(2) 0.3399(11)
C3 C 0.2456(4) 0.1925(3) 0.2190(11)
H1 H 0.2269 0.1989 0.0693
C4 C 0.3209(4) 0.1828(3) 0.3231(10)
H2 H 0.3538 0.1841 0.2452
C5 C 0.3483(3) 0.1708(2) 0.5460(9)
C6 C 0.2992(3) 0.1692(3) 0.6584(9)
H3 H 0.3170 0.1604 0.8059
C7 C 0.2244(3) 0.1805(2) 0.5572(10)
H4 H 0.1920 0.1797 0.6370
C8 C 0.4587(3) 0.1180(2) 0.6945(8)
N2 N 0.4230(2) 0.07018(16) 0.6449(6)
H5 H 0.3749 0.0698 0.5795
C9 C 0.4616(3) 0.0209(2) 0.6964(7)
C10 C 0.4220(3) -0.0273(2) 0.6408(8)
H6 H 0.3701 -0.0273 0.5682
C11 C 0.4620(3) -0.0757(2) 0.6966(8)
H7 H 0.4363 -0.1082 0.6603
O3 O 0.0000 0.28862(19) -0.2500
Cu2 Cu 0.00102(8) 0.27481(5) 0.3118(2)
O1A O 0.9188(4) 0.2215(3) 1.1056(19)
O2A O 0.9125(5) 0.2273(4) 1.4307(15)
C1A C 0.8832(6) 0.2134(6) 1.2340(15)
N1A N 0.5724(3) 0.16488(19) 0.8467(9)
C2A C 0.8034(3) 0.1930(2) 1.1601(11)
C3A C 0.7544(4) 0.1925(3) 1.2810(11)
H1A H 0.7731 0.1989 1.4307
C4A C 0.6791(4) 0.1828(3) 1.1769(10)
H2A H 0.6462 0.1841 1.2548
C5A C 0.6517(3) 0.1708(2) 0.9540(9)
C6A C 0.7008(3) 0.1692(3) 0.8416(9)
H3A H 0.6830 0.1604 0.6941
C7A C 0.7756(3) 0.1805(2) 0.9428(10)
H4A H 0.8080 0.1797 0.8630
C8A C 0.5413(3) 0.1180(2) 0.8055(8)
N2A N 0.5770(2) 0.07018(16) 0.8551(6)
H5A H 0.6251 0.0698 0.9205
C9A C 0.5384(3) 0.0209(2) 0.8036(7)
C10A C 0.5780(3) -0.0273(2) 0.8592(8)
H6A H 0.6299 -0.0273 0.9318
C11A C 0.5380(3) -0.0757(2) 0.8034(8)
H7A H 0.5637 -0.1082 0.8397
Cu2A Cu -0.00102(8) 0.27481(5) 0.1882(2)
Cu1_2 Cu 1.0000 0.19607(17) 1.7500
O1A_2 O -0.0812(4) 0.2215(3) 0.1056(19)
O2A_2 O -0.0875(5) 0.2273(4) -0.5693(15)
O2A_3 O -0.0875(5) 0.2273(4) 0.4307(15)
N1F N 0.0724(3) 0.33512(19) 0.3467(9)
N1G N -0.0724(3) 0.33512(19) 0.1533(9)
Cu2_2 Cu 1.00102(8) 0.27481(5) 1.3118(2)
Cu2A_2 Cu 0.99898(8) 0.27481(5) 1.1882(2)
Cu2F Cu 0.49898(8) 0.22519(5) 0.6882(2)
Cu2G Cu 0.50102(8) 0.22519(5) 0.8118(2)
O5? O 0.0809(7) 0.2209(5) 0.273(2)
O6? O 0.1037(8) 0.1984(6) -0.0322(19)
C12? C 0.1216(8) 0.2047(8) 0.1704(17)
O7? O 0.0523(12) 0.1348(8) -0.395(5)
loop_
_geom_bond_atom_site_label_1
_geom_bond_atom_site_label_2
_geom_bond_site_symmetry_1
_geom_bond_site_symmetry_2
Cu1 O2 1_555 1_555
O1 C1 1_555 1_555
O2 C1 1_555 1_555
C1 C2 1_555 1_555
N1 C5 1_555 1_555
C2 C3 1_555 1_555
C3 H1 1_555 1_555
C4 C3 1_555 1_555
H2 C4 1_555 1_555
C5 C4 1_555 1_555
C6 C5 1_555 1_555
H3 C6 1_555 1_555
C7 C2 1_555 1_555
H4 C7 1_555 1_555
C8 N1 1_555 1_555
N2 C8 1_555 1_555
H5 N2 1_555 1_555
C9 N2 1_555 1_555
C10 C9 1_555 1_555
H6 C10 1_555 1_555
C11 C10 1_555 1_555
H7 C11 1_555 1_555
O3 Cu1 1_555 1_555
Cu2 O1 1_555 1_555
O1A C1A 1_555 1_555
O2A C1A 1_555 1_555
C1A C2A 1_555 1_555
N1A C5A 1_555 1_555
C2A C3A 1_555 1_555
C3A H1A 1_555 1_555
C4A C3A 1_555 1_555
H2A C4A 1_555 1_555
C5A C4A 1_555 1_555
C6A C5A 1_555 1_555
H3A C6A 1_555 1_555
C7A C2A 1_555 1_555
H4A C7A 1_555 1_555
C8A C8 1_555 1_555
N2A C8A 1_555 1_555
H5A N2A 1_555 1_555
C9A C9 1_555 1_555
C10A C9A 1_555 1_555
H6A C10A 1_555 1_555
C11A C11 1_555 1_555
H7A C11A 1_555 1_555
Cu2A O1 1_555 1_555
Cu1_2 O2A 1_555 1_555
O1A_2 Cu2 1_555 1_555
O2A_2 Cu1 1_555 1_555
O2A_3 Cu2 1_555 1_555
N1F Cu2 1_555 1_555
N1G Cu2 1_555 1_555
Cu2_2 O1A 1_555 1_555
Cu2A_2 O1A 1_555 1_555
Cu2F N1 1_555 1_555
Cu2G N1 1_555 1_555
O2 Cu2A 1_555 1_555
C6 C7 1_555 1_555
Cu2 Cu2A 1_555 1_555
O2A Cu2_2 1_555 1_555
N1A C8A 1_555 1_555
N1A Cu2F 1_555 1_555
N1A Cu2G 1_555 1_555
C6A C7A 1_555 1_555
N2A C9A 1_555 1_555
C10A C11A 1_555 1_555
Cu2A O1A_2 1_555 1_555
Cu2A N1F 1_555 1_555
Cu2A N1G 1_555 1_555
Cu2_2 Cu2A_2 1_555 1_555
Cu2F Cu2G 1_555 1_555

#END
