
#######################################################################
#
#                 Cambridge Crystallographic Data Centre
#                                CCDC 
#
#######################################################################
#
# If this CIF has been generated from an entry in the Cambridge 
# Structural Database, then it will include bibliographic, chemical, 
# crystal, experimental, refinement or atomic coordinate data resulting 
# from the CCDC's data processing and validation procedures.
#
#######################################################################

data_GIYJAB
_chemical_formula_moiety         '(C76 H60 Co4 N8 O16)n'
_chemical_name_systematic        
"catena-[tetrakis(\m~4~-3,3',5,5'-tetramethyl-1H,1'H-4,4'-bipyrazole)-bis(\m~2~-biphenyl-4,4'-dicarboxylato)-tetra-cobalt unknown solvate]"
_symmetry_cell_setting           monoclinic
_symmetry_space_group_name_H-M   'P 2/c'
_symmetry_Int_Tables_number      13
_space_group_name_Hall           '-P 2yc'
loop_
_symmetry_equiv_pos_site_id
_symmetry_equiv_pos_as_xyz
1 x,y,z
2 -x,y,1/2-z
3 -x,-y,-z
4 x,-y,1/2+z
_cell_length_a                   20.710(7)
_cell_length_b                   15.286(5)
_cell_length_c                   17.893(5)
_cell_angle_alpha                90
_cell_angle_beta                 102.560(5)
_cell_angle_gamma                90
_cell_volume                     5528.88
_exptl_crystal_colour            purple
_exptl_crystal_description       block
_cell_formula_units_Z            2
loop_
_atom_site_label
_atom_site_type_symbol
_atom_site_fract_x
_atom_site_fract_y
_atom_site_fract_z
Co1 Co 0.05324(3) 0.41881(4) 0.31755(3)
Co2 Co 0.44743(3) 0.31008(4) 0.68139(4)
N1 N 0.15483(17) 0.4179(3) 0.3536(2)
N2 N 0.1961(2) 0.4518(3) 0.3120(2)
H1 H 0.1833 0.4824 0.2711
N3 N 0.3890(2) 0.3125(3) 0.5730(2)
N4 N 0.4081(2) 0.2667(3) 0.5135(2)
H2 H 0.4420 0.2331 0.5180
O1 O 0.06812(17) 0.4163(2) 0.20013(18)
O2 O -0.00760(16) 0.4164(2) 0.09075(19)
O3 O 0.4695(2) 0.3090(3) -0.1370(2)
O4 O 0.3875(2) 0.3092(3) -0.2428(2)
O5 O 0.04331(16) 0.5490(2) 0.30121(18)
O6 O 0.04008(17) 1.2870(2) 0.30349(19)
O7 O 0.4595(2) 0.4420(2) 0.6970(2)
O8 O 0.4603(2) 1.1784(2) 0.6962(2)
C1 C 0.0518(3) 0.4108(3) 0.1276(3)
C2 C 0.1067(2) 0.3963(3) 0.0850(3)
C3 C 0.1655(3) 0.3615(4) 0.1217(3)
H3 H 0.1716 0.3476 0.1734
C4 C 0.2173(3) 0.3460(5) 0.0843(3)
H4 H 0.2571 0.3228 0.1113
C5 C 0.2091(2) 0.3655(4) 0.0058(3)
C6 C 0.1478(2) 0.4032(4) -0.0302(3)
H5 H 0.1410 0.4189 -0.0815
C7 C 0.0982(2) 0.4172(3) 0.0078(3)
H6 H 0.0583 0.4411 -0.0182
C8 C 0.2596(2) 0.3477(4) -0.0382(3)
C9 C 0.3272(3) 0.3519(5) -0.0050(3)
H7 H 0.3403 0.3636 0.0471
C10 C 0.3753(2) 0.3394(4) -0.0469(3)
H8 H 0.4196 0.3437 -0.0226
C11 C 0.3586(2) 0.3205(4) -0.1242(3)
C12 C 0.2906(2) 0.3149(5) -0.1555(3)
H9 H 0.2771 0.3031 -0.2075
C13 C 0.2429(3) 0.3256(5) -0.1145(3)
H10 H 0.1987 0.3179 -0.1383
C14 C 0.4098(3) 0.3133(4) -0.1704(3)
C15 C 0.0000 0.5890(5) 0.2500
C16 C 0.0000 0.6864(5) 0.2500
C17 C 0.0517(3) 0.7310(3) 0.2951(4)
H11 H 0.0859 0.7001 0.3261
C18 C 0.0533(3) 0.8226(4) 0.2950(4)
H12 H 0.0895 0.8517 0.3244
C19 C 0.0000 0.8719(5) 0.2500
C20 C 0.0000 0.9683(5) 0.2500
C21 C 0.0380(4) 1.0157(4) 0.3099(4)
H13 H 0.0659 0.9862 0.3497
C22 C 0.0351(4) 1.1075(4) 0.3114(4)
H14 H 0.0573 1.1380 0.3543
C23 C 0.0000 1.1514(5) 0.2500
C24 C 0.0000 1.2497(5) 0.2500
C25 C 0.1636(2) 0.3262(4) 0.4684(3)
H15 H 0.1165 0.3338 0.4553
H16 H 0.1808 0.3492 0.5187
H17 H 0.1740 0.2651 0.4675
C26 C 0.1940(2) 0.3736(3) 0.4118(3)
C27 C 0.2611(2) 0.3814(3) 0.4060(3)
C28 C 0.2617(3) 0.4315(4) 0.3433(3)
C29 C 0.3140(3) 0.4617(5) 0.3062(4)
H18 H 0.2949 0.4962 0.2621
H19 H 0.3363 0.4121 0.2907
H20 H 0.3450 0.4966 0.3416
C30 C 0.3053(3) 0.4200(4) 0.5896(3)
H21 H 0.3300 0.4190 0.6417
H22 H 0.2609 0.4005 0.5877
H23 H 0.3044 0.4786 0.5701
C31 C 0.3378(2) 0.3602(3) 0.5415(3)
C32 C 0.3172(2) 0.3431(4) 0.4612(3)
C33 C 0.3617(3) 0.2856(4) 0.4449(3)
C34 C 0.3670(5) 0.2349(7) 0.3734(4)
H24 H 0.3332 0.2544 0.3310
H25 H 0.3613 0.1736 0.3817
H26 H 0.4097 0.2447 0.3622
C35 C 0.5000 0.4785(4) 0.7500
C36 C 0.5000 0.5773(5) 0.7500
C37 C 0.5373(4) 0.6240(3) 0.8101(3)
H27 H 0.5633 0.5940 0.8510
C38 C 0.5368(3) 0.7144(4) 0.8109(3)
H28 H 0.5616 0.7440 0.8529
C39 C 0.5000 0.7619(4) 0.7500
C40 C 0.5000 0.8584(4) 0.7500
C41 C 0.5507(5) 0.9043(5) 0.7951(5)
H29 H 0.5870 0.8750 0.8240
C42 C 0.5472(5) 0.9959(5) 0.7973(5)
H30 H 0.5789 1.0258 0.8330
C43 C 0.5000 1.0425(5) 0.7500
C44 C 0.5000 1.1415(5) 0.7500
O5A O -0.04331(16) 0.5490(2) 0.19879(18)
O6A O -0.04008(17) 1.2870(2) 0.19651(19)
C17A C -0.0517(3) 0.7310(3) 0.2049(4)
H11A H -0.0859 0.7001 0.1739
C18A C -0.0533(3) 0.8226(4) 0.2050(4)
H12A H -0.0895 0.8517 0.1756
C21A C -0.0380(4) 1.0157(4) 0.1901(4)
H13A H -0.0659 0.9862 0.1503
C22A C -0.0351(4) 1.1075(4) 0.1886(4)
H14A H -0.0573 1.1380 0.1457
O7A O 0.5405(2) 0.4420(2) 0.8030(2)
O8A O 0.5397(2) 1.1784(2) 0.8038(2)
C37A C 0.4627(4) 0.6240(3) 0.6899(3)
H27A H 0.4367 0.5940 0.6490
C38A C 0.4632(3) 0.7144(4) 0.6891(3)
H28A H 0.4384 0.7440 0.6471
C41A C 0.4493(5) 0.9043(5) 0.7049(5)
H29A H 0.4130 0.8750 0.6760
C42A C 0.4528(5) 0.9959(5) 0.7027(5)
H30A H 0.4211 1.0258 0.6670
Co1A Co -0.05324(3) 0.41881(4) 0.18245(3)
Co2A Co -0.44743(3) 0.31008(4) -0.18139(4)
N1A N -0.15483(17) 0.4179(3) 0.1464(2)
N2A N -0.1961(2) 0.4518(3) 0.1880(2)
H1A H -0.1833 0.4824 0.2289
N3A N -0.3890(2) 0.3125(3) -0.0730(2)
N4A N -0.4081(2) 0.2667(3) -0.0135(2)
H2A H -0.4420 0.2331 -0.0180
O1A O -0.06812(17) 0.4163(2) 0.29987(18)
O2A O 0.00760(16) 0.4164(2) 0.40925(19)
O3A O -0.4695(2) 0.3090(3) 0.6370(2)
O4A O -0.3875(2) 0.3092(3) 0.7428(2)
C1A C -0.0518(3) 0.4108(3) 0.3724(3)
C2A C -0.1067(2) 0.3963(3) 0.4150(3)
C3A C -0.1655(3) 0.3615(4) 0.3783(3)
H3A H -0.1716 0.3476 0.3266
C4A C -0.2173(3) 0.3460(5) 0.4157(3)
H4A H -0.2571 0.3228 0.3887
C5A C -0.2091(2) 0.3655(4) 0.4942(3)
C6A C -0.1478(2) 0.4032(4) 0.5302(3)
H5A H -0.1410 0.4189 0.5815
C7A C -0.0982(2) 0.4172(3) 0.4922(3)
H6A H -0.0583 0.4411 0.5182
C8A C -0.2596(2) 0.3477(4) 0.5382(3)
C9A C -0.3272(3) 0.3519(5) 0.5050(3)
H7A H -0.3403 0.3636 0.4529
C10A C -0.3753(2) 0.3394(4) 0.5469(3)
H8A H -0.4196 0.3437 0.5226
C11A C -0.3586(2) 0.3205(4) 0.6242(3)
C12A C -0.2906(2) 0.3149(5) 0.6555(3)
H9A H -0.2771 0.3031 0.7075
C13A C -0.2429(3) 0.3256(5) 0.6145(3)
H10A H -0.1987 0.3179 0.6383
C14A C -0.4098(3) 0.3133(4) 0.6704(3)
C25A C -0.1636(2) 0.3262(4) 0.0316(3)
H15A H -0.1165 0.3338 0.0447
H16A H -0.1808 0.3492 -0.0187
H17A H -0.1740 0.2651 0.0325
C26A C -0.1940(2) 0.3736(3) 0.0882(3)
C27A C -0.2611(2) 0.3814(3) 0.0940(3)
C28A C -0.2617(3) 0.4315(4) 0.1567(3)
C29A C -0.3140(3) 0.4617(5) 0.1938(4)
H18A H -0.2949 0.4962 0.2379
H19A H -0.3363 0.4121 0.2093
H20A H -0.3450 0.4966 0.1584
C30A C -0.3053(3) 0.4200(4) -0.0896(3)
H21A H -0.3300 0.4190 -0.1417
H22A H -0.2609 0.4005 -0.0877
H23A H -0.3044 0.4786 -0.0701
C31A C -0.3378(2) 0.3602(3) -0.0415(3)
C32A C -0.3172(2) 0.3431(4) 0.0388(3)
C33A C -0.3617(3) 0.2856(4) 0.0551(3)
C34A C -0.3670(5) 0.2349(7) 0.1266(4)
H24A H -0.3332 0.2544 0.1690
H25A H -0.3613 0.1736 0.1183
H26A H -0.4097 0.2447 0.1378
Co1_2 Co 0.05324(3) 1.41881(4) 0.31755(3)
Co1A_2 Co -0.05324(3) 1.41881(4) 0.18245(3)
Co2_2 Co -0.55257(3) 0.31008(4) -0.31861(4)
Co2_3 Co -0.55257(3) 0.31008(4) 0.68139(4)
Co2_4 Co 0.44743(3) 0.31008(4) -0.31861(4)
Co2_5 Co 0.44743(3) 1.31008(4) 0.68139(4)
Co2A_2 Co -0.44743(3) 0.31008(4) 0.81861(4)
Co2A_3 Co 0.55257(3) 0.31008(4) -0.18139(4)
Co2A_4 Co 0.55257(3) 0.31008(4) 0.81861(4)
Co2A_5 Co 0.55257(3) 1.31008(4) 0.81861(4)
O3_2 O -0.5305(2) 0.3090(3) -0.1370(2)
O3A_2 O 0.5305(2) 0.3090(3) 0.6370(2)
O4_2 O 0.3875(2) 0.3092(3) 0.7572(2)
O4A_2 O -0.3875(2) 0.3092(3) -0.2572(2)
O6_2 O 0.04008(17) 0.2870(2) 0.30349(19)
O6A_2 O -0.04008(17) 0.2870(2) 0.19651(19)
O7A_2 O -0.4595(2) 0.4420(2) -0.1970(2)
O8_2 O 0.4603(2) 0.1784(2) 0.6962(2)
O8A_2 O -0.4603(2) 0.1784(2) -0.1962(2)
loop_
_geom_bond_atom_site_label_1
_geom_bond_atom_site_label_2
_geom_bond_site_symmetry_1
_geom_bond_site_symmetry_2
Co1 N1 1_555 1_555
Co2 N3 1_555 1_555
N1 N2 1_555 1_555
N2 H1 1_555 1_555
N3 N4 1_555 1_555
N4 H2 1_555 1_555
O1 Co1 1_555 1_555
O2 C1 1_555 1_555
O3 C14 1_555 1_555
O4 C14 1_555 1_555
O5 Co1 1_555 1_555
O6 C24 1_555 1_555
O7 Co2 1_555 1_555
O8 C44 1_555 1_555
C1 O1 1_555 1_555
C2 C1 1_555 1_555
C3 C2 1_555 1_555
H3 C3 1_555 1_555
C4 C3 1_555 1_555
H4 C4 1_555 1_555
C5 C4 1_555 1_555
C6 C5 1_555 1_555
H5 C6 1_555 1_555
C7 C2 1_555 1_555
H6 C7 1_555 1_555
C8 C5 1_555 1_555
C9 C8 1_555 1_555
H7 C9 1_555 1_555
C10 C9 1_555 1_555
H8 C10 1_555 1_555
C11 C10 1_555 1_555
C12 C11 1_555 1_555
H9 C12 1_555 1_555
C13 C8 1_555 1_555
H10 C13 1_555 1_555
C14 C11 1_555 1_555
C15 O5 1_555 1_555
C16 C15 1_555 1_555
C17 C16 1_555 1_555
H11 C17 1_555 1_555
C18 C17 1_555 1_555
H12 C18 1_555 1_555
C19 C18 1_555 1_555
C20 C19 1_555 1_555
C21 C20 1_555 1_555
H13 C21 1_555 1_555
C22 C21 1_555 1_555
H14 C22 1_555 1_555
C23 C22 1_555 1_555
C24 C23 1_555 1_555
C25 H15 1_555 1_555
H16 C25 1_555 1_555
H17 C25 1_555 1_555
C26 N1 1_555 1_555
C27 C26 1_555 1_555
C28 N2 1_555 1_555
C29 C28 1_555 1_555
H18 C29 1_555 1_555
H19 C29 1_555 1_555
H20 C29 1_555 1_555
C30 H21 1_555 1_555
H22 C30 1_555 1_555
H23 C30 1_555 1_555
C31 N3 1_555 1_555
C32 C27 1_555 1_555
C33 N4 1_555 1_555
C34 C33 1_555 1_555
H24 C34 1_555 1_555
H25 C34 1_555 1_555
H26 C34 1_555 1_555
C35 O7 1_555 1_555
C36 C35 1_555 1_555
C37 C36 1_555 1_555
H27 C37 1_555 1_555
C38 C37 1_555 1_555
H28 C38 1_555 1_555
C39 C38 1_555 1_555
C40 C39 1_555 1_555
C41 C40 1_555 1_555
H29 C41 1_555 1_555
C42 C41 1_555 1_555
H30 C42 1_555 1_555
C43 C42 1_555 1_555
C44 C43 1_555 1_555
O5A C15 1_555 1_555
O6A C24 1_555 1_555
C17A C16 1_555 1_555
H11A C17A 1_555 1_555
C18A C19 1_555 1_555
H12A C18A 1_555 1_555
C21A C20 1_555 1_555
H13A C21A 1_555 1_555
C22A C23 1_555 1_555
H14A C22A 1_555 1_555
O7A C35 1_555 1_555
O8A C44 1_555 1_555
C37A C36 1_555 1_555
H27A C37A 1_555 1_555
C38A C39 1_555 1_555
H28A C38A 1_555 1_555
C41A C40 1_555 1_555
H29A C41A 1_555 1_555
C42A C43 1_555 1_555
H30A C42A 1_555 1_555
Co1A Co1 1_555 1_555
Co2A N3A 1_555 1_555
N1A Co1A 1_555 1_555
N2A N1A 1_555 1_555
H1A N2A 1_555 1_555
N3A N4A 1_555 1_555
N4A H2A 1_555 1_555
O1A Co1A 1_555 1_555
O2A Co1 1_555 1_555
O3A C14A 1_555 1_555
O4A C14A 1_555 1_555
C1A O1A 1_555 1_555
C2A C1A 1_555 1_555
C3A C2A 1_555 1_555
H3A C3A 1_555 1_555
C4A C3A 1_555 1_555
H4A C4A 1_555 1_555
C5A C4A 1_555 1_555
C6A C5A 1_555 1_555
H5A C6A 1_555 1_555
C7A C2A 1_555 1_555
H6A C7A 1_555 1_555
C8A C5A 1_555 1_555
C9A C8A 1_555 1_555
H7A C9A 1_555 1_555
C10A C9A 1_555 1_555
H8A C10A 1_555 1_555
C11A C10A 1_555 1_555
C12A C11A 1_555 1_555
H9A C12A 1_555 1_555
C13A C8A 1_555 1_555
H10A C13A 1_555 1_555
C14A C11A 1_555 1_555
C25A H15A 1_555 1_555
H16A C25A 1_555 1_555
H17A C25A 1_555 1_555
C26A N1A 1_555 1_555
C27A C26A 1_555 1_555
C28A N2A 1_555 1_555
C29A C28A 1_555 1_555
H18A C29A 1_555 1_555
H19A C29A 1_555 1_555
H20A C29A 1_555 1_555
C30A H21A 1_555 1_555
H22A C30A 1_555 1_555
H23A C30A 1_555 1_555
C31A N3A 1_555 1_555
C32A C27A 1_555 1_555
C33A N4A 1_555 1_555
C34A C33A 1_555 1_555
H24A C34A 1_555 1_555
H25A C34A 1_555 1_555
H26A C34A 1_555 1_555
Co1_2 O6 1_555 1_555
Co1A_2 O6A 1_555 1_555
Co2_2 Co2A 1_555 1_555
Co2_3 O3A 1_555 1_555
Co2_4 O4 1_555 1_555
Co2_5 O8 1_555 1_555
Co2A_2 O4A 1_555 1_555
Co2A_3 O3 1_555 1_555
Co2A_4 Co2 1_555 1_555
Co2A_5 O8A 1_555 1_555
O3_2 Co2A 1_555 1_555
O3A_2 Co2 1_555 1_555
O4_2 Co2 1_555 1_555
O4A_2 Co2A 1_555 1_555
O6_2 Co1 1_555 1_555
O6A_2 Co1A 1_555 1_555
O7A_2 Co2A 1_555 1_555
O8_2 Co2 1_555 1_555
O8A_2 Co2A 1_555 1_555
O2 Co1A 1_555 1_555
C6 C7 1_555 1_555
C12 C13 1_555 1_555
C25 C26 1_555 1_555
C27 C28 1_555 1_555
C30 C31 1_555 1_555
C31 C32 1_555 1_555
C32 C33 1_555 1_555
O5A Co1A 1_555 1_555
C17A C18A 1_555 1_555
C21A C22A 1_555 1_555
O7A Co2A_4 1_555 1_555
C37A C38A 1_555 1_555
C41A C42A 1_555 1_555
O2A C1A 1_555 1_555
C6A C7A 1_555 1_555
C12A C13A 1_555 1_555
C25A C26A 1_555 1_555
C27A C28A 1_555 1_555
C30A C31A 1_555 1_555
C31A C32A 1_555 1_555
C32A C33A 1_555 1_555
Co1_2 Co1A_2 1_555 1_555
Co2_3 Co2A_2 1_555 1_555
Co2_4 Co2A_3 1_555 1_555
Co2_5 Co2A_5 1_555 1_555

#END
