
#######################################################################
#
#                 Cambridge Crystallographic Data Centre
#                                CCDC 
#
#######################################################################
#
# If this CIF has been generated from an entry in the Cambridge 
# Structural Database, then it will include bibliographic, chemical, 
# crystal, experimental, refinement or atomic coordinate data resulting 
# from the CCDC's data processing and validation procedures.
#
#######################################################################

data_RIXPOF
_chemical_name_common            MOF-519
_chemical_formula_moiety         '(C108 H68 Al4 O28)n,11n(H2 O1)'
_chemical_name_systematic        
'catena-[bis(\m~6~-1,3,5-tris(4-Carboxylatophenyl)benzene)-bis(\m~2~-3,5-bis(4-carboxyphenyl)benzoato)-tetrakis(\m~2~-hydroxo)-tetra-aluminium undecahydrate]'
_symmetry_cell_setting           tetragonal
_symmetry_space_group_name_H-M   'P 42 21 2'
_symmetry_Int_Tables_number      94
_space_group_name_Hall           'P 4n 2n'
loop_
_symmetry_equiv_pos_site_id
_symmetry_equiv_pos_as_xyz
1 x,y,z
2 1/2-y,1/2+x,1/2+z
3 -x,-y,z
4 1/2+y,1/2-x,1/2+z
5 1/2+x,1/2-y,1/2-z
6 y,x,-z
7 1/2-x,1/2+y,1/2-z
8 -y,-x,-z
_cell_length_a                   19.2800(10)
_cell_length_b                   19.2800(10)
_cell_length_c                   36.0300(10)
_cell_angle_alpha                90
_cell_angle_beta                 90
_cell_angle_gamma                90
_cell_volume                     13393
_exptl_crystal_colour            colorless
_cell_formula_units_Z            4
loop_
_atom_site_label
_atom_site_type_symbol
_atom_site_fract_x
_atom_site_fract_y
_atom_site_fract_z
C1 C 0.8790(4) 0.9486(4) 0.1595(2)
C2 C 0.6952(4) 1.2058(3) 0.41284(19)
C3 C 0.5505(4) 0.7129(4) 0.3786(2)
C4 C 0.5073(4) 0.6495(4) 0.38501(19)
C5 C 0.6719(5) 0.8920(5) 0.3483(3)
C6 C 0.7015(4) 1.0767(4) 0.3752(2)
C7 C 0.7822(5) 0.9079(5) 0.2011(3)
H1 H 0.7619 0.8847 0.1812
C8 C 0.7039(4) 1.1437(4) 0.4326(2)
H2 H 0.7082 1.1457 0.4583
C9 C 0.5255(4) 0.7779(4) 0.3843(2)
H3 H 0.4815 0.7831 0.3944
C10 C 0.6905(4) 1.2014(5) 0.3740(2)
H4 H 0.6854 1.2413 0.3597
C11 C 0.7088(6) 0.8864(5) 0.3152(3)
H5 H 0.7099 0.8453 0.3017
C12 C 0.6934(5) 1.1392(4) 0.3580(2)
H6 H 0.6895 1.1383 0.3323
C13 C 0.6298(5) 0.8267(5) 0.3606(3)
C14 C 0.7028(5) 1.0128(4) 0.3562(2)
C15 C 0.8712(5) 0.9823(5) 0.2259(3)
H7 H 0.9112 1.0087 0.2228
C16 C 0.6690(5) 0.9525(5) 0.3677(2)
H8 H 0.6435 0.9538 0.3896
C17 C 0.7815(5) 0.9431(5) 0.2661(2)
C18 C 0.7448(6) 0.9466(5) 0.3033(3)
C19 C 0.7429(5) 1.0071(4) 0.3225(2)
H9 H 0.7677 1.0453 0.3139
C20 C 0.8396(5) 0.9810(4) 0.2612(2)
H10 H 0.8585 1.0061 0.2808
C21 C 0.8464(5) 0.9471(4) 0.1965(2)
C22 C 0.7063(5) 1.0805(4) 0.4157(2)
H11 H 0.7109 1.0402 0.4298
C23 C 0.5628(5) 0.8360(5) 0.3756(3)
H12 H 0.5447 0.8801 0.3793
C24 C 0.6176(6) 0.7050(5) 0.3641(3)
H13 H 0.6352 0.6606 0.3605
C25 C 0.6577(6) 0.7613(5) 0.3554(3)
H14 H 0.7025 0.7557 0.3462
C26 C 0.7526(6) 0.9062(5) 0.2361(3)
H15 H 0.7127 0.8801 0.2399
C27 C 0.6913(3) 1.2722(4) 0.43126(18)
C28 C 0.7669(4) 0.9538(4) 0.0366(2)
C29 C 0.7190(10) 1.0095(10) 0.0299(5)
C30 C 0.6926(10) 1.0467(10) 0.0645(5)
C31 C 0.6959(10) 1.0209(10) -0.0076(5)
C32 C 0.6507(10) 1.0851(10) -0.0110(5)
C33 C 0.6277(10) 1.1101(10) 0.0192(5)
C34 C 0.6476(4) 1.1057(4) 0.0580(2)
C35 C 0.5778(4) 1.1814(4) 0.0181(2)
C36 C 0.5828(4) 1.2267(4) -0.0118(2)
C37 C 0.5413(4) 1.2856(4) -0.0131(2)
C38 C 0.4948(4) 1.2992(4) 0.0155(2)
C39 C 0.4898(4) 1.2539(4) 0.0454(2)
C40 C 0.5313(4) 1.1950(4) 0.0467(2)
C41 C 0.4372(4) 1.2661(4) 0.0751(2)
C42 C 0.4411(4) 1.3297(4) 0.0932(2)
C43 C 0.4056(4) 1.3398(4) 0.1263(2)
C44 C 0.3662(4) 1.2864(4) 0.1413(2)
C45 C 0.3623(4) 1.2228(4) 0.1233(2)
C46 C 0.3978(4) 1.2127(4) 0.0901(2)
C47 C 0.5634(4) 1.3305(4) -0.0448(2)
C48 C 0.6314(4) 1.3250(4) -0.0573(2)
C49 C 0.6486(4) 1.3475(4) -0.0928(2)
C50 C 0.5978(4) 1.3755(4) -0.1157(2)
C51 C 0.5299(4) 1.3810(4) -0.1032(2)
C52 C 0.5126(4) 1.3584(4) -0.0677(2)
C53 C 0.348(2) 1.288(2) 0.1781(11)
C54 C 0.6010(12) 1.4012(12) -0.1466(6)
Al1 Al 1.0000 1.0000 0.11859(8)
Al2 Al 0.84057(10) 0.84057(10) 0.0000
Al3 Al 0.87622(12) 0.90185(12) 0.08386(6)
O1 O 0.6830(3) 1.3263(3) 0.41238(13)
O2 O 0.4469(3) 0.6594(3) 0.39733(14)
O3 O 0.9000(2) 0.8761(2) 0.03591(13)
O4 O 0.9369(3) 0.9774(3) 0.15761(14)
O5 O 0.6937(2) 1.2722(2) 0.46703(13)
O6 O 0.9344(3) 0.9756(3) 0.08302(14)
O7 O 0.5361(3) 0.5909(3) 0.37937(14)
O8 O 0.8485(3) 0.9220(3) 0.13290(14)
O9 O 0.8009(3) 0.9589(3) 0.06647(15)
O10 O 0.7720(3) 0.9077(3) 0.01280(14)
O11 O 0.3048(11) 1.2498(11) 0.1963(6)
O12 O 0.3439(12) 1.3497(13) 0.1963(6)
O13 O 0.6738 1.4171 -0.1496
O14 O 0.5760 1.4631 -0.1660
C1B C 1.1210(4) 1.0514(4) 0.1595(2)
C2B C 1.3048(4) 0.7942(3) 0.41284(19)
C3B C 1.4495(4) 1.2871(4) 0.3786(2)
C4B C 1.4927(4) 1.3505(4) 0.38501(19)
C5B C 1.3281(5) 1.1080(5) 0.3483(3)
C6B C 1.2985(4) 0.9233(4) 0.3752(2)
C7B C 1.2178(5) 1.0921(5) 0.2011(3)
H1B H 1.2381 1.1153 0.1812
C8B C 1.2961(4) 0.8563(4) 0.4326(2)
H2B H 1.2918 0.8543 0.4583
C9B C 1.4745(4) 1.2221(4) 0.3843(2)
H3B H 1.5185 1.2169 0.3944
C10B C 1.3095(4) 0.7986(5) 0.3740(2)
H4B H 1.3146 0.7587 0.3597
C11B C 1.2912(6) 1.1136(5) 0.3152(3)
H5B H 1.2901 1.1547 0.3017
C12B C 1.3066(5) 0.8608(4) 0.3580(2)
H6B H 1.3105 0.8617 0.3323
C13B C 1.3702(5) 1.1733(5) 0.3606(3)
C14B C 1.2972(5) 0.9872(4) 0.3562(2)
C15B C 1.1288(5) 1.0177(5) 0.2259(3)
H7B H 1.0888 0.9913 0.2228
C16B C 1.3310(5) 1.0475(5) 0.3677(2)
H8B H 1.3565 1.0462 0.3896
C17B C 1.2185(5) 1.0569(5) 0.2661(2)
C18B C 1.2552(6) 1.0534(5) 0.3033(3)
C19B C 1.2571(5) 0.9929(4) 0.3225(2)
H9B H 1.2323 0.9547 0.3139
C20B C 1.1604(5) 1.0190(4) 0.2612(2)
H10B H 1.1415 0.9939 0.2808
C21B C 1.1536(5) 1.0529(4) 0.1965(2)
C22B C 1.2937(5) 0.9195(4) 0.4157(2)
H11B H 1.2891 0.9598 0.4298
C23B C 1.4372(5) 1.1640(5) 0.3756(3)
H12B H 1.4553 1.1199 0.3793
C24B C 1.3824(6) 1.2950(5) 0.3641(3)
H13B H 1.3648 1.3394 0.3605
C25B C 1.3423(6) 1.2387(5) 0.3554(3)
H14B H 1.2975 1.2443 0.3462
C26B C 1.2474(6) 1.0938(5) 0.2361(3)
H15B H 1.2873 1.1199 0.2399
C27B C 1.3087(3) 0.7278(4) 0.43126(18)
C28B C 1.2331(4) 1.0462(4) 0.0366(2)
C29B C 1.2810(10) 0.9905(10) 0.0299(5)
C30B C 1.3074(10) 0.9533(10) 0.0645(5)
C31B C 1.3041(10) 0.9791(10) -0.0076(5)
C32B C 1.3493(10) 0.9149(10) -0.0110(5)
C33B C 1.3723(10) 0.8899(10) 0.0192(5)
C34B C 1.3524(4) 0.8943(4) 0.0580(2)
C35B C 1.4222(4) 0.8186(4) 0.0181(2)
C36B C 1.4172(4) 0.7733(4) -0.0118(2)
C37B C 1.4587(4) 0.7144(4) -0.0131(2)
C38B C 1.5052(4) 0.7008(4) 0.0155(2)
C39B C 1.5102(4) 0.7461(4) 0.0454(2)
C40B C 1.4687(4) 0.8050(4) 0.0467(2)
C41B C 1.5628(4) 0.7339(4) 0.0751(2)
C42B C 1.5589(4) 0.6703(4) 0.0932(2)
C43B C 1.5944(4) 0.6602(4) 0.1263(2)
C44B C 1.6338(4) 0.7136(4) 0.1413(2)
C45B C 1.6377(4) 0.7772(4) 0.1233(2)
C46B C 1.6022(4) 0.7873(4) 0.0901(2)
C47B C 1.4366(4) 0.6695(4) -0.0448(2)
C48B C 1.3686(4) 0.6750(4) -0.0573(2)
C49B C 1.3514(4) 0.6525(4) -0.0928(2)
C50B C 1.4022(4) 0.6245(4) -0.1157(2)
C51B C 1.4701(4) 0.6190(4) -0.1032(2)
C52B C 1.4874(4) 0.6416(4) -0.0677(2)
C53B C 1.652(2) 0.712(2) 0.1781(11)
C54B C 1.3990(12) 0.5988(12) -0.1466(6)
Al3B Al 1.12378(12) 1.09815(12) 0.08386(6)
O1B O 1.3170(3) 0.6737(3) 0.41238(13)
O2B O 1.5531(3) 1.3406(3) 0.39733(14)
O3B O 1.1000(2) 1.1239(2) 0.03591(13)
O4B O 1.0631(3) 1.0226(3) 0.15761(14)
O5B O 1.3063(2) 0.7278(2) 0.46703(13)
O6B O 1.0656(3) 1.0244(3) 0.08302(14)
O7B O 1.4639(3) 1.4091(3) 0.37937(14)
O8B O 1.1515(3) 1.0780(3) 0.13290(14)
O9B O 1.1991(3) 1.0411(3) 0.06647(15)
O10B O 1.2280(3) 1.0923(3) 0.01280(14)
O11B O 1.6952(11) 0.7502(11) 0.1963(6)
O12B O 1.6561(12) 0.6503(13) 0.1963(6)
O13B O 1.3262 0.5829 -0.1496
O14B O 1.4240 0.5369 -0.1660
Al1D Al 0.5000 0.5000 0.38141(8)
Al1D_2 Al 1.5000 1.5000 0.38141(8)
Al2A Al 0.65943(10) 1.34057(10) 0.5000
Al2B Al 1.15943(10) 1.15943(10) 0.0000
Al2C Al 1.34057(10) 0.65943(10) 0.5000
Al3D Al 0.37622(12) 0.59815(12) 0.41614(6)
Al3D_2 Al 1.37622(12) 0.59815(12) 0.41614(6)
Al3F Al 0.62378(12) 1.40185(12) 0.41614(6)
Al3F_2 Al 1.62378(12) 1.40185(12) 0.41614(6)
O1D O 1.1830(3) 1.1737(3) 0.08762(13)
O1F O 0.8170(3) 0.8263(3) 0.08762(13)
O2D O 0.9469(3) 0.8406(3) 0.10267(14)
O2F O 1.0531(3) 1.1594(3) 0.10267(14)
O3E O 0.8761(2) 0.9000(2) -0.03591(13)
O5C O 0.7722(2) 0.8063(2) -0.03297(13)
O5F O 0.8063(2) 0.7722(2) 0.03297(13)
O7D O 1.0361(3) 0.9091(3) 0.12063(14)
O7F O 0.9639(3) 1.0909(3) 0.12063(14)
O10E O 0.9077(3) 0.7720(3) -0.01280(14)
loop_
_geom_bond_atom_site_label_1
_geom_bond_atom_site_label_2
_geom_bond_site_symmetry_1
_geom_bond_site_symmetry_2
C1 C21 1_555 1_555
C2 C8 1_555 1_555
C3 C4 1_555 1_555
C4 O2 1_555 1_555
C5 C11 1_555 1_555
C6 C12 1_555 1_555
C7 H1 1_555 1_555
C8 H2 1_555 1_555
C9 C3 1_555 1_555
H3 C9 1_555 1_555
C10 C2 1_555 1_555
H4 C10 1_555 1_555
C11 H5 1_555 1_555
C12 C10 1_555 1_555
H6 C12 1_555 1_555
C13 C5 1_555 1_555
C14 C6 1_555 1_555
C15 H7 1_555 1_555
C16 C5 1_555 1_555
H8 C16 1_555 1_555
C17 C18 1_555 1_555
C18 C11 1_555 1_555
C19 C14 1_555 1_555
H9 C19 1_555 1_555
C20 C15 1_555 1_555
H10 C20 1_555 1_555
C21 C7 1_555 1_555
C22 C6 1_555 1_555
H11 C22 1_555 1_555
C23 C9 1_555 1_555
H12 C23 1_555 1_555
C24 C3 1_555 1_555
H13 C24 1_555 1_555
C25 C13 1_555 1_555
H14 C25 1_555 1_555
C26 C7 1_555 1_555
H15 C26 1_555 1_555
C27 C2 1_555 1_555
C28 C29 1_555 1_555
C29 C30 1_555 1_555
C30 C34 1_555 1_555
C31 C29 1_555 1_555
C32 C31 1_555 1_555
C33 C32 1_555 1_555
C34 C33 1_555 1_555
C35 C33 1_555 1_555
C36 C35 1_555 1_555
C37 C36 1_555 1_555
C38 C37 1_555 1_555
C39 C38 1_555 1_555
C40 C35 1_555 1_555
C41 C39 1_555 1_555
C42 C41 1_555 1_555
C43 C42 1_555 1_555
C44 C43 1_555 1_555
C45 C44 1_555 1_555
C46 C41 1_555 1_555
C47 C37 1_555 1_555
C48 C47 1_555 1_555
C49 C48 1_555 1_555
C50 C49 1_555 1_555
C51 C50 1_555 1_555
C52 C47 1_555 1_555
C53 C44 1_555 1_555
C54 C50 1_555 1_555
Al1 O4 1_555 1_555
Al2 O3 1_555 1_555
Al3 O3 1_555 1_555
O1 C27 1_555 1_555
O2 Al3D 1_555 1_555
O4 C1 1_555 1_555
O5 C27 1_555 1_555
O6 Al1 1_555 1_555
O7 C4 1_555 1_555
O8 C1 1_555 1_555
O9 C28 1_555 1_555
O10 C28 1_555 1_555
O11 C53 1_555 1_555
O12 C53 1_555 1_555
O13 C54 1_555 1_555
O14 C54 1_555 1_555
C1B C21B 1_555 1_555
C2B C8B 1_555 1_555
C3B C4B 1_555 1_555
C4B O2B 1_555 1_555
C5B C11B 1_555 1_555
C6B C12B 1_555 1_555
C7B H1B 1_555 1_555
C8B H2B 1_555 1_555
C9B C3B 1_555 1_555
H3B C9B 1_555 1_555
C10B C2B 1_555 1_555
H4B C10B 1_555 1_555
C11B H5B 1_555 1_555
C12B C10B 1_555 1_555
H6B C12B 1_555 1_555
C13B C5B 1_555 1_555
C14B C6B 1_555 1_555
C15B H7B 1_555 1_555
C16B C5B 1_555 1_555
H8B C16B 1_555 1_555
C17B C18B 1_555 1_555
C18B C11B 1_555 1_555
C19B C14B 1_555 1_555
H9B C19B 1_555 1_555
C20B C15B 1_555 1_555
H10B C20B 1_555 1_555
C21B C7B 1_555 1_555
C22B C6B 1_555 1_555
H11B C22B 1_555 1_555
C23B C9B 1_555 1_555
H12B C23B 1_555 1_555
C24B C3B 1_555 1_555
H13B C24B 1_555 1_555
C25B C13B 1_555 1_555
H14B C25B 1_555 1_555
C26B C7B 1_555 1_555
H15B C26B 1_555 1_555
C27B C2B 1_555 1_555
C28B C29B 1_555 1_555
C29B C30B 1_555 1_555
C30B C34B 1_555 1_555
C31B C29B 1_555 1_555
C32B C31B 1_555 1_555
C33B C32B 1_555 1_555
C34B C33B 1_555 1_555
C35B C33B 1_555 1_555
C36B C35B 1_555 1_555
C37B C36B 1_555 1_555
C38B C37B 1_555 1_555
C39B C38B 1_555 1_555
C40B C35B 1_555 1_555
C41B C39B 1_555 1_555
C42B C41B 1_555 1_555
C43B C42B 1_555 1_555
C44B C43B 1_555 1_555
C45B C44B 1_555 1_555
C46B C41B 1_555 1_555
C47B C37B 1_555 1_555
C48B C47B 1_555 1_555
C49B C48B 1_555 1_555
C50B C49B 1_555 1_555
C51B C50B 1_555 1_555
C52B C47B 1_555 1_555
C53B C44B 1_555 1_555
C54B C50B 1_555 1_555
Al3B O3B 1_555 1_555
O1B C27B 1_555 1_555
O2B Al3F_2 1_555 1_555
O3B Al2B 1_555 1_555
O4B Al1 1_555 1_555
O5B C27B 1_555 1_555
O6B Al1 1_555 1_555
O7B C4B 1_555 1_555
O8B C1B 1_555 1_555
O9B C28B 1_555 1_555
O10B C28B 1_555 1_555
O11B C53B 1_555 1_555
O12B C53B 1_555 1_555
O13B C54B 1_555 1_555
O14B C54B 1_555 1_555
Al1D O7 1_555 1_555
Al1D_2 O7B 1_555 1_555
Al2A O5 1_555 1_555
Al2B O10B 1_555 1_555
Al2C O5B 1_555 1_555
Al3D_2 O1B 1_555 1_555
Al3F O1 1_555 1_555
O1D Al3B 1_555 1_555
O1F Al3 1_555 1_555
O2D Al3 1_555 1_555
O2F Al3B 1_555 1_555
O3E Al2 1_555 1_555
O5C Al2 1_555 1_555
O5F Al2 1_555 1_555
O7D Al1 1_555 1_555
O7F Al1 1_555 1_555
O10E Al2 1_555 1_555
C8 C22 1_555 1_555
C13 C23 1_555 1_555
C14 C16 1_555 1_555
C15 C21 1_555 1_555
C17 C20 1_555 1_555
C17 C26 1_555 1_555
C18 C19 1_555 1_555
C24 C25 1_555 1_555
C39 C40 1_555 1_555
C45 C46 1_555 1_555
C51 C52 1_555 1_555
Al2 O10 1_555 1_555
Al3 O6 1_555 1_555
Al3 O8 1_555 1_555
Al3 O9 1_555 1_555
C1B O4B 1_555 1_555
C8B C22B 1_555 1_555
C13B C23B 1_555 1_555
C14B C16B 1_555 1_555
C15B C21B 1_555 1_555
C17B C20B 1_555 1_555
C17B C26B 1_555 1_555
C18B C19B 1_555 1_555
C24B C25B 1_555 1_555
C39B C40B 1_555 1_555
C45B C46B 1_555 1_555
C51B C52B 1_555 1_555
Al3B O6B 1_555 1_555
Al3B O8B 1_555 1_555
Al3B O9B 1_555 1_555

#END
