
#######################################################################
#
#                 Cambridge Crystallographic Data Centre
#                                CCDC 
#
#######################################################################
#
# If this CIF has been generated from an entry in the Cambridge 
# Structural Database, then it will include bibliographic, chemical, 
# crystal, experimental, refinement or atomic coordinate data resulting 
# from the CCDC's data processing and validation procedures.
#
#######################################################################

data_NIFTIG
_chemical_formula_moiety         '(C32 H24 N2 O8 Rh2)n,0.7n(C4 H10 O1)'
_chemical_name_systematic        
"catena-(tetrakis(\m~2~-benzoato-O,O')-(\m~2~-pyrazine-N,N')-di-rhodium(ii) n-butanol clathrate)"
_symmetry_cell_setting           triclinic
_symmetry_space_group_name_H-M   'P -1'
_symmetry_Int_Tables_number      2
_space_group_name_Hall           '-P 1'
loop_
_symmetry_equiv_pos_site_id
_symmetry_equiv_pos_as_xyz
1 x,y,z
2 -x,-y,-z
_cell_length_a                   9.663(10)
_cell_length_b                   10.216(10)
_cell_length_c                   11.066(12)
_cell_angle_alpha                69.37(2)
_cell_angle_beta                 66.023(16)
_cell_angle_gamma                63.08(2)
_cell_volume                     870.772
_exptl_crystal_colour            red
_exptl_crystal_description       plate
_cell_formula_units_Z            1
loop_
_atom_site_label
_atom_site_type_symbol
_atom_site_fract_x
_atom_site_fract_y
_atom_site_fract_z
C17 C 0.656(12) 0.667(11) 1.013(9)
H13 H 0.5697 0.7190 1.0845
H14 H 0.7084 0.7365 0.9446
H15 H 0.7369 0.5804 1.0518
C18 C 0.585(13) 0.616(12) 0.948(9)
H16 H 0.6697 0.5783 0.8678
H17 H 0.4968 0.7042 0.9165
C19 C 0.516(15) 0.496(12) 1.038(8)
H18 H 0.5985 0.4142 1.0804
H19 H 0.4200 0.5389 1.1107
C20 C 0.533(13) 0.570(11) 1.034(10)
H20 H 0.6046 0.4842 1.0839
H21 H 0.4326 0.6165 1.1024
O5 O 0.611(10) 0.678(9) 0.966(7)
H22 H 0.5463 0.7589 0.9342
C17A C 0.344(12) 0.333(11) 0.987(9)
H13A H 0.4303 0.2810 0.9155
H14A H 0.2916 0.2635 1.0554
H15A H 0.2631 0.4196 0.9482
C18A C 0.415(13) 0.384(12) 1.052(9)
H16A H 0.3303 0.4217 1.1322
H17A H 0.5032 0.2958 1.0835
C19A C 0.484(15) 0.504(12) 0.962(8)
H18A H 0.4015 0.5858 0.9196
H19A H 0.5800 0.4611 0.8893
C20A C 0.467(13) 0.430(11) 0.966(10)
H20A H 0.3954 0.5158 0.9161
H21A H 0.5674 0.3835 0.8976
O5A O 0.389(10) 0.322(9) 1.034(7)
H22A H 0.4537 0.2411 1.0658
C1 C 1.4980(16) 0.4348(16) 0.4169(13)
H1 H 1.5025 0.3905 0.3523
N1 N 1.3538(14) 0.4961(15) 0.5001(13)
C2 C 0.962(2) 0.363(2) 0.7508(17)
C3 C 0.936(2) 0.282(2) 0.904(2)
C4 C 1.013(2) 0.295(2) 0.977(2)
H2 H 1.0840 0.3503 0.9334
C5 C 0.990(3) 0.232(3) 1.112(2)
H3 H 1.0413 0.2453 1.1625
C6 C 0.891(3) 0.148(3) 1.174(2)
H4 H 0.8764 0.1015 1.2671
C7 C 0.811(3) 0.128(3) 1.106(2)
H5 H 0.7415 0.0723 1.1502
C8 C 0.840(2) 0.199(2) 0.960(2)
H6 H 0.7922 0.1865 0.9073
C9 C 1.1719(16) 0.2407(16) 0.4252(15)
C10 C 1.2670(17) 0.0917(16) 0.3847(15)
C11 C 1.193(2) 0.0189(19) 0.3630(16)
H7 H 1.0788 0.0604 0.3804
C12 C 1.2845(19) -0.1193(18) 0.3146(16)
H8 H 1.2322 -0.1709 0.3022
C13 C 1.449(2) -0.172(2) 0.2876(17)
H9 H 1.5118 -0.2595 0.2497
C14 C 1.528(2) -0.1050(19) 0.3127(17)
H10 H 1.6416 -0.1486 0.2991
C15 C 1.4359(19) 0.0270(19) 0.3579(16)
H11 H 1.4895 0.0765 0.3717
C16 C 1.6394(17) 0.4312(16) 0.4178(13)
H12 H 1.7382 0.3767 0.3601
O1 O 1.0823(12) 0.3963(12) 0.6984(10)
O2 O 0.8527(12) 0.3839(12) 0.6980(10)
O3 O 1.2477(11) 0.3017(11) 0.4408(10)
O4 O 1.0137(11) 0.2915(12) 0.4454(10)
Rh1 Rh 1.12264(15) 0.50522(17) 0.49836(15)
C1A C 1.5020(16) 0.5652(16) 0.5831(13)
H1A H 1.4975 0.6095 0.6477
N1A N 1.6462(14) 0.5039(15) 0.4999(13)
C2A C 1.038(2) 0.637(2) 0.2492(17)
C3A C 1.064(2) 0.718(2) 0.096(2)
C4A C 0.987(2) 0.705(2) 0.023(2)
H2A H 0.9160 0.6497 0.0666
C5A C 1.010(3) 0.768(3) -0.112(2)
H3A H 0.9587 0.7547 -0.1625
C6A C 1.109(3) 0.852(3) -0.174(2)
H4A H 1.1236 0.8985 -0.2671
C7A C 1.189(3) 0.872(3) -0.106(2)
H5A H 1.2585 0.9277 -0.1502
C8A C 1.160(2) 0.801(2) 0.040(2)
H6A H 1.2078 0.8135 0.0927
C9A C 0.8281(16) 0.7593(16) 0.5748(15)
C10A C 0.7330(17) 0.9083(16) 0.6153(15)
C11A C 0.807(2) 0.9811(19) 0.6370(16)
H7A H 0.9212 0.9396 0.6196
C12A C 0.7155(19) 1.1193(18) 0.6854(16)
H8A H 0.7678 1.1709 0.6978
C13A C 0.551(2) 1.172(2) 0.7124(17)
H9A H 0.4882 1.2595 0.7503
C14A C 0.472(2) 1.1050(19) 0.6873(17)
H10A H 0.3584 1.1486 0.7009
C15A C 0.5641(19) 0.9730(19) 0.6421(16)
H11A H 0.5105 0.9235 0.6283
C16A C 1.3606(17) 0.5688(16) 0.5822(13)
H12A H 1.2618 0.6233 0.6399
O1A O 0.9177(12) 0.6037(12) 0.3016(10)
O1A_2 O 1.9177(12) 0.6037(12) 0.3016(10)
O2A O 1.1473(12) 0.6161(12) 0.3020(10)
O2_2 O 1.8527(12) 0.3839(12) 0.6980(10)
O3A O 0.7523(11) 0.6983(11) 0.5592(10)
O3A_2 O 1.7523(11) 0.6983(11) 0.5592(10)
O4A O 0.9863(11) 0.7085(12) 0.5546(10)
O4_2 O 2.0137(11) 0.2915(12) 0.4454(10)
Rh1A Rh 1.87736(15) 0.49478(17) 0.50164(15)
Rh1A_2 Rh 0.87736(15) 0.49478(17) 0.50164(15)
Rh1_2 Rh 2.12264(15) 0.50522(17) 0.49836(15)
loop_
_geom_bond_atom_site_label_1
_geom_bond_atom_site_label_2
_geom_bond_site_symmetry_1
_geom_bond_site_symmetry_2
C1 H1 1_555 1_555
N1 C1 1_555 1_555
C2 C3 1_555 1_555
C3 C4 1_555 1_555
C4 H2 1_555 1_555
C5 C4 1_555 1_555
H3 C5 1_555 1_555
C6 C5 1_555 1_555
H4 C6 1_555 1_555
C7 C6 1_555 1_555
H5 C7 1_555 1_555
C8 C3 1_555 1_555
H6 C8 1_555 1_555
C9 C10 1_555 1_555
C10 C11 1_555 1_555
C11 H7 1_555 1_555
C12 C11 1_555 1_555
H8 C12 1_555 1_555
C13 C12 1_555 1_555
H9 C13 1_555 1_555
C14 C13 1_555 1_555
H10 C14 1_555 1_555
C15 C10 1_555 1_555
H11 C15 1_555 1_555
C16 C1 1_555 1_555
H12 C16 1_555 1_555
C17 H13 1_555 1_555
H14 C17 1_555 1_555
H15 C17 1_555 1_555
C18 C17 1_555 1_555
H16 C18 1_555 1_555
H17 C18 1_555 1_555
C19 C18 1_555 1_555
H18 C19 1_555 1_555
H19 C19 1_555 1_555
C20 C18 1_555 1_555
H20 C19 1_555 1_555
H21 H19 1_555 1_555
O1 C2 1_555 1_555
O2 C2 1_555 1_555
O3 C9 1_555 1_555
O4 C9 1_555 1_555
O5 C17 1_555 1_555
H22 C18 1_555 1_555
Rh1 N1 1_555 1_555
C1A H1A 1_555 1_555
N1A C16 1_555 1_555
C2A C3A 1_555 1_555
C3A C4A 1_555 1_555
C4A H2A 1_555 1_555
C5A C4A 1_555 1_555
H3A C5A 1_555 1_555
C6A C5A 1_555 1_555
H4A C6A 1_555 1_555
C7A C6A 1_555 1_555
H5A C7A 1_555 1_555
C8A C3A 1_555 1_555
H6A C8A 1_555 1_555
C9A C10A 1_555 1_555
C10A C11A 1_555 1_555
C11A H7A 1_555 1_555
C12A C11A 1_555 1_555
H8A C12A 1_555 1_555
C13A C12A 1_555 1_555
H9A C13A 1_555 1_555
C14A C13A 1_555 1_555
H10A C14A 1_555 1_555
C15A C10A 1_555 1_555
H11A C15A 1_555 1_555
C16A N1 1_555 1_555
H12A C16A 1_555 1_555
C17A H13A 1_555 1_555
H14A C17A 1_555 1_555
H15A C17A 1_555 1_555
C18A C19 1_555 1_555
H16A C18A 1_555 1_555
H17A C18A 1_555 1_555
C19A C18 1_555 1_555
H18A C19A 1_555 1_555
H19A C19A 1_555 1_555
C20A C19 1_555 1_555
H20A C19A 1_555 1_555
H21A H19A 1_555 1_555
O1A C2A 1_555 1_555
O1A_2 Rh1A 1_555 1_555
O2A Rh1 1_555 1_555
O2_2 Rh1A 1_555 1_555
O3A C9A 1_555 1_555
O3A_2 Rh1A 1_555 1_555
O4A Rh1 1_555 1_555
O4_2 Rh1A 1_555 1_555
O5A C17A 1_555 1_555
H22A C18A 1_555 1_555
Rh1A N1A 1_555 1_555
Rh1A_2 O2 1_555 1_555
Rh1_2 Rh1A 1_555 1_555
C7 C8 1_555 1_555
C14 C15 1_555 1_555
H14 O5 1_555 1_555
C18 O5 1_555 1_555
H17 O5 1_555 1_555
C19 C20 1_555 1_555
C19 C19A 1_555 1_555
H18 H20 1_555 1_555
H19 C20 1_555 1_555
C20 H20 1_555 1_555
C20 H21 1_555 1_555
C20 O5 1_555 1_555
C20 C19A 1_555 1_555
O1 Rh1 1_555 1_555
O3 Rh1 1_555 1_555
O4 Rh1A_2 1_555 1_555
O5 H22 1_555 1_555
Rh1 Rh1A_2 1_555 1_555
C1A N1A 1_555 1_555
C1A C16A 1_555 1_555
C2A O2A 1_555 1_555
C7A C8A 1_555 1_555
C9A O4A 1_555 1_555
C14A C15A 1_555 1_555
C17A C18A 1_555 1_555
H14A O5A 1_555 1_555
C18A C19A 1_555 1_555
C18A C20A 1_555 1_555
C18A O5A 1_555 1_555
H17A O5A 1_555 1_555
C19A C20A 1_555 1_555
H18A H20A 1_555 1_555
H19A C20A 1_555 1_555
C20A H20A 1_555 1_555
C20A H21A 1_555 1_555
C20A O5A 1_555 1_555
O1A Rh1A_2 1_555 1_555
O3A Rh1A_2 1_555 1_555
O5A H22A 1_555 1_555

#END
