
#######################################################################
#
#                 Cambridge Crystallographic Data Centre
#                                CCDC 
#
#######################################################################
#
# If this CIF has been generated from an entry in the Cambridge 
# Structural Database, then it will include bibliographic, chemical, 
# crystal, experimental, refinement or atomic coordinate data resulting 
# from the CCDC's data processing and validation procedures.
#
#######################################################################

data_NIFTOM
_chemical_formula_moiety         '(C32 H24 N2 O8 Rh2)n,0.88n(C5 H12 O1)'
_chemical_name_systematic        
"catena-(tetrakis(\m~2~-benzoato-O,O')-(\m~2~-pyrazine-N,N')-di-rhodium(ii) 1-pentanol clathrate)"
_symmetry_cell_setting           triclinic
_symmetry_space_group_name_H-M   'P -1'
_symmetry_Int_Tables_number      2
_space_group_name_Hall           '-P 1'
loop_
_symmetry_equiv_pos_site_id
_symmetry_equiv_pos_as_xyz
1 x,y,z
2 -x,-y,-z
_cell_length_a                   9.699(6)
_cell_length_b                   10.286(6)
_cell_length_c                   11.163(7)
_cell_angle_alpha                68.681(13)
_cell_angle_beta                 66.009(11)
_cell_angle_gamma                63.503(11)
_cell_volume                     887.694
_exptl_crystal_colour            red
_exptl_crystal_description       plate
_cell_formula_units_Z            1
loop_
_atom_site_label
_atom_site_type_symbol
_atom_site_fract_x
_atom_site_fract_y
_atom_site_fract_z
C17 C 0.428(5) 0.425(4) 0.957(4)
H13 H 0.3500 0.5111 0.9129
H14 H 0.5176 0.3775 0.8848
C18 C 0.497(9) 0.487(7) 1.018(5)
H15 H 0.5814 0.4016 1.0545
H16 H 0.4091 0.5255 1.0958
C19 C 0.431(5) 0.390(4) 1.069(4)
H17 H 0.3250 0.4352 1.1312
H18 H 0.5019 0.3154 1.1252
C20 C 0.407(5) 0.307(4) 0.992(4)
H19 H 0.3564 0.2328 1.0553
H20 H 0.5114 0.2551 0.9324
C21 C 0.295(5) 0.432(4) 0.910(4)
H21 H 0.1944 0.4833 0.9710
H22 H 0.3483 0.5027 0.8476
H23 H 0.2715 0.3881 0.8589
O5 O 0.349(4) 0.320(4) 1.043(3)
H24 H 0.3226 0.2915 0.9969
C17A C 0.572(5) 0.575(4) 1.043(4)
H13A H 0.6500 0.4889 1.0871
H14A H 0.4824 0.6225 1.1152
C18A C 0.503(9) 0.513(7) 0.982(5)
H15A H 0.4186 0.5984 0.9455
H16A H 0.5909 0.4745 0.9042
C19A C 0.569(5) 0.610(4) 0.931(4)
H17A H 0.6750 0.5648 0.8688
H18A H 0.4981 0.6846 0.8748
C20A C 0.593(5) 0.693(4) 1.008(4)
H19A H 0.6436 0.7672 0.9447
H20A H 0.4886 0.7449 1.0676
C21A C 0.705(5) 0.568(4) 1.090(4)
H21A H 0.8056 0.5167 1.0290
H22A H 0.6517 0.4973 1.1524
H23A H 0.7285 0.6119 1.1411
O5A O 0.651(4) 0.680(4) 0.957(3)
H24A H 0.6774 0.7085 1.0031
C1 C 0.8338(14) 0.7549(13) 0.5720(13)
C2 C 0.7355(15) 0.9015(13) 0.6142(13)
C3 C 0.8097(16) 0.9806(13) 0.6331(13)
H1 H 0.9230 0.9411 0.6185
C4 C 0.7204(16) 1.1143(14) 0.6724(13)
H2 H 0.7724 1.1678 0.6818
C5 C 0.5546(16) 1.1705(14) 0.6981(14)
H3 H 0.4923 1.2600 0.7296
C6 C 0.4799(17) 1.0965(14) 0.6780(14)
H4 H 0.3668 1.1385 0.6919
C7 C 0.5680(15) 0.9593(13) 0.6370(13)
H5 H 0.5152 0.9080 0.6253
C8 C 1.0398(16) 0.6481(14) 0.2452(14)
C9 C 1.0614(17) 0.7274(15) 0.0988(15)
C10 C 1.1617(18) 0.8095(16) 0.0381(16)
H6 H 1.2154 0.8182 0.0880
C11 C 1.183(2) 0.8801(17) -0.0985(17)
H7 H 1.2489 0.9400 -0.1407
C12 C 1.109(2) 0.8630(17) -0.1728(17)
H8 H 1.1249 0.9104 -0.2655
C13 C 1.0130(19) 0.7771(17) -0.1113(17)
H9 H 0.9657 0.7628 -0.1630
C14 C 0.9837(19) 0.7102(16) 0.0268(16)
H10 H 0.9131 0.6550 0.0700
C15 C 1.3613(15) 0.5625(13) 0.5851(12)
H11 H 1.2640 0.6095 0.6466
C16 C 1.5023(15) 0.5585(13) 0.5886(13)
H12 H 1.4996 0.5997 0.6534
N1 N 1.3512(11) 0.5039(10) 0.4999(10)
O1 O 0.9844(10) 0.7030(9) 0.5609(9)
O2 O 0.7568(10) 0.6860(9) 0.5628(9)
O3 O 1.1452(10) 0.6241(9) 0.3023(9)
O4 O 0.9161(10) 0.6048(9) 0.3052(9)
Rh1 Rh 1.12158(12) 0.50773(10) 0.49802(12)
C1A C 1.1662(14) 0.2451(13) 0.4280(13)
C2A C 1.2645(15) 0.0985(13) 0.3858(13)
C3A C 1.1903(16) 0.0194(13) 0.3669(13)
H1A H 1.0770 0.0589 0.3815
C4A C 1.2796(16) -0.1143(14) 0.3276(13)
H2A H 1.2276 -0.1678 0.3182
C5A C 1.4454(16) -0.1705(14) 0.3019(14)
H3A H 1.5077 -0.2600 0.2704
C6A C 1.5201(17) -0.0965(14) 0.3220(14)
H4A H 1.6332 -0.1385 0.3081
C7A C 1.4320(15) 0.0407(13) 0.3630(13)
H5A H 1.4848 0.0920 0.3747
C8A C 0.9602(16) 0.3519(14) 0.7548(14)
C9A C 0.9386(17) 0.2726(15) 0.9012(15)
C10A C 0.8383(18) 0.1905(16) 0.9619(16)
H6A H 0.7846 0.1818 0.9120
C11A C 0.817(2) 0.1199(17) 1.0985(17)
H7A H 0.7511 0.0600 1.1407
C12A C 0.891(2) 0.1370(17) 1.1728(17)
H8A H 0.8751 0.0896 1.2655
C13A C 0.9870(19) 0.2229(17) 1.1113(17)
H9A H 1.0343 0.2372 1.1630
C14A C 1.0163(19) 0.2898(16) 0.9732(16)
H10A H 1.0869 0.3450 0.9300
C15A C 1.6387(15) 0.4375(13) 0.4149(12)
H11A H 1.7360 0.3905 0.3534
C16A C 1.4977(15) 0.4415(13) 0.4114(13)
H12A H 1.5004 0.4003 0.3466
N1A N 1.6488(11) 0.4961(10) 0.5001(10)
O1A O 1.0156(10) 0.2970(9) 0.4391(9)
O1A_2 O 2.0156(10) 0.2970(9) 0.4391(9)
O2A O 1.2432(10) 0.3140(9) 0.4372(9)
O2_2 O 1.7568(10) 0.6860(9) 0.5628(9)
O3A O 0.8548(10) 0.3759(9) 0.6977(9)
O3A_2 O 1.8548(10) 0.3759(9) 0.6977(9)
O4A O 1.0839(10) 0.3952(9) 0.6948(9)
O4_2 O 1.9161(10) 0.6048(9) 0.3052(9)
Rh1A Rh 1.87842(12) 0.49227(10) 0.50198(12)
Rh1A_2 Rh 0.87842(12) 0.49227(10) 0.50198(12)
Rh1_2 Rh 2.12158(12) 0.50773(10) 0.49802(12)
loop_
_geom_bond_atom_site_label_1
_geom_bond_atom_site_label_2
_geom_bond_site_symmetry_1
_geom_bond_site_symmetry_2
C1 C2 1_555 1_555
C2 C3 1_555 1_555
C3 H1 1_555 1_555
C4 C3 1_555 1_555
H2 C4 1_555 1_555
C5 C4 1_555 1_555
H3 C5 1_555 1_555
C6 C5 1_555 1_555
H4 C6 1_555 1_555
C7 C2 1_555 1_555
H5 C7 1_555 1_555
C8 C9 1_555 1_555
C9 C10 1_555 1_555
C10 H6 1_555 1_555
C11 C10 1_555 1_555
H7 C11 1_555 1_555
C12 C11 1_555 1_555
H8 C12 1_555 1_555
C13 C12 1_555 1_555
H9 C13 1_555 1_555
C14 C9 1_555 1_555
H10 C14 1_555 1_555
C15 H11 1_555 1_555
C16 C15 1_555 1_555
H12 C16 1_555 1_555
C17 H13 1_555 1_555
H13 C21 1_555 1_555
H14 C17 1_555 1_555
C18 C17 1_555 1_555
H15 C18 1_555 1_555
H16 C18 1_555 1_555
C19 C17 1_555 1_555
H17 C19 1_555 1_555
H18 C19 1_555 1_555
C20 C17 1_555 1_555
H19 C20 1_555 1_555
H20 C20 1_555 1_555
C21 C17 1_555 1_555
H21 C21 1_555 1_555
H22 H13 1_555 1_555
H23 C21 1_555 1_555
N1 C15 1_555 1_555
O1 C1 1_555 1_555
O2 C1 1_555 1_555
O3 C8 1_555 1_555
O4 C8 1_555 1_555
O5 C17 1_555 1_555
H24 C20 1_555 1_555
Rh1 N1 1_555 1_555
C1A C2A 1_555 1_555
C2A C3A 1_555 1_555
C3A H1A 1_555 1_555
C4A C3A 1_555 1_555
H2A C4A 1_555 1_555
C5A C4A 1_555 1_555
H3A C5A 1_555 1_555
C6A C5A 1_555 1_555
H4A C6A 1_555 1_555
C7A C2A 1_555 1_555
H5A C7A 1_555 1_555
C8A C9A 1_555 1_555
C9A C10A 1_555 1_555
C10A H6A 1_555 1_555
C11A C10A 1_555 1_555
H7A C11A 1_555 1_555
C12A C11A 1_555 1_555
H8A C12A 1_555 1_555
C13A C12A 1_555 1_555
H9A C13A 1_555 1_555
C14A C9A 1_555 1_555
H10A C14A 1_555 1_555
C15A H11A 1_555 1_555
C16A N1 1_555 1_555
H12A C16A 1_555 1_555
C17A C18 1_555 1_555
H13A C17A 1_555 1_555
H14A C17A 1_555 1_555
C18A C17 1_555 1_555
H15A C18 1_555 1_555
H16A C18 1_555 1_555
C19A C18 1_555 1_555
H17A C19A 1_555 1_555
H18A C19A 1_555 1_555
C20A C17A 1_555 1_555
H19A C20A 1_555 1_555
H20A C20A 1_555 1_555
C21A C17A 1_555 1_555
H21A C21A 1_555 1_555
H22A H13A 1_555 1_555
H23A C21A 1_555 1_555
N1A C16 1_555 1_555
O1A C1A 1_555 1_555
O1A_2 Rh1A 1_555 1_555
O2A Rh1 1_555 1_555
O2_2 Rh1A 1_555 1_555
O3A C8A 1_555 1_555
O3A_2 Rh1A 1_555 1_555
O4A Rh1 1_555 1_555
O4_2 Rh1A 1_555 1_555
O5A C17A 1_555 1_555
H24A C20A 1_555 1_555
Rh1A N1A 1_555 1_555
Rh1A_2 O2 1_555 1_555
Rh1_2 Rh1A 1_555 1_555
C6 C7 1_555 1_555
C13 C14 1_555 1_555
C18 C19 1_555 1_555
C18 C18A 1_555 1_555
H15 C18A 1_555 1_555
H16 C18A 1_555 1_555
C19 C20 1_555 1_555
C19 O5 1_555 1_555
C19 C18A 1_555 1_555
C20 C21 1_555 1_555
C20 O5 1_555 1_555
H19 O5 1_555 1_555
H19 H24 1_555 1_555
C21 H22 1_555 1_555
C21 O5 1_555 1_555
O1 Rh1 1_555 1_555
O3 Rh1 1_555 1_555
O4 Rh1A_2 1_555 1_555
O5 H24 1_555 1_555
Rh1 Rh1A_2 1_555 1_555
C1A O2A 1_555 1_555
C6A C7A 1_555 1_555
C8A O4A 1_555 1_555
C13A C14A 1_555 1_555
C15A C16A 1_555 1_555
C15A N1A 1_555 1_555
C17A C18A 1_555 1_555
C17A C19A 1_555 1_555
H13A C21A 1_555 1_555
C18A H15A 1_555 1_555
C18A H16A 1_555 1_555
C18A C19A 1_555 1_555
C19A C20A 1_555 1_555
C19A O5A 1_555 1_555
C20A C21A 1_555 1_555
C20A O5A 1_555 1_555
H19A O5A 1_555 1_555
H19A H24A 1_555 1_555
C21A H22A 1_555 1_555
C21A O5A 1_555 1_555
O1A Rh1A_2 1_555 1_555
O3A Rh1A_2 1_555 1_555
O5A H24A 1_555 1_555

#END
