
#######################################################################
#
#                 Cambridge Crystallographic Data Centre
#                                CCDC 
#
#######################################################################
#
# If this CIF has been generated from an entry in the Cambridge 
# Structural Database, then it will include bibliographic, chemical, 
# crystal, experimental, refinement or atomic coordinate data resulting 
# from the CCDC's data processing and validation procedures.
#
#######################################################################

data_NIFTUS
_chemical_formula_moiety         '(C32 H24 Cu2 N2 O8)n,0.59n(C3 H8 O1)'
_chemical_name_systematic        
"catena-(tetrakis(\m~2~-benzoato-O,O')-(\m~2~-pyrazine-N,N')-di-copper(ii) n-propanol clathrate)"
_symmetry_cell_setting           monoclinic
_symmetry_space_group_name_H-M   'C 2/c'
_symmetry_Int_Tables_number      15
_space_group_name_Hall           '-C 2yc'
loop_
_symmetry_equiv_pos_site_id
_symmetry_equiv_pos_as_xyz
1 x,y,z
2 1/2+x,1/2+y,z
3 -x,y,1/2-z
4 1/2-x,1/2+y,1/2-z
5 -x,-y,-z
6 1/2-x,1/2-y,-z
7 x,-y,1/2+z
8 1/2+x,1/2-y,1/2+z
_cell_length_a                   17.909(5)
_cell_length_b                   9.671(2)
_cell_length_c                   19.197(5)
_cell_angle_alpha                90
_cell_angle_beta                 98.270(6)
_cell_angle_gamma                90
_cell_volume                     3290.31
_exptl_crystal_colour            blue
_exptl_crystal_description       plate
_cell_formula_units_Z            4
loop_
_atom_site_label
_atom_site_type_symbol
_atom_site_fract_x
_atom_site_fract_y
_atom_site_fract_z
C17 C 0.5047(19) 0.480(3) 0.4919(16)
H13 H 0.4649 0.4147 0.4750
H14 H 0.5254 0.5140 0.4512
C18 C 0.4698(13) 0.598(2) 0.5280(13)
H15 H 0.4455 0.5613 0.5673
H16 H 0.5100 0.6630 0.5480
C19 C 0.4118(14) 0.675(3) 0.4775(13)
H17 H 0.4368 0.7212 0.4416
H18 H 0.3870 0.7448 0.5034
H19 H 0.3741 0.6101 0.4548
O5 O 0.5612(10) 0.4112(17) 0.5404(9)
H20 H 0.5439 0.3792 0.5743
C17D C 0.4953(19) 0.520(3) 0.5081(16)
H13D H 0.5351 0.5853 0.5250
H14D H 0.4746 0.4860 0.5488
C18D C 0.5302(13) 0.402(2) 0.4720(13)
H15D H 0.5545 0.4387 0.4327
H16D H 0.4900 0.3370 0.4520
C19D C 0.5882(14) 0.325(3) 0.5225(13)
H17D H 0.5632 0.2788 0.5584
H18D H 0.6130 0.2552 0.4966
H19D H 0.6259 0.3899 0.5452
O5D O 0.4388(10) 0.5888(17) 0.4596(9)
H20D H 0.4561 0.6208 0.4257
C1 C 0.3704(3) 0.7716(5) 0.2877(3)
C2 C 0.2948(3) 0.7707(6) 0.3117(3)
C3 C 0.2518(3) 0.8900(6) 0.3101(3)
H1 H 0.2693 0.9719 0.2905
C4 C 0.1846(3) 0.8922(7) 0.3360(3)
H2 H 0.1564 0.9755 0.3351
C5 C 0.1579(4) 0.7741(8) 0.3634(4)
H3 H 0.1133 0.7771 0.3849
C6 C 0.1969(4) 0.6479(8) 0.3594(4)
H4 H 0.1759 0.5637 0.3732
C7 C 0.2657(4) 0.6484(7) 0.3354(4)
H5 H 0.2935 0.5649 0.3349
C8 C 0.4377(3) 0.7853(5) 0.1223(3)
C9 C 0.3973(4) 0.7898(6) 0.0492(3)
C10 C 0.3984(3) 0.9081(6) 0.0090(3)
H6 H 0.4258 0.9868 0.0281
C11 C 0.3600(4) 0.9127(6) -0.0590(3)
H7 H 0.3618 0.9945 -0.0861
C12 C 0.3195(4) 0.8011(7) -0.0877(4)
H8 H 0.2937 0.8048 -0.1345
C13 C 0.3168(5) 0.6837(9) -0.0477(4)
H9 H 0.2889 0.6056 -0.0669
C14 C 0.3547(5) 0.6791(8) 0.0203(4)
H10 H 0.3514 0.5982 0.0478
C15 C 0.4641(3) 1.2048(5) 0.2944(3)
H11 H 0.4382 1.1565 0.3267
C16 C 0.4638(3) 1.3482(5) 0.2942(3)
H12 H 0.4372 1.3961 0.3263
Cu1 Cu 0.5000 0.91153(7) 0.2500
Cu2 Cu 0.5000 1.64435(8) 0.2500
N1 N 0.5000 1.1336(6) 0.2500
N2 N 0.5000 1.4205(5) 0.2500
O1 O 0.3955(2) 0.8860(3) 0.2701(2)
O2 O 0.4051(2) 0.6578(4) 0.2879(2)
O3 O 0.4633(2) 0.8979(3) 0.14942(19)
O4 O 0.4439(2) 0.6698(4) 0.1537(2)
C1B C 0.6296(3) 0.7716(5) 0.2123(3)
C2B C 0.7052(3) 0.7707(6) 0.1883(3)
C3B C 0.7482(3) 0.8900(6) 0.1899(3)
H1B H 0.7307 0.9719 0.2095
C4B C 0.8154(3) 0.8922(7) 0.1640(3)
H2B H 0.8436 0.9755 0.1649
C5B C 0.8421(4) 0.7741(8) 0.1366(4)
H3B H 0.8867 0.7771 0.1151
C6B C 0.8031(4) 0.6479(8) 0.1406(4)
H4B H 0.8241 0.5637 0.1268
C7B C 0.7343(4) 0.6484(7) 0.1646(4)
H5B H 0.7065 0.5649 0.1651
C8B C 0.5623(3) 0.7853(5) 0.3777(3)
C9B C 0.6027(4) 0.7898(6) 0.4508(3)
C10B C 0.6016(3) 0.9081(6) 0.4910(3)
H6B H 0.5742 0.9868 0.4719
C11B C 0.6400(4) 0.9127(6) 0.5590(3)
H7B H 0.6382 0.9945 0.5861
C12B C 0.6805(4) 0.8011(7) 0.5877(4)
H8B H 0.7063 0.8048 0.6345
C13B C 0.6832(5) 0.6837(9) 0.5477(4)
H9B H 0.7111 0.6056 0.5669
C14B C 0.6453(5) 0.6791(8) 0.4797(4)
H10B H 0.6486 0.5982 0.4522
C15B C 0.5359(3) 1.2048(5) 0.2056(3)
H11B H 0.5618 1.1565 0.1733
C16B C 0.5362(3) 1.3482(5) 0.2058(3)
H12B H 0.5628 1.3961 0.1737
Cu1_2 Cu 0.5000 1.91153(7) 0.2500
Cu2_2 Cu 0.5000 0.64435(8) 0.2500
O1B O 0.6045(2) 0.8860(3) 0.2299(2)
O2B O 0.5949(2) 0.6578(4) 0.2121(2)
O2_2 O 0.4051(2) 1.6578(4) 0.2879(2)
O2B_2 O 0.5949(2) 1.6578(4) 0.2121(2)
O3B O 0.5367(2) 0.8979(3) 0.35058(19)
O4B O 0.5561(2) 0.6698(4) 0.3463(2)
O4_2 O 0.4439(2) 1.6698(4) 0.1537(2)
O4B_2 O 0.5561(2) 1.6698(4) 0.3463(2)
loop_
_geom_bond_atom_site_label_1
_geom_bond_atom_site_label_2
_geom_bond_site_symmetry_1
_geom_bond_site_symmetry_2
C1 C2 1_555 1_555
C2 C3 1_555 1_555
C3 H1 1_555 1_555
C4 C3 1_555 1_555
H2 C4 1_555 1_555
C5 C4 1_555 1_555
H3 C5 1_555 1_555
C6 C5 1_555 1_555
H4 C6 1_555 1_555
C7 C2 1_555 1_555
H5 C7 1_555 1_555
C8 C9 1_555 1_555
C9 C10 1_555 1_555
C10 H6 1_555 1_555
C11 C10 1_555 1_555
H7 C11 1_555 1_555
C12 C11 1_555 1_555
H8 C12 1_555 1_555
C13 C12 1_555 1_555
H9 C13 1_555 1_555
C14 C9 1_555 1_555
H10 C14 1_555 1_555
C15 H11 1_555 1_555
C16 C15 1_555 1_555
H12 C16 1_555 1_555
C17 H13 1_555 1_555
H13 C17D 1_555 1_555
H14 C17 1_555 1_555
C18 C17 1_555 1_555
H15 C18 1_555 1_555
H16 C18 1_555 1_555
C19 C18 1_555 1_555
H17 C19 1_555 1_555
H18 C19 1_555 1_555
H19 C19 1_555 1_555
Cu1 N1 1_555 1_555
Cu2 N2 1_555 1_555
N1 C15 1_555 1_555
N2 C16 1_555 1_555
O1 C1 1_555 1_555
O2 C1 1_555 1_555
O3 C8 1_555 1_555
O4 C8 1_555 1_555
O5 C17 1_555 1_555
H20 O5 1_555 1_555
C1B C2B 1_555 1_555
C2B C3B 1_555 1_555
C3B H1B 1_555 1_555
C4B C3B 1_555 1_555
H2B C4B 1_555 1_555
C5B C4B 1_555 1_555
H3B C5B 1_555 1_555
C6B C5B 1_555 1_555
H4B C6B 1_555 1_555
C7B C2B 1_555 1_555
H5B C7B 1_555 1_555
C8B C9B 1_555 1_555
C9B C10B 1_555 1_555
C10B H6B 1_555 1_555
C11B C10B 1_555 1_555
H7B C11B 1_555 1_555
C12B C11B 1_555 1_555
H8B C12B 1_555 1_555
C13B C12B 1_555 1_555
H9B C13B 1_555 1_555
C14B C9B 1_555 1_555
H10B C14B 1_555 1_555
C15B N1 1_555 1_555
H11B C15B 1_555 1_555
C16B N2 1_555 1_555
H12B C16B 1_555 1_555
C17D C17 1_555 1_555
H13D C17 1_555 1_555
H14D C17 1_555 1_555
C18D C17 1_555 1_555
H15D C18D 1_555 1_555
H16D C18D 1_555 1_555
C19D O5 1_555 1_555
H17D C19D 1_555 1_555
H18D C19D 1_555 1_555
H19D O5 1_555 1_555
Cu1_2 Cu2 1_555 1_555
Cu2_2 Cu1 1_555 1_555
O1B Cu1 1_555 1_555
O2B C1B 1_555 1_555
O2_2 Cu2 1_555 1_555
O2B_2 Cu2 1_555 1_555
O3B Cu1 1_555 1_555
O4B C8B 1_555 1_555
O4_2 Cu2 1_555 1_555
O4B_2 Cu2 1_555 1_555
O5D C17 1_555 1_555
H20D O5D 1_555 1_555
C6 C7 1_555 1_555
C13 C14 1_555 1_555
H13 C18D 1_555 1_555
H14 C17D 1_555 1_555
H14 C18D 1_555 1_555
C18 C17D 1_555 1_555
C18 H13D 1_555 1_555
C18 H14D 1_555 1_555
C18 O5D 1_555 1_555
C19 O5D 1_555 1_555
H19 O5D 1_555 1_555
Cu1 O1 1_555 1_555
Cu1 O3 1_555 1_555
O2 Cu2_2 1_555 1_555
O4 Cu2_2 1_555 1_555
O5 C17D 1_555 1_555
O5 C18D 1_555 1_555
C1B O1B 1_555 1_555
C6B C7B 1_555 1_555
C8B O3B 1_555 1_555
C13B C14B 1_555 1_555
C15B C16B 1_555 1_555
C17D H13D 1_555 1_555
C17D H14D 1_555 1_555
C17D C18D 1_555 1_555
C17D O5D 1_555 1_555
C18D C19D 1_555 1_555
C19D H19D 1_555 1_555
Cu2_2 O2B 1_555 1_555
Cu2_2 O4B 1_555 1_555

#END
