
#######################################################################
#
#                 Cambridge Crystallographic Data Centre
#                                CCDC 
#
#######################################################################
#
# If this CIF has been generated from an entry in the Cambridge 
# Structural Database, then it will include bibliographic, chemical, 
# crystal, experimental, refinement or atomic coordinate data resulting 
# from the CCDC's data processing and validation procedures.
#
#######################################################################

data_NIFTEC
_chemical_formula_moiety         '(C32 H24 N2 O8 Rh2)n,0.47n(C3 H8 O1)'
_chemical_name_systematic        
"catena-(tetrakis(\m~2~-benzoato-O,O')-(\m~2~-pyrazine-N,N')-di-rhodium(ii) n-propanol clathrate)"
_symmetry_cell_setting           monoclinic
_symmetry_space_group_name_H-M   'C 2/c'
_symmetry_Int_Tables_number      15
_space_group_name_Hall           '-C 2yc'
loop_
_symmetry_equiv_pos_site_id
_symmetry_equiv_pos_as_xyz
1 x,y,z
2 1/2+x,1/2+y,z
3 -x,y,1/2-z
4 1/2-x,1/2+y,1/2-z
5 -x,-y,-z
6 1/2-x,1/2-y,-z
7 x,-y,1/2+z
8 1/2+x,1/2-y,1/2+z
_cell_length_a                   17.837(2)
_cell_length_b                   9.5841(12)
_cell_length_c                   19.574(2)
_cell_angle_alpha                90
_cell_angle_beta                 99.048(2)
_cell_angle_gamma                90
_cell_volume                     3304.57
_exptl_crystal_colour            red
_exptl_crystal_description       plate
_cell_formula_units_Z            4
loop_
_atom_site_label
_atom_site_type_symbol
_atom_site_fract_x
_atom_site_fract_y
_atom_site_fract_z
C17 C 0.511(3) 0.469(4) 0.494(3)
H13 H 0.4714 0.4003 0.4760
H14 H 0.5366 0.4995 0.4554
H15 H 0.4835 0.3479 0.4497
H16 H 0.5481 0.4496 0.4304
C18 C 0.474(2) 0.595(4) 0.524(2)
C19 C 0.414(2) 0.675(5) 0.475(2)
H17 H 0.4319 0.6902 0.4304
H18 H 0.4043 0.7653 0.4952
H19 H 0.3666 0.6209 0.4667
O5 O 0.5648(17) 0.404(3) 0.5455(16)
H20 H 0.5746 0.4578 0.5798
C17D C 0.489(3) 0.531(4) 0.506(3)
H13D H 0.5286 0.5997 0.5240
H14D H 0.4634 0.5005 0.5446
H15D H 0.5165 0.6521 0.5503
H16D H 0.4519 0.5504 0.5696
C18D C 0.526(2) 0.405(4) 0.476(2)
C19D C 0.586(2) 0.325(5) 0.525(2)
H17D H 0.5681 0.3098 0.5696
H18D H 0.5957 0.2347 0.5048
H19D H 0.6334 0.3791 0.5333
O5D O 0.4352(17) 0.596(3) 0.4545(16)
H20D H 0.4254 0.5422 0.4202
C1 C 0.3649(4) 0.7770(8) 0.2871(4)
C2 C 0.2909(4) 0.7752(9) 0.3106(4)
C3 C 0.2493(4) 0.8979(8) 0.3121(4)
H1 H 0.2674 0.9822 0.2950
C4 C 0.1814(4) 0.8975(9) 0.3383(4)
H2 H 0.1532 0.9814 0.3389
C5 C 0.1550(4) 0.7766(9) 0.3634(4)
H3 H 0.1102 0.7787 0.3840
C6 C 0.1935(4) 0.6496(9) 0.3591(4)
H4 H 0.1734 0.5647 0.3735
C7 C 0.2615(4) 0.6512(9) 0.3332(4)
H5 H 0.2886 0.5665 0.3307
C8 C 0.4366(5) 0.7795(9) 0.1204(4)
C9 C 0.3966(5) 0.7834(10) 0.0482(5)
C10 C 0.3960(5) 0.9028(10) 0.0085(5)
H6 H 0.4216 0.9840 0.0279
C11 C 0.3588(5) 0.9057(10) -0.0587(5)
H7 H 0.3607 0.9879 -0.0855
C12 C 0.3190(5) 0.7917(10) -0.0878(5)
H8 H 0.2907 0.7961 -0.1332
C13 C 0.3213(5) 0.6722(11) -0.0495(5)
H9 H 0.2981 0.5899 -0.0702
C14 C 0.3568(5) 0.6684(11) 0.0188(5)
H10 H 0.3537 0.5866 0.0457
C15 C 0.4635(4) 1.2056(7) 0.2929(4)
H11 H 0.4371 1.1575 0.3243
C16 C 0.4632(4) 1.3489(7) 0.2929(3)
H12 H 0.4363 1.3968 0.3240
N1 N 0.5000 1.1309(9) 0.2500
N2 N 0.5000 1.4237(9) 0.2500
O1 O 0.3940(3) 0.8948(5) 0.2764(3)
O2 O 0.3968(3) 0.6598(6) 0.2807(3)
O3 O 0.4545(3) 0.8968(6) 0.1484(3)
O4 O 0.4486(3) 0.6619(6) 0.1498(3)
Rh1 Rh 0.5000 0.90322(8) 0.2500
Rh2 Rh 0.5000 1.65351(8) 0.2500
C1B C 0.6351(4) 0.7770(8) 0.2129(4)
C2B C 0.7091(4) 0.7752(9) 0.1894(4)
C3B C 0.7507(4) 0.8979(8) 0.1879(4)
H1B H 0.7326 0.9822 0.2050
C4B C 0.8186(4) 0.8975(9) 0.1617(4)
H2B H 0.8468 0.9814 0.1611
C5B C 0.8450(4) 0.7766(9) 0.1366(4)
H3B H 0.8898 0.7787 0.1160
C6B C 0.8065(4) 0.6496(9) 0.1409(4)
H4B H 0.8266 0.5647 0.1265
C7B C 0.7385(4) 0.6512(9) 0.1668(4)
H5B H 0.7114 0.5665 0.1693
C8B C 0.5634(5) 0.7795(9) 0.3796(4)
C9B C 0.6034(5) 0.7834(10) 0.4518(5)
C10B C 0.6040(5) 0.9028(10) 0.4915(5)
H6B H 0.5784 0.9840 0.4721
C11B C 0.6412(5) 0.9057(10) 0.5587(5)
H7B H 0.6393 0.9879 0.5855
C12B C 0.6810(5) 0.7917(10) 0.5878(5)
H8B H 0.7093 0.7961 0.6332
C13B C 0.6787(5) 0.6722(11) 0.5495(5)
H9B H 0.7019 0.5899 0.5702
C14B C 0.6432(5) 0.6684(11) 0.4812(5)
H10B H 0.6463 0.5866 0.4543
C15B C 0.5365(4) 1.2056(7) 0.2071(4)
H11B H 0.5629 1.1575 0.1757
C16B C 0.5368(4) 1.3489(7) 0.2071(3)
H12B H 0.5637 1.3968 0.1760
O1B O 0.6060(3) 0.8948(5) 0.2236(3)
O2B O 0.6032(3) 0.6598(6) 0.2193(3)
O2_2 O 0.3968(3) 1.6598(6) 0.2807(3)
O2B_2 O 0.6032(3) 1.6598(6) 0.2193(3)
O3B O 0.5455(3) 0.8968(6) 0.3516(3)
O4B O 0.5514(3) 0.6619(6) 0.3502(3)
O4_2 O 0.4486(3) 1.6619(6) 0.1498(3)
O4B_2 O 0.5514(3) 1.6619(6) 0.3502(3)
Rh1_2 Rh 0.5000 1.90322(8) 0.2500
Rh2_2 Rh 0.5000 0.65351(8) 0.2500
loop_
_geom_bond_atom_site_label_1
_geom_bond_atom_site_label_2
_geom_bond_site_symmetry_1
_geom_bond_site_symmetry_2
C1 C2 1_555 1_555
C2 C3 1_555 1_555
C3 H1 1_555 1_555
C4 C3 1_555 1_555
H2 C4 1_555 1_555
C5 C4 1_555 1_555
H3 C5 1_555 1_555
C6 C5 1_555 1_555
H4 C6 1_555 1_555
C7 C2 1_555 1_555
H5 C7 1_555 1_555
C8 C9 1_555 1_555
C9 C10 1_555 1_555
C10 H6 1_555 1_555
C11 C10 1_555 1_555
H7 C11 1_555 1_555
C12 C11 1_555 1_555
H8 C12 1_555 1_555
C13 C12 1_555 1_555
H9 C13 1_555 1_555
C14 C9 1_555 1_555
H10 C14 1_555 1_555
C15 H11 1_555 1_555
C16 C15 1_555 1_555
H12 C16 1_555 1_555
C17 H13 1_555 1_555
H13 H15 1_555 1_555
H14 C17 1_555 1_555
H15 C18D 1_555 1_555
H16 H14 1_555 1_555
C18 C17 1_555 1_555
C19 C18 1_555 1_555
H17 C19 1_555 1_555
H18 C19 1_555 1_555
H19 C19 1_555 1_555
N1 C15 1_555 1_555
N2 C16 1_555 1_555
O1 C1 1_555 1_555
O2 C1 1_555 1_555
O3 C8 1_555 1_555
O4 C8 1_555 1_555
O5 C17 1_555 1_555
H20 O5 1_555 1_555
Rh1 N1 1_555 1_555
Rh2 N2 1_555 1_555
C1B C2B 1_555 1_555
C2B C3B 1_555 1_555
C3B H1B 1_555 1_555
C4B C3B 1_555 1_555
H2B C4B 1_555 1_555
C5B C4B 1_555 1_555
H3B C5B 1_555 1_555
C6B C5B 1_555 1_555
H4B C6B 1_555 1_555
C7B C2B 1_555 1_555
H5B C7B 1_555 1_555
C8B C9B 1_555 1_555
C9B C10B 1_555 1_555
C10B H6B 1_555 1_555
C11B C10B 1_555 1_555
H7B C11B 1_555 1_555
C12B C11B 1_555 1_555
H8B C12B 1_555 1_555
C13B C12B 1_555 1_555
H9B C13B 1_555 1_555
C14B C9B 1_555 1_555
H10B C14B 1_555 1_555
C15B N1 1_555 1_555
H11B C15B 1_555 1_555
C16B N2 1_555 1_555
H12B C16B 1_555 1_555
C17D C17 1_555 1_555
H13D C18 1_555 1_555
H14D C18 1_555 1_555
H15D C18 1_555 1_555
H16D C18 1_555 1_555
C18D C17 1_555 1_555
C19D O5 1_555 1_555
H17D O5 1_555 1_555
H18D C19D 1_555 1_555
H19D O5 1_555 1_555
O1B Rh1 1_555 1_555
O2B C1B 1_555 1_555
O2_2 Rh2 1_555 1_555
O2B_2 Rh2 1_555 1_555
O3B Rh1 1_555 1_555
O4B C8B 1_555 1_555
O4_2 Rh2 1_555 1_555
O4B_2 Rh2 1_555 1_555
O5D C18 1_555 1_555
H20D O5D 1_555 1_555
Rh1_2 Rh2 1_555 1_555
Rh2_2 O2 1_555 1_555
C6 C7 1_555 1_555
C13 C14 1_555 1_555
H13 C18D 1_555 1_555
H14 C18D 1_555 1_555
H16 C18D 1_555 1_555
C18 C17D 1_555 1_555
C19 O5D 1_555 1_555
H17 O5D 1_555 1_555
H19 O5D 1_555 1_555
O1 Rh1 1_555 1_555
O3 Rh1 1_555 1_555
O4 Rh2_2 1_555 1_555
O5 C18D 1_555 1_555
Rh1 Rh2_2 1_555 1_555
C1B O1B 1_555 1_555
C6B C7B 1_555 1_555
C8B O3B 1_555 1_555
C13B C14B 1_555 1_555
C15B C16B 1_555 1_555
C17D H13D 1_555 1_555
C17D H14D 1_555 1_555
C17D C18D 1_555 1_555
C17D O5D 1_555 1_555
H13D H15D 1_555 1_555
H14D H16D 1_555 1_555
C18D C19D 1_555 1_555
C19D H17D 1_555 1_555
C19D H19D 1_555 1_555
O2B Rh2_2 1_555 1_555
O4B Rh2_2 1_555 1_555

#END
