
#######################################################################
#
#                 Cambridge Crystallographic Data Centre
#                                CCDC 
#
#######################################################################
#
# If this CIF has been generated from an entry in the Cambridge 
# Structural Database, then it will include bibliographic, chemical, 
# crystal, experimental, refinement or atomic coordinate data resulting 
# from the CCDC's data processing and validation procedures.
#
#######################################################################

data_NIFVAA
_chemical_formula_moiety         '(C32 H24 Cu2 N2 O8)n,n(C4 H10 O1)'
_chemical_name_systematic        
"catena-(tetrakis(\m~2~-benzoato-O,O')-(\m~2~-pyrazine-N,N')-di-copper(ii) n-butanol clathrate)"
_symmetry_cell_setting           triclinic
_symmetry_space_group_name_H-M   'P -1'
_symmetry_Int_Tables_number      2
_space_group_name_Hall           '-P 1'
loop_
_symmetry_equiv_pos_site_id
_symmetry_equiv_pos_as_xyz
1 x,y,z
2 -x,-y,-z
_cell_length_a                   9.699(3)
_cell_length_b                   9.981(3)
_cell_length_c                   10.908(3)
_cell_angle_alpha                69.085(7)
_cell_angle_beta                 66.425(6)
_cell_angle_gamma                63.868(5)
_cell_volume                     847.654
_exptl_crystal_colour            blue
_exptl_crystal_description       plate
_cell_formula_units_Z            1
loop_
_atom_site_label
_atom_site_type_symbol
_atom_site_fract_x
_atom_site_fract_y
_atom_site_fract_z
C17 C 0.395(3) 0.341(3) 1.013(3)
H13 H 0.4835 0.2561 0.9716
H14 H 0.3203 0.2991 1.0948
C18 C 0.460(6) 0.438(4) 1.048(4)
C19 C 0.541(6) 0.545(5) 0.941(4)
H17 H 0.3643 0.5116 1.1242
H18 H 0.5339 0.3739 1.1105
C20 C 0.410(3) 0.386(3) 0.993(3)
H19 H 0.4979 0.3536 0.9124
H20 H 0.3833 0.2976 1.0575
H21 H 0.3157 0.4618 0.9633
O5 O 0.3129(17) 0.4529(17) 0.9154(14)
H22 H 0.2266 0.5124 0.9563
C17A C 0.605(3) 0.659(3) 0.987(3)
H13A H 0.5165 0.7439 1.0284
H14A H 0.6797 0.7009 0.9052
C18A C 0.540(6) 0.562(4) 0.952(4)
C19A C 0.459(6) 0.455(5) 1.059(4)
H17A H 0.6357 0.4884 0.8758
H18A H 0.4661 0.6261 0.8895
C20A C 0.590(3) 0.614(3) 1.007(3)
H19A H 0.5021 0.6464 1.0876
H20A H 0.6167 0.7024 0.9425
H21A H 0.6843 0.5382 1.0367
O5A O 0.6871(17) 0.5471(17) 1.0846(14)
H22A H 0.7734 0.4876 1.0437
C1 C 0.8350(8) 0.7529(9) 0.5760(7)
C2 C 0.7308(8) 0.8990(8) 0.6185(7)
C3 C 0.7967(8) 0.9885(8) 0.6352(7)
H1 H 0.9098 0.9581 0.6133
C4 C 0.6991(8) 1.1210(9) 0.6832(7)
H2 H 0.7451 1.1789 0.6972
C5 C 0.5347(9) 1.1691(9) 0.7107(8)
H3 H 0.4668 1.2590 0.7453
C6 C 0.4701(9) 1.0843(9) 0.6872(7)
H4 H 0.3577 1.1196 0.7011
C7 C 0.5660(8) 0.9505(9) 0.6443(7)
H5 H 0.5190 0.8921 0.6321
C8 C 1.0303(8) 0.6419(9) 0.2502(7)
C9 C 1.0487(9) 0.7180(9) 0.1037(8)
C10 C 1.1492(9) 0.8034(9) 0.0364(8)
H6 H 1.2038 0.8150 0.0852
C11 C 1.1700(10) 0.8716(10) -0.1017(8)
H7 H 1.2386 0.9302 -0.1471
C12 C 1.0918(9) 0.8548(10) -0.1735(9)
H8 H 1.1074 0.9002 -0.2685
C13 C 0.9910(9) 0.7719(9) -0.1062(8)
H9 H 0.9354 0.7617 -0.1552
C14 C 0.9691(9) 0.7034(9) 0.0303(8)
H10 H 0.8995 0.6458 0.0749
C15 C 1.3624(8) 0.5675(8) 0.5853(7)
H11 H 1.2664 0.6154 0.6486
C16 C 1.5073(8) 0.5546(8) 0.5911(7)
H12 H 1.5077 0.5960 0.6569
Cu1 Cu 1.12692(9) 0.51887(11) 0.49445(9)
N1 N 1.3530(6) 0.5144(6) 0.4929(5)
O1 O 0.9839(5) 0.7124(6) 0.5527(5)
O2 O 0.7678(5) 0.6754(6) 0.5626(5)
O3 O 1.1293(6) 0.6300(6) 0.3053(5)
O4 O 0.9164(5) 0.5890(6) 0.3134(5)
C1A C 1.1650(8) 0.2471(9) 0.4240(7)
C2A C 1.2692(8) 0.1010(8) 0.3815(7)
C3A C 1.2033(8) 0.0115(8) 0.3648(7)
H1A H 1.0902 0.0419 0.3867
C4A C 1.3009(8) -0.1210(9) 0.3168(7)
H2A H 1.2549 -0.1789 0.3028
C5A C 1.4653(9) -0.1691(9) 0.2893(8)
H3A H 1.5332 -0.2590 0.2547
C6A C 1.5299(9) -0.0843(9) 0.3128(7)
H4A H 1.6423 -0.1196 0.2989
C7A C 1.4340(8) 0.0495(9) 0.3557(7)
H5A H 1.4810 0.1079 0.3679
C8A C 0.9697(8) 0.3581(9) 0.7498(7)
C9A C 0.9513(9) 0.2820(9) 0.8963(8)
C10A C 0.8508(9) 0.1966(9) 0.9636(8)
H6A H 0.7962 0.1850 0.9148
C11A C 0.8300(10) 0.1284(10) 1.1017(8)
H7A H 0.7614 0.0698 1.1471
C12A C 0.9082(9) 0.1452(10) 1.1735(9)
H8A H 0.8926 0.0998 1.2685
C13A C 1.0090(9) 0.2281(9) 1.1062(8)
H9A H 1.0646 0.2383 1.1552
C14A C 1.0309(9) 0.2966(9) 0.9697(8)
H10A H 1.1005 0.3542 0.9251
C15A C 1.6376(8) 0.4325(8) 0.4147(7)
H11A H 1.7336 0.3846 0.3514
C16A C 1.4927(8) 0.4454(8) 0.4089(7)
H12A H 1.4923 0.4040 0.3431
Cu1A Cu 1.87308(9) 0.48113(11) 0.50555(9)
Cu1A_2 Cu 0.87308(9) 0.48113(11) 0.50555(9)
Cu1_2 Cu 2.12692(9) 0.51887(11) 0.49445(9)
N1A N 1.6470(6) 0.4856(6) 0.5071(5)
O1A O 1.0161(5) 0.2876(6) 0.4473(5)
O1A_2 O 2.0161(5) 0.2876(6) 0.4473(5)
O2A O 1.2322(5) 0.3246(6) 0.4374(5)
O2_2 O 1.7678(5) 0.6754(6) 0.5626(5)
O3A O 0.8707(6) 0.3700(6) 0.6947(5)
O3A_2 O 1.8707(6) 0.3700(6) 0.6947(5)
O4A O 1.0836(5) 0.4110(6) 0.6866(5)
O4_2 O 1.9164(5) 0.5890(6) 0.3134(5)
H15? H 0.3676 0.4996 1.1118
H16? H 0.5360 0.3645 1.1012
loop_
_geom_bond_atom_site_label_1
_geom_bond_atom_site_label_2
_geom_bond_site_symmetry_1
_geom_bond_site_symmetry_2
C1 C2 1_555 1_555
C2 C3 1_555 1_555
C3 H1 1_555 1_555
C4 C3 1_555 1_555
H2 C4 1_555 1_555
C5 C4 1_555 1_555
H3 C5 1_555 1_555
C6 C5 1_555 1_555
H4 C6 1_555 1_555
C7 C2 1_555 1_555
H5 C7 1_555 1_555
C8 C9 1_555 1_555
C9 C10 1_555 1_555
C10 H6 1_555 1_555
C11 C10 1_555 1_555
H7 C11 1_555 1_555
C12 C11 1_555 1_555
H8 C12 1_555 1_555
C13 C12 1_555 1_555
H9 C13 1_555 1_555
C14 C9 1_555 1_555
H10 C14 1_555 1_555
C15 H11 1_555 1_555
C16 C15 1_555 1_555
H12 C16 1_555 1_555
C17 H13 1_555 1_555
H13 C20 1_555 1_555
H14 C17 1_555 1_555
C18 C17 1_555 1_555
C19 C18 1_555 1_555
H17 C18 1_555 1_555
H18 C18 1_555 1_555
C20 C17 1_555 1_555
H19 C17 1_555 1_555
H20 C17 1_555 1_555
H21 C17 1_555 1_555
Cu1 N1 1_555 1_555
N1 C15 1_555 1_555
O1 C1 1_555 1_555
O2 C1 1_555 1_555
O3 C8 1_555 1_555
O4 C8 1_555 1_555
O5 C17 1_555 1_555
H22 H21 1_555 1_555
C1A C2A 1_555 1_555
C2A C3A 1_555 1_555
C3A H1A 1_555 1_555
C4A C3A 1_555 1_555
H2A C4A 1_555 1_555
C5A C4A 1_555 1_555
H3A C5A 1_555 1_555
C6A C5A 1_555 1_555
H4A C6A 1_555 1_555
C7A C2A 1_555 1_555
H5A C7A 1_555 1_555
C8A C9A 1_555 1_555
C9A C10A 1_555 1_555
C10A H6A 1_555 1_555
C11A C10A 1_555 1_555
H7A C11A 1_555 1_555
C12A C11A 1_555 1_555
H8A C12A 1_555 1_555
C13A C12A 1_555 1_555
H9A C13A 1_555 1_555
C14A C9A 1_555 1_555
H10A C14A 1_555 1_555
C15A H11A 1_555 1_555
C16A N1 1_555 1_555
H12A C16A 1_555 1_555
C17A H13A 1_555 1_555
H13A C20A 1_555 1_555
H14A C17A 1_555 1_555
C18A C18 1_555 1_555
C19A C18 1_555 1_555
H17A C19 1_555 1_555
H18A C19 1_555 1_555
C20A C19 1_555 1_555
H19A C17A 1_555 1_555
H20A C17A 1_555 1_555
H21A C17A 1_555 1_555
Cu1A Cu1_2 1_555 1_555
Cu1A_2 Cu1 1_555 1_555
N1A C16 1_555 1_555
O1A C1A 1_555 1_555
O1A_2 Cu1A 1_555 1_555
O2A Cu1 1_555 1_555
O2_2 Cu1A 1_555 1_555
O3A C8A 1_555 1_555
O3A_2 Cu1A 1_555 1_555
O4A Cu1 1_555 1_555
O4_2 Cu1A 1_555 1_555
O5A C17A 1_555 1_555
H22A H21A 1_555 1_555
C6 C7 1_555 1_555
C13 C14 1_555 1_555
H14 H20 1_555 1_555
C18 C20 1_555 1_555
C19 C18A 1_555 1_555
C19 C19A 1_555 1_555
H17 C19A 1_555 1_555
H18 C19A 1_555 1_555
C20 H19 1_555 1_555
C20 H20 1_555 1_555
C20 H21 1_555 1_555
C20 O5 1_555 1_555
C20 C19A 1_555 1_555
H21 O5 1_555 1_555
Cu1 O1 1_555 1_555
Cu1 O3 1_555 1_555
O2 Cu1A_2 1_555 1_555
O4 Cu1A_2 1_555 1_555
O5 H22 1_555 1_555
C1A O2A 1_555 1_555
C6A C7A 1_555 1_555
C8A O4A 1_555 1_555
C13A C14A 1_555 1_555
C15A C16A 1_555 1_555
C15A N1A 1_555 1_555
C17A C18A 1_555 1_555
C17A C20A 1_555 1_555
H14A H20A 1_555 1_555
C18A C19A 1_555 1_555
C18A H17A 1_555 1_555
C18A H18A 1_555 1_555
C18A C20A 1_555 1_555
C20A H19A 1_555 1_555
C20A H20A 1_555 1_555
C20A H21A 1_555 1_555
C20A O5A 1_555 1_555
H21A O5A 1_555 1_555
Cu1A N1A 1_555 1_555
Cu1A_2 O1A 1_555 1_555
Cu1A_2 O3A 1_555 1_555
O5A H22A 1_555 1_555

#END
