
#######################################################################
#
#                 Cambridge Crystallographic Data Centre
#                                CCDC 
#
#######################################################################
#
# If this CIF has been generated from an entry in the Cambridge 
# Structural Database, then it will include bibliographic, chemical, 
# crystal, experimental, refinement or atomic coordinate data resulting 
# from the CCDC's data processing and validation procedures.
#
#######################################################################

data_NIFVEE
_chemical_formula_moiety         '(C32 H24 Cu2 N2 O8)n,0.88n(C5 H12 O1)'
_chemical_name_systematic        
"catena-(tetrakis(\m~2~-benzoato-O,O')-(\m~2~-pyrazine-N,N')-di-copper(ii) 1-pentanol clathrate)"
_symmetry_cell_setting           triclinic
_symmetry_space_group_name_H-M   'P -1'
_symmetry_Int_Tables_number      2
_space_group_name_Hall           '-P 1'
loop_
_symmetry_equiv_pos_site_id
_symmetry_equiv_pos_as_xyz
1 x,y,z
2 -x,-y,-z
_cell_length_a                   9.692(9)
_cell_length_b                   10.116(10)
_cell_length_c                   10.957(10)
_cell_angle_alpha                68.326(16)
_cell_angle_beta                 65.453(16)
_cell_angle_gamma                63.096(16)
_cell_volume                     849.361
_exptl_crystal_colour            blue
_exptl_crystal_description       plate
_cell_formula_units_Z            1
loop_
_atom_site_label
_atom_site_type_symbol
_atom_site_fract_x
_atom_site_fract_y
_atom_site_fract_z
C17 C 0.433(5) 0.429(4) 0.944(4)
H13 H 0.3403 0.5120 0.9132
H14 H 0.5245 0.4076 0.8594
C18 C 0.481(8) 0.493(7) 1.019(5)
H15 H 0.5534 0.4069 1.0706
H16 H 0.3822 0.5431 1.0873
C19 C 0.434(5) 0.395(5) 1.072(4)
H17 H 0.5220 0.3025 1.1007
H18 H 0.3653 0.4361 1.1556
C20 C 0.331(6) 0.333(5) 1.052(4)
H19 H 0.3879 0.2239 1.0494
H20 H 0.2261 0.3457 1.1262
C21 C 0.308(5) 0.431(4) 0.914(3)
H21 H 0.3980 0.4678 0.8608
H22 H 0.3042 0.3703 0.8640
H23 H 0.2055 0.5174 0.9287
O5 O 0.389(4) 0.297(3) 1.009(3)
H24 H 0.3047 0.3124 0.9939
C17A C 0.567(5) 0.571(4) 1.056(4)
H13A H 0.6597 0.4880 1.0868
H14A H 0.4755 0.5924 1.1406
C18A C 0.519(8) 0.507(7) 0.981(5)
H15A H 0.4466 0.5931 0.9294
H16A H 0.6178 0.4569 0.9127
C19A C 0.566(5) 0.605(5) 0.928(4)
H17A H 0.4780 0.6975 0.8993
H18A H 0.6347 0.5639 0.8444
C20A C 0.669(6) 0.667(5) 0.948(4)
H19A H 0.6121 0.7761 0.9506
H20A H 0.7739 0.6543 0.8738
C21A C 0.692(5) 0.569(4) 1.086(3)
H21A H 0.6020 0.5322 1.1392
H22A H 0.6958 0.6297 1.1360
H23A H 0.7945 0.4826 1.0713
O5A O 0.611(4) 0.703(3) 0.991(3)
H24A H 0.6953 0.6876 1.0061
O1 O 1.0786(13) 0.4057(12) 0.6878(11)
C1 C 0.846(2) 0.191(2) 0.9600(19)
H1 H 0.7953 0.1773 0.9101
C2 C 0.825(3) 0.123(2) 1.099(2)
H2 H 0.7597 0.0616 1.1444
C3 C 0.942(2) 0.280(2) 0.8961(18)
C4 C 1.016(2) 0.295(2) 0.9718(18)
H3 H 1.0849 0.3534 0.9280
C5 C 0.962(2) 0.3585(18) 0.7457(17)
O2 O 0.8622(13) 0.3743(12) 0.6910(10)
O3 O 1.2326(12) 0.3222(12) 0.4407(11)
C6 C 1.290(2) -0.1135(17) 0.3208(16)
H4 H 1.2424 -0.1682 0.3059
C7 C 1.1627(17) 0.2485(17) 0.4265(15)
O4 O 1.0132(12) 0.2974(11) 0.4408(10)
C8 C 1.2612(18) 0.1041(16) 0.3861(14)
C9 C 1.4260(19) 0.0425(17) 0.3638(15)
H5 H 1.4760 0.0946 0.3789
C10 C 1.518(2) -0.0863(18) 0.3222(16)
H6 H 1.6316 -0.1234 0.3087
C11 C 1.454(2) -0.1683(18) 0.2979(16)
H7 H 1.5222 -0.2596 0.2663
C12 C 1.193(2) 0.0191(16) 0.3650(15)
H8 H 1.0793 0.0545 0.3817
C13 C 0.992(2) 0.227(2) 1.1084(19)
H9 H 1.0415 0.2392 1.1601
C14 C 0.896(2) 0.143(2) 1.169(2)
H10 H 0.8788 0.0965 1.2644
C15 C 1.3607(17) 0.5668(15) 0.5840(13)
H11 H 1.2619 0.6167 0.6454
C16 C 1.5014(18) 0.5598(16) 0.5867(15)
H12 H 1.4994 0.6032 0.6511
Cu1 Cu 1.1283(2) 0.5140(2) 0.49755(18)
N1 N 1.3565(14) 0.5064(13) 0.4988(12)
O1A O 0.9214(13) 0.5943(12) 0.3122(11)
C1A C 1.154(2) 0.809(2) 0.0400(19)
H1A H 1.2047 0.8227 0.0899
C2A C 1.175(3) 0.877(2) -0.099(2)
H2A H 1.2403 0.9384 -0.1444
C3A C 1.058(2) 0.720(2) 0.1039(18)
C4A C 0.984(2) 0.705(2) 0.0282(18)
H3A H 0.9151 0.6466 0.0720
C5A C 1.038(2) 0.6415(18) 0.2543(17)
O2A O 1.1378(13) 0.6257(12) 0.3090(10)
O3A O 0.7674(12) 0.6778(12) 0.5593(11)
C6A C 0.710(2) 1.1135(17) 0.6792(16)
H4A H 0.7576 1.1682 0.6941
C7A C 0.8373(17) 0.7515(17) 0.5735(15)
O4A O 0.9868(12) 0.7026(11) 0.5592(10)
C8A C 0.7388(18) 0.8959(16) 0.6139(14)
C9A C 0.5740(19) 0.9575(17) 0.6362(15)
H5A H 0.5240 0.9054 0.6211
C10A C 0.482(2) 1.0863(18) 0.6778(16)
H6A H 0.3684 1.1234 0.6913
C11A C 0.546(2) 1.1683(18) 0.7021(16)
H7A H 0.4778 1.2596 0.7337
C12A C 0.807(2) 0.9809(16) 0.6350(15)
H8A H 0.9207 0.9455 0.6183
C13A C 1.008(2) 0.773(2) -0.1084(19)
H9A H 0.9585 0.7608 -0.1601
C14A C 1.104(2) 0.857(2) -0.169(2)
H10A H 1.1212 0.9035 -0.2644
C15A C 1.6393(17) 0.4332(15) 0.4160(13)
H11A H 1.7381 0.3833 0.3546
C16A C 1.4986(18) 0.4402(16) 0.4133(15)
H12A H 1.5006 0.3968 0.3489
Cu1A Cu 0.8717(2) 0.4860(2) 0.50245(18)
Cu1A_2 Cu 1.8717(2) 0.4860(2) 0.50245(18)
N1A N 1.6435(14) 0.4936(13) 0.5012(12)
N1A_2 N 0.6435(14) 0.4936(13) 0.5012(12)
loop_
_geom_bond_atom_site_label_1
_geom_bond_atom_site_label_2
_geom_bond_site_symmetry_1
_geom_bond_site_symmetry_2
O1 C5 1_555 1_555
C1 H1 1_555 1_555
C2 C1 1_555 1_555
H2 C2 1_555 1_555
C3 C1 1_555 1_555
C4 C3 1_555 1_555
H3 C4 1_555 1_555
C5 C3 1_555 1_555
O2 C5 1_555 1_555
O3 C7 1_555 1_555
C6 H4 1_555 1_555
C7 O4 1_555 1_555
O4 Cu1A 1_555 1_555
C8 C7 1_555 1_555
C9 C8 1_555 1_555
H5 C9 1_555 1_555
C10 C9 1_555 1_555
H6 C10 1_555 1_555
C11 C6 1_555 1_555
H7 C11 1_555 1_555
C12 C6 1_555 1_555
H8 C12 1_555 1_555
C13 C4 1_555 1_555
H9 C13 1_555 1_555
C14 C2 1_555 1_555
H10 C14 1_555 1_555
C15 H11 1_555 1_555
C16 C15 1_555 1_555
H12 C16 1_555 1_555
C17 H13 1_555 1_555
H13 C21 1_555 1_555
H14 C17 1_555 1_555
C18 C17 1_555 1_555
H15 C18 1_555 1_555
H16 C18 1_555 1_555
C19 C17 1_555 1_555
H17 C19 1_555 1_555
H18 C19 1_555 1_555
C20 C17 1_555 1_555
H19 C20 1_555 1_555
H20 C20 1_555 1_555
C21 C17 1_555 1_555
H21 C17 1_555 1_555
H22 C21 1_555 1_555
H23 C21 1_555 1_555
Cu1 O1 1_555 1_555
N1 C15 1_555 1_555
O5 C17 1_555 1_555
H24 C20 1_555 1_555
O1A C5A 1_555 1_555
C1A H1A 1_555 1_555
C2A C1A 1_555 1_555
H2A C2A 1_555 1_555
C3A C1A 1_555 1_555
C4A C3A 1_555 1_555
H3A C4A 1_555 1_555
C5A C3A 1_555 1_555
O2A Cu1 1_555 1_555
O3A C7A 1_555 1_555
C6A H4A 1_555 1_555
C7A O4A 1_555 1_555
O4A Cu1 1_555 1_555
C8A C7A 1_555 1_555
C9A C8A 1_555 1_555
H5A C9A 1_555 1_555
C10A C9A 1_555 1_555
H6A C10A 1_555 1_555
C11A C6A 1_555 1_555
H7A C11A 1_555 1_555
C12A C6A 1_555 1_555
H8A C12A 1_555 1_555
C13A C4A 1_555 1_555
H9A C13A 1_555 1_555
C14A C2A 1_555 1_555
H10A C14A 1_555 1_555
C15A H11A 1_555 1_555
C16A N1 1_555 1_555
H12A C16A 1_555 1_555
C17A C18 1_555 1_555
H13A C17A 1_555 1_555
H14A C17A 1_555 1_555
C18A C17 1_555 1_555
H15A C18 1_555 1_555
H16A C18A 1_555 1_555
C19A C18 1_555 1_555
H17A C19A 1_555 1_555
H18A C19A 1_555 1_555
C20A C17A 1_555 1_555
H19A C20A 1_555 1_555
H20A C20A 1_555 1_555
C21A C17A 1_555 1_555
H21A C17A 1_555 1_555
H22A C21A 1_555 1_555
H23A C21A 1_555 1_555
Cu1A O2 1_555 1_555
Cu1A_2 N1A 1_555 1_555
N1A C16 1_555 1_555
N1A_2 Cu1A 1_555 1_555
O5A C17A 1_555 1_555
H24A C20A 1_555 1_555
O3 Cu1 1_555 1_555
C8 C12 1_555 1_555
C10 C11 1_555 1_555
C13 C14 1_555 1_555
H13 H21 1_555 1_555
C18 C19 1_555 1_555
C18 C18A 1_555 1_555
H15 C19 1_555 1_555
H15 C18A 1_555 1_555
C19 C20 1_555 1_555
C19 O5 1_555 1_555
C19 C18A 1_555 1_555
C20 C21 1_555 1_555
C20 O5 1_555 1_555
H19 O5 1_555 1_555
C21 H21 1_555 1_555
C21 O5 1_555 1_555
C21 H24 1_555 1_555
Cu1 N1 1_555 1_555
Cu1 Cu1A 1_555 1_555
O5 H24 1_555 1_555
O1A Cu1A 1_555 1_555
C5A O2A 1_555 1_555
O3A Cu1A 1_555 1_555
C8A C12A 1_555 1_555
C10A C11A 1_555 1_555
C13A C14A 1_555 1_555
C15A C16A 1_555 1_555
C15A N1A 1_555 1_555
C17A C18A 1_555 1_555
C17A C19A 1_555 1_555
H13A C21A 1_555 1_555
H13A H21A 1_555 1_555
C18A H15A 1_555 1_555
C18A C19A 1_555 1_555
H15A C19A 1_555 1_555
C19A C20A 1_555 1_555
C19A O5A 1_555 1_555
C20A C21A 1_555 1_555
C20A O5A 1_555 1_555
H19A O5A 1_555 1_555
C21A H21A 1_555 1_555
C21A O5A 1_555 1_555
C21A H24A 1_555 1_555
O5A H24A 1_555 1_555

#END
