
#######################################################################
#
#                 Cambridge Crystallographic Data Centre
#                                CCDC 
#
#######################################################################
#
# If this CIF has been generated from an entry in the Cambridge 
# Structural Database, then it will include bibliographic, chemical, 
# crystal, experimental, refinement or atomic coordinate data resulting 
# from the CCDC's data processing and validation procedures.
#
#######################################################################

data_NIKXOV
_chemical_formula_moiety         '(C32 H24 Cu2 N2 O8)n,2n(C1 H4 O1)'
_chemical_name_systematic        
"catena-(tetrakis(\m~2~-benzoato-O,O')-(\m~2~-pyrazine-N,N')-di-copper(ii) dimethanol clathrate)"
_symmetry_cell_setting           triclinic
_symmetry_space_group_name_H-M   'P -1'
_symmetry_Int_Tables_number      2
_space_group_name_Hall           '-P 1'
loop_
_symmetry_equiv_pos_site_id
_symmetry_equiv_pos_as_xyz
1 x,y,z
2 -x,-y,-z
_cell_length_a                   9.7003(8)
_cell_length_b                   10.0093(9)
_cell_length_c                   10.7582(10)
_cell_angle_alpha                70.432(2)
_cell_angle_beta                 65.339(2)
_cell_angle_gamma                62.375(2)
_cell_volume                     827.981
_exptl_crystal_colour            blue
_exptl_crystal_description       plate
_cell_formula_units_Z            1
loop_
_atom_site_label
_atom_site_type_symbol
_atom_site_fract_x
_atom_site_fract_y
_atom_site_fract_z
C1 C 1.5029(5) 0.4325(5) 0.4105(5)
H1 H 1.5090 0.3834 0.3455
O1 O 1.1443(4) 0.6081(5) 0.3000(4)
O2 O 0.9835(4) 0.7122(4) 0.5498(4)
C2 C 0.4585(6) 1.1028(6) 0.6984(5)
H2 H 0.3433 1.1415 0.7175
C3 C 0.5277(6) 1.1820(6) 0.7217(5)
H3 H 0.4594 1.2729 0.7601
C4 C 0.6960(6) 1.1295(6) 0.6895(5)
H4 H 0.7431 1.1859 0.7034
C5 C 0.7958(6) 0.9947(5) 0.6369(5)
H5 H 0.9114 0.9593 0.6137
C6 C 0.7268(5) 0.9109(5) 0.6179(5)
C7 C 0.8323(5) 0.7594(5) 0.5712(5)
O3 O 0.7619(4) 0.6900(4) 0.5580(4)
C8 C 1.0420(6) 0.6270(5) 0.2468(5)
O4 O 0.9238(4) 0.5841(5) 0.3090(4)
Cu1 Cu 1.13000(6) 0.51241(6) 0.49491(5)
C9 C 1.0614(6) 0.7063(5) 0.0995(5)
C10 C 1.1671(7) 0.7845(6) 0.0350(6)
H6 H 1.2277 0.7861 0.0843
C11 C 1.1843(7) 0.8604(7) -0.1021(6)
H7 H 1.2553 0.9150 -0.1460
C12 C 1.0979(7) 0.8560(6) -0.1738(6)
H8 H 1.1100 0.9072 -0.2675
C13 C 0.9938(7) 0.7774(6) -0.1102(5)
H9 H 0.9355 0.7738 -0.1606
C14 C 0.5565(6) 0.9673(5) 0.6473(5)
H10 H 0.5086 0.9125 0.6322
C15 C 1.6461(5) 0.4261(5) 0.4159(5)
H11 H 1.7483 0.3724 0.3548
N1 N 1.3566(5) 0.5059(4) 0.4944(4)
C16 C 0.9740(6) 0.7038(6) 0.0267(5)
H12 H 0.9005 0.6517 0.0706
C1A C 1.4971(5) 0.5675(5) 0.5895(5)
H1A H 1.4910 0.6166 0.6545
O1A O 0.8557(4) 0.3919(5) 0.7000(4)
O2A O 1.0165(4) 0.2878(4) 0.4502(4)
C2A C 1.5415(6) -0.1028(6) 0.3016(5)
H2A H 1.6567 -0.1415 0.2825
C3A C 1.4723(6) -0.1820(6) 0.2783(5)
H3A H 1.5406 -0.2729 0.2399
C4A C 1.3040(6) -0.1295(6) 0.3105(5)
H4A H 1.2569 -0.1859 0.2966
C5A C 1.2042(6) 0.0053(5) 0.3631(5)
H5A H 1.0886 0.0407 0.3863
C6A C 1.2732(5) 0.0891(5) 0.3821(5)
C7A C 1.1677(5) 0.2406(5) 0.4288(5)
O3A O 1.2381(4) 0.3100(4) 0.4420(4)
C8A C 0.9580(6) 0.3730(5) 0.7532(5)
O4A O 1.0762(4) 0.4159(5) 0.6910(4)
Cu1A Cu 0.87000(6) 0.48759(6) 0.50509(5)
Cu1A_2 Cu 1.87000(6) 0.48759(6) 0.50509(5)
C9A C 0.9386(6) 0.2937(5) 0.9005(5)
C10A C 0.8329(7) 0.2155(6) 0.9650(6)
H6A H 0.7723 0.2139 0.9157
C11A C 0.8157(7) 0.1396(7) 1.1021(6)
H7A H 0.7447 0.0850 1.1460
C12A C 0.9021(7) 0.1440(6) 1.1738(6)
H8A H 0.8900 0.0928 1.2675
C13A C 1.0062(7) 0.2226(6) 1.1102(5)
H9A H 1.0645 0.2262 1.1606
C14A C 1.4435(6) 0.0327(5) 0.3527(5)
H10A H 1.4914 0.0875 0.3678
C15A C 1.3539(5) 0.5739(5) 0.5841(5)
H11A H 1.2517 0.6276 0.6452
N1A N 1.6434(5) 0.4941(4) 0.5056(4)
N1A_2 N 0.6434(5) 0.4941(4) 0.5056(4)
C16A C 1.0260(6) 0.2962(6) 0.9733(5)
H12A H 1.0995 0.3483 0.9294
C17 C 0.6402(18) 0.6719(16) 0.9455(14)
H13 H 0.5575 0.6832 0.9089
H14 H 0.7498 0.6282 0.8808
H15 H 0.6229 0.7724 0.9563
O5 O 0.6261(11) 0.5722(10) 1.0776(9)
H16 H 0.6256 0.4912 1.0710
C18? C 0.590(2) 0.6563(18) 0.9593(16)
H17? H 0.5360 0.7680 0.9506
H18? H 0.7092 0.6271 0.9287
H19? H 0.5535 0.6088 1.0566
O6? O 0.5498(10) 0.6058(10) 0.8758(9)
H20? H 0.6140 0.5152 0.8664
loop_
_geom_bond_atom_site_label_1
_geom_bond_atom_site_label_2
_geom_bond_site_symmetry_1
_geom_bond_site_symmetry_2
C1 H1 1_555 1_555
O1 C8 1_555 1_555
O2 C7 1_555 1_555
C2 H2 1_555 1_555
C3 C2 1_555 1_555
H3 C3 1_555 1_555
C4 C3 1_555 1_555
H4 C4 1_555 1_555
C5 C4 1_555 1_555
H5 C5 1_555 1_555
C6 C5 1_555 1_555
C7 C6 1_555 1_555
O3 C7 1_555 1_555
C8 O4 1_555 1_555
O4 Cu1A 1_555 1_555
Cu1 O1 1_555 1_555
C9 C8 1_555 1_555
C10 C9 1_555 1_555
H6 C10 1_555 1_555
C11 C10 1_555 1_555
H7 C11 1_555 1_555
C12 C11 1_555 1_555
H8 C12 1_555 1_555
C13 C12 1_555 1_555
H9 C13 1_555 1_555
C14 C2 1_555 1_555
H10 C14 1_555 1_555
C15 C1 1_555 1_555
H11 C15 1_555 1_555
N1 C1 1_555 1_555
C16 C9 1_555 1_555
H12 C16 1_555 1_555
C17 H13 1_555 1_555
H14 C17 1_555 1_555
H15 C17 1_555 1_555
O5 C17 1_555 1_555
H16 O5 1_555 1_555
C1A H1A 1_555 1_555
O1A C8A 1_555 1_555
O2A C7A 1_555 1_555
C2A H2A 1_555 1_555
C3A C2A 1_555 1_555
H3A C3A 1_555 1_555
C4A C3A 1_555 1_555
H4A C4A 1_555 1_555
C5A C4A 1_555 1_555
H5A C5A 1_555 1_555
C6A C5A 1_555 1_555
C7A C6A 1_555 1_555
O3A Cu1 1_555 1_555
C8A O4A 1_555 1_555
O4A Cu1 1_555 1_555
Cu1A O3 1_555 1_555
Cu1A_2 N1A 1_555 1_555
C9A C8A 1_555 1_555
C10A C9A 1_555 1_555
H6A C10A 1_555 1_555
C11A C10A 1_555 1_555
H7A C11A 1_555 1_555
C12A C11A 1_555 1_555
H8A C12A 1_555 1_555
C13A C12A 1_555 1_555
H9A C13A 1_555 1_555
C14A C2A 1_555 1_555
H10A C14A 1_555 1_555
C15A N1 1_555 1_555
H11A C15A 1_555 1_555
N1A C15 1_555 1_555
N1A_2 Cu1A 1_555 1_555
C16A C9A 1_555 1_555
H12A C16A 1_555 1_555
O2 Cu1 1_555 1_555
C6 C14 1_555 1_555
Cu1 N1 1_555 1_555
Cu1 Cu1A 1_555 1_555
C13 C16 1_555 1_555
C1A C15A 1_555 1_555
C1A N1A 1_555 1_555
O1A Cu1A 1_555 1_555
O2A Cu1A 1_555 1_555
C6A C14A 1_555 1_555
C7A O3A 1_555 1_555
C13A C16A 1_555 1_555

#END
