
#######################################################################
#
#                 Cambridge Crystallographic Data Centre
#                                CCDC 
#
#######################################################################
#
# If this CIF has been generated from an entry in the Cambridge 
# Structural Database, then it will include bibliographic, chemical, 
# crystal, experimental, refinement or atomic coordinate data resulting 
# from the CCDC's data processing and validation procedures.
#
#######################################################################

data_NIKXIP
_chemical_formula_moiety         '(C32 H24 N2 O8 Rh2)n,2n(C2 H6 O1)'
_chemical_name_systematic        
"catena-(tetrakis(\m~2~-benzoato-O,O')-(\m~2~-pyrazine-N,N')-di-rhodium(ii) diethanol clathrate)"
_symmetry_cell_setting           triclinic
_symmetry_space_group_name_H-M   'P -1'
_symmetry_Int_Tables_number      2
_space_group_name_Hall           '-P 1'
loop_
_symmetry_equiv_pos_site_id
_symmetry_equiv_pos_as_xyz
1 x,y,z
2 -x,-y,-z
_cell_length_a                   9.5854(14)
_cell_length_b                   10.4057(15)
_cell_length_c                   10.7987(16)
_cell_angle_alpha                71.452(3)
_cell_angle_beta                 64.982(3)
_cell_angle_gamma                63.743(3)
_cell_volume                     863.877
_exptl_crystal_colour            red
_exptl_crystal_description       plate
_cell_formula_units_Z            1
loop_
_atom_site_label
_atom_site_type_symbol
_atom_site_fract_x
_atom_site_fract_y
_atom_site_fract_z
O1 O 0.6498(14) 0.6064(12) 1.0747(11)
H1 H 0.5616 0.5899 1.1171
C17 C 0.640(3) 0.7044(15) 0.9481(19)
H14 H 0.5609 0.6971 0.9166
H15 H 0.7493 0.6814 0.8747
C18 C 0.581(2) 0.8572(15) 0.9793(16)
H16 H 0.4693 0.8813 1.0468
H17 H 0.5809 0.9275 0.8937
H18 H 0.6556 0.8605 1.0175
C1 C 0.8300(7) 0.7549(6) 0.5774(6)
C2 C 0.7350(7) 0.9032(6) 0.6127(6)
C3 C 0.8142(7) 0.9821(6) 0.6230(6)
H2 H 0.9296 0.9411 0.6068
C4 C 0.7249(7) 1.1198(6) 0.6568(6)
H3 H 0.7790 1.1733 0.6640
C5 C 0.5557(7) 1.1809(6) 0.6803(6)
H4 H 0.4946 1.2754 0.7046
C6 C 0.4762(7) 1.1036(6) 0.6683(6)
H5 H 0.3611 1.1455 0.6831
C7 C 0.5666(7) 0.9646(6) 0.6345(6)
H6 H 0.5129 0.9113 0.6262
C8 C 1.0469(7) 0.6351(6) 0.2438(6)
C9 C 1.0717(8) 0.7145(7) 0.1000(6)
C10 C 1.1705(8) 0.7986(7) 0.0455(7)
H7 H 1.2207 0.8059 0.1011
C11 C 1.1958(8) 0.8719(7) -0.0901(7)
H8 H 1.2641 0.9284 -0.1277
C12 C 1.1200(8) 0.8615(7) -0.1703(7)
H9 H 1.1366 0.9116 -0.2628
C13 C 1.0216(8) 0.7793(7) -0.1163(7)
H10 H 0.9712 0.7722 -0.1719
C14 C 0.9959(8) 0.7070(7) 0.0184(7)
H11 H 0.9262 0.6519 0.0558
C15 C 1.3537(7) 0.5660(6) 0.5897(6)
H12 H 1.2519 0.6149 0.6537
C16 C 1.4986(7) 0.5597(6) 0.5931(6)
H13 H 1.4937 0.6019 0.6617
N1 N 1.3534(6) 0.5036(5) 0.4967(5)
O2 O 0.9844(5) 0.7018(4) 0.5611(4)
O3 O 0.7530(5) 0.6896(4) 0.5652(4)
O4 O 1.1545(5) 0.6087(4) 0.2975(4)
O5 O 0.9225(5) 0.5969(4) 0.3026(4)
Rh1 Rh 1.12308(5) 0.50592(4) 0.49760(4)
C1A C 1.1700(7) 0.2451(6) 0.4226(6)
C2A C 1.2650(7) 0.0968(6) 0.3873(6)
C3A C 1.1858(7) 0.0179(6) 0.3770(6)
H2A H 1.0704 0.0589 0.3932
C4A C 1.2751(7) -0.1198(6) 0.3432(6)
H3A H 1.2210 -0.1733 0.3360
C5A C 1.4443(7) -0.1809(6) 0.3197(6)
H4A H 1.5054 -0.2754 0.2954
C6A C 1.5238(7) -0.1036(6) 0.3317(6)
H5A H 1.6389 -0.1455 0.3169
C7A C 1.4334(7) 0.0354(6) 0.3655(6)
H6A H 1.4871 0.0887 0.3738
C8A C 0.9531(7) 0.3649(6) 0.7562(6)
C9A C 0.9283(8) 0.2855(7) 0.9000(6)
C10A C 0.8295(8) 0.2014(7) 0.9545(7)
H7A H 0.7793 0.1941 0.8989
C11A C 0.8042(8) 0.1281(7) 1.0901(7)
H8A H 0.7359 0.0716 1.1277
C12A C 0.8800(8) 0.1385(7) 1.1703(7)
H9A H 0.8634 0.0884 1.2628
C13A C 0.9784(8) 0.2207(7) 1.1163(7)
H10A H 1.0288 0.2278 1.1719
C14A C 1.0041(8) 0.2930(7) 0.9816(7)
H11A H 1.0738 0.3481 0.9442
C15A C 1.6463(7) 0.4340(6) 0.4103(6)
H12A H 1.7481 0.3851 0.3463
C16A C 1.5014(7) 0.4403(6) 0.4069(6)
H13A H 1.5063 0.3981 0.3383
N1A N 1.6466(6) 0.4964(5) 0.5033(5)
O2A O 1.0156(5) 0.2982(4) 0.4389(4)
O2A_2 O 2.0156(5) 0.2982(4) 0.4389(4)
O3A O 1.2470(5) 0.3104(4) 0.4348(4)
O3_2 O 1.7530(5) 0.6896(4) 0.5652(4)
O4A O 0.8455(5) 0.3913(4) 0.7025(4)
O4A_2 O 1.8455(5) 0.3913(4) 0.7025(4)
O5A O 1.0775(5) 0.4031(4) 0.6974(4)
O5_2 O 1.9225(5) 0.5969(4) 0.3026(4)
Rh1A Rh 1.87692(5) 0.49408(4) 0.50240(4)
Rh1A_2 Rh 0.87692(5) 0.49408(4) 0.50240(4)
Rh1_2 Rh 2.12308(5) 0.50592(4) 0.49760(4)
C19? C 0.559(2) 0.5749(17) 1.0129(16)
H19? H 0.6243 0.4814 1.0564
H20? H 0.4508 0.6132 1.0843
C20? C 0.649(3) 0.6821(19) 0.964(2)
H21? H 0.5835 0.7757 0.9228
H22? H 0.7570 0.6438 0.8955
H23? H 0.6625 0.6953 1.0438
O6? O 0.5321(14) 0.5492(11) 0.9031(11)
H24? H 0.6229 0.5191 0.8408
loop_
_geom_bond_atom_site_label_1
_geom_bond_atom_site_label_2
_geom_bond_site_symmetry_1
_geom_bond_site_symmetry_2
O1 H1 1_555 1_555
C1 C2 1_555 1_555
C2 C3 1_555 1_555
C3 H2 1_555 1_555
C4 C3 1_555 1_555
H3 C4 1_555 1_555
C5 C4 1_555 1_555
H4 C5 1_555 1_555
C6 C5 1_555 1_555
H5 C6 1_555 1_555
C7 C2 1_555 1_555
H6 C7 1_555 1_555
C8 C9 1_555 1_555
C9 C10 1_555 1_555
C10 H7 1_555 1_555
C11 C10 1_555 1_555
H8 C11 1_555 1_555
C12 C11 1_555 1_555
H9 C12 1_555 1_555
C13 C12 1_555 1_555
H10 C13 1_555 1_555
C14 C9 1_555 1_555
H11 C14 1_555 1_555
C15 H12 1_555 1_555
C16 C15 1_555 1_555
H13 C16 1_555 1_555
C17 O1 1_555 1_555
H14 C17 1_555 1_555
H15 C17 1_555 1_555
C18 C17 1_555 1_555
H16 C18 1_555 1_555
H17 C18 1_555 1_555
H18 C18 1_555 1_555
N1 C15 1_555 1_555
O2 C1 1_555 1_555
O3 C1 1_555 1_555
O4 C8 1_555 1_555
O5 C8 1_555 1_555
Rh1 N1 1_555 1_555
C1A C2A 1_555 1_555
C2A C3A 1_555 1_555
C3A H2A 1_555 1_555
C4A C3A 1_555 1_555
H3A C4A 1_555 1_555
C5A C4A 1_555 1_555
H4A C5A 1_555 1_555
C6A C5A 1_555 1_555
H5A C6A 1_555 1_555
C7A C2A 1_555 1_555
H6A C7A 1_555 1_555
C8A C9A 1_555 1_555
C9A C10A 1_555 1_555
C10A H7A 1_555 1_555
C11A C10A 1_555 1_555
H8A C11A 1_555 1_555
C12A C11A 1_555 1_555
H9A C12A 1_555 1_555
C13A C12A 1_555 1_555
H10A C13A 1_555 1_555
C14A C9A 1_555 1_555
H11A C14A 1_555 1_555
C15A H12A 1_555 1_555
C16A N1 1_555 1_555
H13A C16A 1_555 1_555
N1A C16 1_555 1_555
O2A C1A 1_555 1_555
O2A_2 Rh1A 1_555 1_555
O3A Rh1 1_555 1_555
O3_2 Rh1A 1_555 1_555
O4A C8A 1_555 1_555
O4A_2 Rh1A 1_555 1_555
O5A Rh1 1_555 1_555
O5_2 Rh1A 1_555 1_555
Rh1A N1A 1_555 1_555
Rh1A_2 O3 1_555 1_555
Rh1_2 Rh1A 1_555 1_555
C6 C7 1_555 1_555
C13 C14 1_555 1_555
O2 Rh1 1_555 1_555
O4 Rh1 1_555 1_555
O5 Rh1A_2 1_555 1_555
Rh1 Rh1A_2 1_555 1_555
C1A O3A 1_555 1_555
C6A C7A 1_555 1_555
C8A O5A 1_555 1_555
C13A C14A 1_555 1_555
C15A C16A 1_555 1_555
C15A N1A 1_555 1_555
O2A Rh1A_2 1_555 1_555
O4A Rh1A_2 1_555 1_555

#END
