
#######################################################################
#
#                 Cambridge Crystallographic Data Centre
#                                CCDC 
#
#######################################################################
#
# If this CIF has been generated from an entry in the Cambridge 
# Structural Database, then it will include bibliographic, chemical, 
# crystal, experimental, refinement or atomic coordinate data resulting 
# from the CCDC's data processing and validation procedures.
#
#######################################################################

data_NIKXEL
_chemical_formula_moiety         '(C32 H24 N2 O8 Rh2)n,2n(C1 H4 O1)'
_chemical_name_systematic        
"catena-(tetrakis(\m~2~-benzoato-O,O')-(\m~2~-pyrazine-N,N')-di-rhodium(ii) dimethanol clathrate)"
_symmetry_cell_setting           triclinic
_symmetry_space_group_name_H-M   'P -1'
_symmetry_Int_Tables_number      2
_space_group_name_Hall           '-P 1'
loop_
_symmetry_equiv_pos_site_id
_symmetry_equiv_pos_as_xyz
1 x,y,z
2 -x,-y,-z
_cell_length_a                   9.5989(11)
_cell_length_b                   10.0652(12)
_cell_length_c                   10.8247(13)
_cell_angle_alpha                70.423(2)
_cell_angle_beta                 65.957(2)
_cell_angle_gamma                62.594(2)
_cell_volume                     833.74
_exptl_crystal_colour            red
_exptl_crystal_description       plate
_cell_formula_units_Z            1
loop_
_atom_site_label
_atom_site_type_symbol
_atom_site_fract_x
_atom_site_fract_y
_atom_site_fract_z
C1 C 0.8272(5) 0.7665(5) 0.5728(5)
C2 C 0.7252(6) 0.9167(6) 0.6176(5)
C3 C 0.7992(6) 0.9970(6) 0.6353(5)
H1 H 0.9156 0.9598 0.6124
C4 C 0.7029(6) 1.1315(6) 0.6863(5)
H2 H 0.7533 1.1866 0.6980
C5 C 0.5316(6) 1.1857(6) 0.7204(5)
H3 H 0.4654 1.2762 0.7579
C6 C 0.4585(6) 1.1085(6) 0.6998(5)
H4 H 0.3421 1.1474 0.7206
C7 C 0.5541(6) 0.9738(6) 0.6486(5)
H5 H 0.5032 0.9206 0.6347
C8 C 1.0413(6) 0.6321(6) 0.2413(5)
C9 C 1.0619(6) 0.7097(6) 0.0966(5)
C10 C 1.1670(6) 0.7898(6) 0.0329(5)
H6 H 1.2257 0.7940 0.0831
C11 C 1.1864(7) 0.8631(6) -0.1030(6)
H7 H 1.2573 0.9181 -0.1453
C12 C 1.1024(7) 0.8561(6) -0.1770(6)
H8 H 1.1167 0.9051 -0.2706
C13 C 0.9974(6) 0.7777(6) -0.1146(6)
H9 H 0.9397 0.7731 -0.1655
C14 C 0.9762(6) 0.7062(6) 0.0215(5)
H10 H 0.9024 0.6542 0.0640
C15 C 1.3547(5) 0.5732(5) 0.5833(5)
H11 H 1.2529 0.6263 0.6439
C16 C 1.4992(5) 0.5671(5) 0.5881(5)
H12 H 1.4945 0.6159 0.6520
N1 N 1.3544(4) 0.5063(4) 0.4952(4)
O1 O 0.9814(4) 0.7158(4) 0.5522(3)
O2 O 0.7507(4) 0.7004(4) 0.5588(3)
O3 O 1.1491(4) 0.6082(4) 0.2946(3)
O4 O 0.9174(4) 0.5940(4) 0.3027(3)
Rh1 Rh 1.12286(4) 0.50745(4) 0.49607(4)
C1A C 1.1728(5) 0.2335(5) 0.4272(5)
C2A C 1.2748(6) 0.0833(6) 0.3824(5)
C3A C 1.2008(6) 0.0030(6) 0.3647(5)
H1A H 1.0844 0.0402 0.3876
C4A C 1.2971(6) -0.1315(6) 0.3137(5)
H2A H 1.2467 -0.1866 0.3020
C5A C 1.4684(6) -0.1857(6) 0.2796(5)
H3A H 1.5346 -0.2762 0.2421
C6A C 1.5415(6) -0.1085(6) 0.3002(5)
H4A H 1.6579 -0.1474 0.2794
C7A C 1.4459(6) 0.0262(6) 0.3514(5)
H5A H 1.4968 0.0794 0.3653
C8A C 0.9587(6) 0.3679(6) 0.7587(5)
C9A C 0.9381(6) 0.2903(6) 0.9034(5)
C10A C 0.8330(6) 0.2102(6) 0.9671(5)
H6A H 0.7743 0.2060 0.9169
C11A C 0.8136(7) 0.1369(6) 1.1030(6)
H7A H 0.7427 0.0819 1.1453
C12A C 0.8976(7) 0.1439(6) 1.1770(6)
H8A H 0.8833 0.0949 1.2706
C13A C 1.0026(6) 0.2223(6) 1.1146(6)
H9A H 1.0603 0.2269 1.1655
C14A C 1.0238(6) 0.2938(6) 0.9785(5)
H10A H 1.0976 0.3458 0.9360
C15A C 1.6453(5) 0.4268(5) 0.4167(5)
H11A H 1.7471 0.3737 0.3561
C16A C 1.5008(5) 0.4329(5) 0.4119(5)
H12A H 1.5055 0.3841 0.3480
N1A N 1.6456(4) 0.4937(4) 0.5048(4)
O1A O 1.0186(4) 0.2842(4) 0.4478(3)
O1A_2 O 2.0186(4) 0.2842(4) 0.4478(3)
O2A O 1.2493(4) 0.2996(4) 0.4412(3)
O2_2 O 1.7507(4) 0.7004(4) 0.5588(3)
O3A O 0.8509(4) 0.3918(4) 0.7054(3)
O3A_2 O 1.8509(4) 0.3918(4) 0.7054(3)
O4A O 1.0826(4) 0.4060(4) 0.6973(3)
O4_2 O 1.9174(4) 0.5940(4) 0.3027(3)
Rh1A Rh 1.87714(4) 0.49255(4) 0.50393(4)
Rh1A_2 Rh 0.87714(4) 0.49255(4) 0.50393(4)
Rh1_2 Rh 2.12286(4) 0.50745(4) 0.49607(4)
C18 C 0.6446(18) 0.6715(16) 0.9387(14)
H16 H 0.6126 0.7756 0.9491
H17 H 0.5688 0.6693 0.9008
H18 H 0.7570 0.6369 0.8761
O6 O 0.6379(11) 0.5736(10) 1.0694(9)
H20 H 0.5742 0.5297 1.0865
C17? C 0.5995(19) 0.6475(17) 0.9552(16)
H13? H 0.5600 0.7589 0.9322
H14? H 0.7199 0.6052 0.9316
H15? H 0.5519 0.6159 1.0539
O5? O 0.5515(11) 0.5933(11) 0.8794(9)
H19? H 0.6357 0.5415 0.8246
loop_
_geom_bond_atom_site_label_1
_geom_bond_atom_site_label_2
_geom_bond_site_symmetry_1
_geom_bond_site_symmetry_2
C1 C2 1_555 1_555
C2 C3 1_555 1_555
C3 H1 1_555 1_555
C4 C3 1_555 1_555
H2 C4 1_555 1_555
C5 C4 1_555 1_555
H3 C5 1_555 1_555
C6 C5 1_555 1_555
H4 C6 1_555 1_555
C7 C2 1_555 1_555
H5 C7 1_555 1_555
C8 C9 1_555 1_555
C9 C10 1_555 1_555
C10 H6 1_555 1_555
C11 C10 1_555 1_555
H7 C11 1_555 1_555
C12 C11 1_555 1_555
H8 C12 1_555 1_555
C13 C12 1_555 1_555
H9 C13 1_555 1_555
C14 C9 1_555 1_555
H10 C14 1_555 1_555
C15 H11 1_555 1_555
C16 C15 1_555 1_555
H12 C16 1_555 1_555
C18 H16 1_555 1_555
H17 C18 1_555 1_555
H18 C18 1_555 1_555
N1 C15 1_555 1_555
O1 C1 1_555 1_555
O2 C1 1_555 1_555
O3 C8 1_555 1_555
O4 C8 1_555 1_555
O6 C18 1_555 1_555
H20 O6 1_555 1_555
Rh1 N1 1_555 1_555
C1A C2A 1_555 1_555
C2A C3A 1_555 1_555
C3A H1A 1_555 1_555
C4A C3A 1_555 1_555
H2A C4A 1_555 1_555
C5A C4A 1_555 1_555
H3A C5A 1_555 1_555
C6A C5A 1_555 1_555
H4A C6A 1_555 1_555
C7A C2A 1_555 1_555
H5A C7A 1_555 1_555
C8A C9A 1_555 1_555
C9A C10A 1_555 1_555
C10A H6A 1_555 1_555
C11A C10A 1_555 1_555
H7A C11A 1_555 1_555
C12A C11A 1_555 1_555
H8A C12A 1_555 1_555
C13A C12A 1_555 1_555
H9A C13A 1_555 1_555
C14A C9A 1_555 1_555
H10A C14A 1_555 1_555
C15A H11A 1_555 1_555
C16A N1 1_555 1_555
H12A C16A 1_555 1_555
N1A C16 1_555 1_555
O1A C1A 1_555 1_555
O1A_2 Rh1A 1_555 1_555
O2A Rh1 1_555 1_555
O2_2 Rh1A 1_555 1_555
O3A C8A 1_555 1_555
O3A_2 Rh1A 1_555 1_555
O4A Rh1 1_555 1_555
O4_2 Rh1A 1_555 1_555
Rh1A N1A 1_555 1_555
Rh1A_2 O2 1_555 1_555
Rh1_2 Rh1A 1_555 1_555
C6 C7 1_555 1_555
C13 C14 1_555 1_555
O1 Rh1 1_555 1_555
O3 Rh1 1_555 1_555
O4 Rh1A_2 1_555 1_555
Rh1 Rh1A_2 1_555 1_555
C1A O2A 1_555 1_555
C6A C7A 1_555 1_555
C8A O4A 1_555 1_555
C13A C14A 1_555 1_555
C15A C16A 1_555 1_555
C15A N1A 1_555 1_555
O1A Rh1A_2 1_555 1_555
O3A Rh1A_2 1_555 1_555

#END
