
#######################################################################
#
#                 Cambridge Crystallographic Data Centre
#                                CCDC 
#
#######################################################################
#
# If this CIF has been generated from an entry in the Cambridge 
# Structural Database, then it will include bibliographic, chemical, 
# crystal, experimental, refinement or atomic coordinate data resulting 
# from the CCDC's data processing and validation procedures.
#
#######################################################################

data_AFITOZ
_chemical_formula_moiety         '(C46 H32 N2 O12 Zn2)n'
_chemical_name_systematic        
catena-[bis(\m~4~-4,4'-Ethyne-1,2-diylbis(3-hydroxymethylbenzoato)-O,O',O'',O''')-(\m~2~-4,4'-bipyridine-N,N')-di-zinc]
_symmetry_cell_setting           monoclinic
_symmetry_space_group_name_H-M   'C 2'
_symmetry_Int_Tables_number      5
_space_group_name_Hall           'C 2y'
loop_
_symmetry_equiv_pos_site_id
_symmetry_equiv_pos_as_xyz
1 x,y,z
2 -x,y,-z
3 1/2+x,1/2+y,z
4 1/2-x,1/2+y,-z
_cell_length_a                   21.909(16)
_cell_length_b                   27.458(16)
_cell_length_c                   14.013(9)
_cell_angle_alpha                90
_cell_angle_beta                 93.183(17)
_cell_angle_gamma                90
_cell_volume                     8416.9
_exptl_crystal_colour            colorless
_exptl_crystal_description       needle
_cell_formula_units_Z            4
loop_
_atom_site_label
_atom_site_type_symbol
_atom_site_fract_x
_atom_site_fract_y
_atom_site_fract_z
C1 C 0.6262(3) 0.9709(4) 0.2625(5)
C2 C 0.6278(3) 0.9685(4) 0.1555(5)
C3 C 1.0358(5) 0.5310(4) 0.7027(8)
C4 C 0.9863(4) 0.5673(3) 0.7004(7)
C5 C 0.9763(5) 0.5960(4) 0.7837(9)
H1 H 0.9986 0.5882 0.8418
C6 C 0.9537(4) 0.5784(3) 0.6143(8)
H2 H 0.9595 0.5596 0.5587
C7 C 0.9354(5) 0.6348(4) 0.7831(9)
H3 H 0.9294 0.6533 0.8390
C8 C 0.9115(5) 0.6182(5) 0.6103(11)
C9 C 0.9041(5) 0.6450(4) 0.6971(10)
C10 C 0.8652(7) 0.6842(6) 0.7020(12)
C11 C 0.8310(10) 0.7172(9) 0.7036(19)
C12 C 0.8013(5) 0.7653(5) 0.7024(12)
C13 C 0.7838(5) 0.7836(5) 0.7948(13)
H4 H 0.7951 0.7666 0.8521
C14 C 0.7840(5) 0.7913(5) 0.6188(10)
C15 C 0.7492(5) 0.8273(4) 0.7968(10)
H5 H 0.7373 0.8398 0.8561
C16 C 0.7505(4) 0.8339(4) 0.6239(9)
H6 H 0.7390 0.8512 0.5670
C17 C 0.7330(4) 0.8519(4) 0.7135(9)
C18 C 0.6967(4) 0.8982(4) 0.7132(8)
C19 C 0.8092(8) 0.7744(6) 0.5216(12)
H7 H 0.8543 0.7773 0.5234
H8 H 0.7977 0.7402 0.5075
C20 C 0.8753(7) 0.6305(6) 0.5165(12)
H9 H 0.8786 0.6027 0.4722
H10 H 0.8316 0.6339 0.5301
C21 C 0.7197(6) 1.0275(5) 0.7115(9)
C22 C 0.7625(5) 1.0725(4) 0.7188(9)
C23 C 0.7841(6) 1.0888(5) 0.8088(11)
H11 H 0.7707 1.0743 0.8656
C24 C 0.7787(6) 1.0909(5) 0.6354(11)
H12 H 0.7615 1.0778 0.5771
C25 C 0.8248(7) 1.1261(6) 0.8122(16)
C26 C 0.8204(7) 1.1288(6) 0.6334(14)
H13 H 0.8328 1.1423 0.5751
C27 C 0.8424(6) 1.1456(5) 0.7196(13)
C28 C 0.8877(8) 1.1873(7) 0.7268(15)
C29 C 0.9250(8) 1.2215(7) 0.7304(15)
C30 C 0.9541(5) 1.2674(5) 0.7260(12)
C31 C 0.9699(7) 1.2920(7) 0.8059(17)
C32 C 0.9743(10) 1.2853(11) 0.633(3)
H14 H 0.9633 1.2681 0.5761
C33 C 1.0057(5) 1.3349(5) 0.8022(11)
H15 H 1.0172 1.3524 0.8588
C34 C 1.0063(6) 1.3238(6) 0.6301(12)
H16 H 1.0190 1.3347 0.5700
C35 C 1.0238(4) 1.3509(4) 0.7128(8)
C36 C 1.0599(5) 1.3949(4) 0.7077(8)
C37 C 0.977(3) 1.272(2) 0.918(3)
H17 H 0.9666 1.2375 0.9231
H18 H 1.0184 1.2782 0.9472
C38 C 0.850(8) 1.151(5) 0.914(3)
H19 H 0.8938 1.1432 0.9264
H20 H 0.8458 1.1869 0.9097
C43 C 0.6803(8) 0.9721(7) 0.1098(12)
C44 C 0.6790(7) 0.9756(7) 0.0090(11)
C45 C 0.5735(7) 0.9687(6) 0.0051(10)
C46 C 0.5695(8) 0.9658(6) 0.1011(12)
C47 C 0.6758(7) 0.9510(5) 0.4143(13)
C48 C 0.6738(9) 0.9517(6) 0.3194(18)
C49 C 0.5774(8) 0.9917(5) 0.3104(12)
C50 C 0.5829(8) 0.9894(5) 0.4142(14)
N1 N 0.6245(3) 0.9722(4) 0.4591(4)
N2 N 0.6272(3) 0.9737(4) -0.0409(4)
O1 O 0.6933(3) 0.9276(3) 0.6352(6)
O2 O 0.6789(4) 1.0294(3) 0.6358(6)
O3 O 1.0705(3) 0.5326(3) 0.6307(6)
O4 O 1.0522(3) 1.4292(3) 0.6201(5)
O5 O 1.0726(4) 0.5290(3) 0.7824(6)
O6 O 0.6829(3) 1.0317(3) 0.7926(5)
O7 O 0.7014(4) 0.9300(3) 0.7972(6)
O8 O 1.0557(3) 1.4268(3) 0.7866(6)
O9 O 0.7815(9) 0.8066(8) 0.4518(16)
H21 H 0.8038 0.8089 0.4053
O10 O 0.8923(6) 0.6698(5) 0.4735(11)
H22 H 0.9300 0.6685 0.4660
O11 O 0.934(3) 1.301(3) 0.960(7)
H23 H 0.9214 1.3229 0.9214
O12 O 0.8152(17) 1.1328(11) 0.992(3)
H24 H 0.7798 1.1446 0.9874
Zn1 Zn 0.62357(5) 0.97348(8) 0.60536(5)
Zn2 Zn 0.62848(5) 0.97292(8) -0.18571(5)
O3B O 0.5705(3) 1.0326(3) 0.6307(6)
O4B O 0.5522(3) 0.9292(3) 0.6201(5)
O5B O 0.5726(4) 1.0290(3) -0.2176(6)
O6_2 O 0.6829(3) 1.0317(3) -0.2074(5)
O7_2 O 0.7014(4) 0.9300(3) -0.2028(6)
O8B O 0.5557(3) 0.9268(3) -0.2134(6)
Zn1B Zn 1.12357(5) 0.47348(8) 0.60536(5)
Zn1B_2 Zn 1.12357(5) 1.47348(8) 0.60536(5)
Zn2B Zn 1.12848(5) 0.47292(8) 0.81429(5)
Zn2_2 Zn 0.62848(5) 0.97292(8) 0.81429(5)
Zn2B_2 Zn 1.12848(5) 1.47292(8) 0.81429(5)
C39? C 0.6650(13) 0.9905(8) 0.424(2)
C40? C 0.6769(15) 0.9951(10) 0.318(3)
C41? C 0.589(2) 0.9546(11) 0.305(4)
C42? C 0.5748(10) 0.9488(8) 0.4007(16)
C51? C 0.6536(8) 1.0119(8) 0.1086(16)
C52? C 0.6510(7) 1.0112(8) 0.0105(14)
C53? C 0.6045(8) 0.9367(9) 0.0064(17)
C54? C 0.6040(8) 0.9323(9) 0.1031(17)
loop_
_geom_bond_atom_site_label_1
_geom_bond_atom_site_label_2
_geom_bond_site_symmetry_1
_geom_bond_site_symmetry_2
C1 C2 1_555 1_555
C2 C43 1_555 1_555
C3 C4 1_555 1_555
C4 C5 1_555 1_555
C5 H1 1_555 1_555
C6 C4 1_555 1_555
H2 C6 1_555 1_555
C7 C5 1_555 1_555
H3 C7 1_555 1_555
C8 C6 1_555 1_555
C9 C7 1_555 1_555
C10 C9 1_555 1_555
C11 C10 1_555 1_555
C12 C11 1_555 1_555
C13 C12 1_555 1_555
H4 C13 1_555 1_555
C14 C12 1_555 1_555
C15 C13 1_555 1_555
H5 C15 1_555 1_555
C16 C14 1_555 1_555
H6 C16 1_555 1_555
C17 C15 1_555 1_555
C18 C17 1_555 1_555
C19 C14 1_555 1_555
H7 C19 1_555 1_555
H8 C19 1_555 1_555
C20 C8 1_555 1_555
H9 C20 1_555 1_555
H10 C20 1_555 1_555
C21 C22 1_555 1_555
C22 C23 1_555 1_555
C23 H11 1_555 1_555
C24 C22 1_555 1_555
H12 C24 1_555 1_555
C25 C23 1_555 1_555
C26 C24 1_555 1_555
H13 C26 1_555 1_555
C27 C25 1_555 1_555
C28 C27 1_555 1_555
C29 C28 1_555 1_555
C30 C29 1_555 1_555
C31 C30 1_555 1_555
C32 C30 1_555 1_555
H14 C32 1_555 1_555
C33 C31 1_555 1_555
H15 C33 1_555 1_555
C34 C32 1_555 1_555
H16 C34 1_555 1_555
C35 C33 1_555 1_555
C36 C35 1_555 1_555
C37 C31 1_555 1_555
H17 C37 1_555 1_555
H18 C37 1_555 1_555
C38 C25 1_555 1_555
H19 C38 1_555 1_555
H20 C38 1_555 1_555
C43 C44 1_555 1_555
C44 N2 1_555 1_555
C45 C46 1_555 1_555
C46 C2 1_555 1_555
C47 C48 1_555 1_555
C48 C1 1_555 1_555
C49 C1 1_555 1_555
C50 C49 1_555 1_555
N1 C47 1_555 1_555
N2 C45 1_555 1_555
O1 C18 1_555 1_555
O2 C21 1_555 1_555
O3 C3 1_555 1_555
O4 C36 1_555 1_555
O5 C3 1_555 1_555
O6 C21 1_555 1_555
O7 C18 1_555 1_555
O8 C36 1_555 1_555
O9 C19 1_555 1_555
H21 O9 1_555 1_555
O10 C20 1_555 1_555
H22 O10 1_555 1_555
O11 C37 1_555 1_555
H23 O11 1_555 1_555
O12 C38 1_555 1_555
H24 O12 1_555 1_555
Zn1 N1 1_555 1_555
Zn2 N2 1_555 1_555
O3B Zn1 1_555 1_555
O4B Zn1 1_555 1_555
O5B Zn2 1_555 1_555
O6_2 Zn2 1_555 1_555
O7_2 Zn2 1_555 1_555
O8B Zn2 1_555 1_555
Zn1B O3 1_555 1_555
Zn1B_2 O4 1_555 1_555
Zn2B O5 1_555 1_555
Zn2_2 O6 1_555 1_555
Zn2B_2 O8 1_555 1_555
C8 C9 1_555 1_555
C16 C17 1_555 1_555
C26 C27 1_555 1_555
C34 C35 1_555 1_555
C50 N1 1_555 1_555
O1 Zn1 1_555 1_555
O2 Zn1 1_555 1_555
O7 Zn2_2 1_555 1_555

#END
