
#######################################################################
#
#                 Cambridge Crystallographic Data Centre
#                                CCDC 
#
#######################################################################
#
# If this CIF has been generated from an entry in the Cambridge 
# Structural Database, then it will include bibliographic, chemical, 
# crystal, experimental, refinement or atomic coordinate data resulting 
# from the CCDC's data processing and validation procedures.
#
#######################################################################

data_HIHBUX
_chemical_formula_moiety         '(C11 H13 N4 O5 P1 Zn1)n,n(C3 H7 N1 O1)'
_chemical_name_systematic        
"catena-[(\m~3~-N,N'-dipyridin-4-ylphosphorodiamidato)-(formato)-aqua-zinc(ii) N,N-dimethylformamide solvate]"
_symmetry_cell_setting           monoclinic
_symmetry_space_group_name_H-M   'P 21/n'
_symmetry_Int_Tables_number      14
_space_group_name_Hall           '-P 2yn'
loop_
_symmetry_equiv_pos_site_id
_symmetry_equiv_pos_as_xyz
1 x,y,z
2 1/2-x,1/2+y,1/2-z
3 -x,-y,-z
4 1/2+x,1/2-y,1/2+z
_cell_length_a                   11.5224(15)
_cell_length_b                   13.9000(19)
_cell_length_c                   11.7135(16)
_cell_angle_alpha                90
_cell_angle_beta                 103.699(3)
_cell_angle_gamma                90
_cell_volume                     1822.68
_exptl_crystal_colour            colorless
_exptl_crystal_description       Prism
_cell_formula_units_Z            4
loop_
_atom_site_label
_atom_site_type_symbol
_atom_site_fract_x
_atom_site_fract_y
_atom_site_fract_z
Zn1 Zn 0.16779(3) 0.61520(3) 1.14736(3)
P1 P 0.26545(7) 0.82890(6) 1.05630(7)
O1 O 0.3650(2) 0.88130(17) 1.1362(2)
O2 O 0.1911(2) 0.75953(17) 1.1063(2)
O3 O 0.1422(2) 0.46137(18) 1.1588(2)
H1 H 0.081(3) 0.452(3) 1.115(3)
H2 H 0.147(4) 0.433(3) 1.218(3)
N1 N 0.1779(2) 0.9151(2) 0.9802(2)
H3 H 0.2075 0.9737 0.9889
N2 N 0.3180(2) 0.7635(2) 0.9586(2)
H4 H 0.2941 0.7032 0.9502
C1 C 0.1563(4) 0.5618(3) 0.9196(3)
H5 H 0.1250 0.5378 0.8426
O4 O 0.0810(2) 0.58906(19) 0.9768(2)
O5 O 0.2655(3) 0.5635(2) 0.9546(3)
C2 C 0.0656(3) 0.9067(2) 0.9057(3)
C3 C 0.0125(3) 0.9867(3) 0.8414(3)
H6 H 0.0538 1.0464 0.8491
C4 C -0.0987(3) 0.9793(3) 0.7675(3)
H7 H -0.1322 1.0348 0.7250
N3 N -0.1633(2) 0.8970(2) 0.7517(2)
C5 C -0.1122(3) 0.8201(3) 0.8150(3)
H8 H -0.1559 0.7615 0.8063
C6 C -0.0009(3) 0.8213(3) 0.8912(3)
H9 H 0.0303 0.7650 0.9334
C7 C 0.3938(3) 0.7926(2) 0.8903(3)
C8 C 0.4331(3) 0.7256(3) 0.8181(3)
H10 H 0.4073 0.6605 0.8162
C9 C 0.5093(3) 0.7545(3) 0.7497(3)
H11 H 0.5338 0.7081 0.7006
N4 N 0.5511(2) 0.8457(2) 0.7488(2)
C10 C 0.5140(3) 0.9093(3) 0.8198(3)
H12 H 0.5436 0.9732 0.8226
C11 C 0.4354(3) 0.8870(3) 0.8886(3)
H13 H 0.4099 0.9355 0.9344
Zn1C Zn -0.33221(3) 0.88480(3) 0.64736(3)
Zn1C_2 Zn 0.66779(3) 0.88480(3) 0.64736(3)
N3C N 0.3367(2) 0.6030(2) 1.2517(2)
N4C N 0.0511(2) 0.6543(2) 1.2488(2)
O6 O 0.2704(4) 0.1054(3) 0.9325(5)
C12 C 0.3291(5) 0.1653(5) 0.9033(5)
H14 H 0.3879 0.1429 0.8649
N5 N 0.3249(7) 0.2595(5) 0.9166(7)
C13 C 0.3998(6) 0.3280(5) 0.8766(6)
H15 H 0.3781 0.3932 0.8956
H16 H 0.3890 0.3219 0.7914
H17 H 0.4835 0.3156 0.9156
C14 C 0.2395(5) 0.3034(4) 0.9733(5)
H18 H 0.2491 0.3735 0.9739
H19 H 0.2531 0.2799 1.0542
H20 H 0.1583 0.2867 0.9302
O7? O 0.2436(16) 0.1133(12) 0.9756(17)
C15? C 0.258(2) 0.1942(15) 0.972(2)
H21? H 0.2220 0.2299 1.0239
N6? N 0.316(3) 0.2474(13) 0.911(2)
C16? C 0.386(3) 0.219(2) 0.834(3)
H22? H 0.4187 0.2759 0.8039
H23? H 0.3366 0.1826 0.7686
H24? H 0.4516 0.1780 0.8764
C17? C 0.3150(19) 0.3508(13) 0.929(2)
H25? H 0.3578 0.3824 0.8764
H26? H 0.3545 0.3658 1.0108
H27? H 0.2324 0.3740 0.9120
loop_
_geom_bond_atom_site_label_1
_geom_bond_atom_site_label_2
_geom_bond_site_symmetry_1
_geom_bond_site_symmetry_2
Zn1 O2 1_555 1_555
P1 O1 1_555 1_555
O2 P1 1_555 1_555
O3 Zn1 1_555 1_555
H1 O3 1_555 1_555
H2 O3 1_555 1_555
N1 P1 1_555 1_555
H3 N1 1_555 1_555
N2 P1 1_555 1_555
H4 N2 1_555 1_555
C1 H5 1_555 1_555
O4 Zn1 1_555 1_555
O5 C1 1_555 1_555
C2 N1 1_555 1_555
C3 C2 1_555 1_555
H6 C3 1_555 1_555
C4 C3 1_555 1_555
H7 C4 1_555 1_555
N3 C4 1_555 1_555
C5 N3 1_555 1_555
H8 C5 1_555 1_555
C6 C2 1_555 1_555
H9 C6 1_555 1_555
C7 N2 1_555 1_555
C8 C7 1_555 1_555
H10 C8 1_555 1_555
C9 C8 1_555 1_555
H11 C9 1_555 1_555
N4 C9 1_555 1_555
C10 N4 1_555 1_555
H12 C10 1_555 1_555
C11 C7 1_555 1_555
H13 C11 1_555 1_555
O6 C12 1_555 1_555
C12 H14 1_555 1_555
N5 C12 1_555 1_555
C13 N5 1_555 1_555
H15 C13 1_555 1_555
H16 C13 1_555 1_555
H17 C13 1_555 1_555
C14 N5 1_555 1_555
H18 C14 1_555 1_555
H19 C14 1_555 1_555
H20 C14 1_555 1_555
Zn1C N3 1_555 1_555
Zn1C_2 N4 1_555 1_555
N3C Zn1 1_555 1_555
N4C Zn1 1_555 1_555
C1 O4 1_555 1_555
C5 C6 1_555 1_555
C10 C11 1_555 1_555

#END
