
#######################################################################
#
#                 Cambridge Crystallographic Data Centre
#                                CCDC 
#
#######################################################################
#
# If this CIF has been generated from an entry in the Cambridge 
# Structural Database, then it will include bibliographic, chemical, 
# crystal, experimental, refinement or atomic coordinate data resulting 
# from the CCDC's data processing and validation procedures.
#
#######################################################################

data_NAPFOA01
_chemical_formula_moiety         
'(C42 H24 N2 O13 Zn4)n,n(C5 H11 N1 O1),n(C2 H6 O1)'
_chemical_name_systematic        
"catena-(bis(\m~6~-Nitrilotrisbenzoato)-(\m~4~-oxo)-tetra-zinc(ii) N,N'-diethylformamide ethanol clathrate)"
_symmetry_cell_setting           cubic
_symmetry_space_group_name_H-M   'I a -3'
_symmetry_Int_Tables_number      206
_space_group_name_Hall           '-I 2b 2c 3'
loop_
_symmetry_equiv_pos_site_id
_symmetry_equiv_pos_as_xyz
1 x,y,z
2 z,x,y
3 y,z,x
4 1/2+x,1/2+y,1/2+z
5 1/2+z,1/2+x,1/2+y
6 1/2+y,1/2+z,1/2+x
7 -x,1/2-y,z
8 x,-y,1/2-z
9 1/2-x,y,-z
10 -z,1/2-x,y
11 1/2-y,z,-x
12 z,-x,1/2-y
13 -y,1/2-z,x
14 1/2-z,x,-y
15 y,-z,1/2-x
16 1/2-x,-y,1/2+z
17 1/2+x,1/2-y,-z
18 -x,1/2+y,1/2-z
19 1/2-z,-x,1/2+y
20 -y,1/2+z,1/2-x
21 1/2+z,1/2-x,-y
22 1/2-y,-z,1/2+x
23 -z,1/2+x,1/2-y
24 1/2+y,1/2-z,-x
25 -x,-y,-z
26 -z,-x,-y
27 -y,-z,-x
28 1/2-x,1/2-y,1/2-z
29 1/2-z,1/2-x,1/2-y
30 1/2-y,1/2-z,1/2-x
31 x,1/2+y,-z
32 -x,y,1/2+z
33 1/2+x,-y,z
34 z,1/2+x,-y
35 1/2+y,-z,x
36 -z,x,1/2+y
37 y,1/2+z,-x
38 1/2+z,-x,y
39 -y,z,1/2+x
40 1/2+x,y,1/2-z
41 1/2-x,1/2+y,z
42 x,1/2-y,1/2+z
43 1/2+z,x,1/2-y
44 y,1/2-z,1/2+x
45 1/2-z,1/2+x,y
46 1/2+y,z,1/2-x
47 z,1/2-x,1/2+y
48 1/2-y,1/2+z,x
_cell_length_a                   22.4509(4)
_cell_length_b                   22.4509(4)
_cell_length_c                   22.4509(4)
_cell_angle_alpha                90
_cell_angle_beta                 90
_cell_angle_gamma                90
_cell_volume                     11316.2
_exptl_crystal_colour            'pale yellow'
_exptl_crystal_description       rod-like
_cell_formula_units_Z            8
_exptl_crystal_preparation       photoluminescent
loop_
_atom_site_label
_atom_site_type_symbol
_atom_site_fract_x
_atom_site_fract_y
_atom_site_fract_z
O1 O 0.2500 0.7500 0.2500
Zn1 Zn 0.23503(4) 0.71399(4) 0.32880(4)
Zn2 Zn 0.29728(4) 0.70272(4) 0.20272(4)
N1 N 0.6013(3) 0.8987(3) 0.1013(3)
O2 O 0.3507(4) 0.7869(5) 0.1551(4)
O3 O 0.3907(4) 0.7789(4) 0.2458(4)
O4 O 0.3624(4) 0.7492(4) 0.1674(4)
O5 O 0.3685(5) 0.8171(4) 0.2412(5)
C1 C 0.3902(3) 0.7928(2) 0.1921(2)
C2 C 0.4452(2) 0.8182(2) 0.1680(2)
C3 C 0.4552(3) 0.8234(3) 0.1088(4)
H1 H 0.4265 0.8096 0.0823
C4 C 0.5066(3) 0.8487(3) 0.0863(4)
H2 H 0.5125 0.8505 0.0453
C5 C 0.5485(3) 0.8707(3) 0.1236(3)
C6 C 0.5421(3) 0.8639(3) 0.1833(3)
H3 H 0.5723 0.8759 0.2090
C7 C 0.4898(3) 0.8388(3) 0.2059(3)
H4 H 0.4847 0.8358 0.2469
C5T C 0.6236(3) 0.9515(3) 0.1293(3)
C4T C 0.5863(4) 0.9934(3) 0.1513(3)
C3T C 0.6088(4) 1.0448(3) 0.1766(3)
C2T C 0.6680(2) 1.0548(2) 0.1818(2)
C1T C 0.6921(2) 1.1098(3) 0.2072(2)
O2T O 0.6551(4) 1.1493(4) 0.2131(5)
O4T O 0.6674(4) 1.1376(4) 0.2508(4)
O3T O 0.7458(4) 1.1093(4) 0.2211(4)
O5T O 0.7412(5) 1.1315(5) 0.1829(4)
C7T C 0.7059(3) 1.0102(3) 0.1612(3)
C6T C 0.6833(3) 0.9579(3) 0.1361(3)
H3T H 0.7090 0.9277 0.1241
H4T H 0.7469 1.0153 0.1642
H1T H 0.5823 1.0735 0.1904
H2T H 0.5453 0.9875 0.1495
C5U C 0.6293(3) 0.8764(3) 0.0485(3)
C4U C 0.6513(3) 0.9137(4) 0.0066(3)
C3U C 0.6766(3) 0.8912(4) -0.0448(3)
C2U C 0.6818(2) 0.8320(2) -0.0548(2)
C1U C 0.7072(2) 0.8079(2) -0.1098(3)
O2U O 0.7131(5) 0.8449(4) -0.1493(4)
O4U O 0.7508(4) 0.8326(4) -0.1376(4)
O3U O 0.7211(4) 0.7542(4) -0.1093(4)
O5U O 0.6829(4) 0.7588(5) -0.1315(5)
C7U C 0.6612(3) 0.7941(3) -0.0102(3)
C6U C 0.6361(3) 0.8167(3) 0.0421(3)
H3U H 0.6241 0.7910 0.0723
H4U H 0.6642 0.7531 -0.0153
H1U H 0.6904 0.9177 -0.0735
H2U H 0.6495 0.9547 0.0125
N1R N 0.3987(3) 0.3987(3) 0.3987(3)
O2R O 0.3449(4) 0.6493(4) 0.2869(5)
O3R O 0.2542(4) 0.6093(4) 0.2789(4)
O4R O 0.3326(4) 0.6376(4) 0.2492(4)
O5R O 0.2588(5) 0.6315(5) 0.3171(4)
C1R C 0.3079(2) 0.6098(3) 0.2928(2)
C2R C 0.3320(2) 0.5548(2) 0.3182(2)
C3R C 0.3912(4) 0.5448(3) 0.3234(3)
H1R H 0.4177 0.5735 0.3096
C4R C 0.4137(4) 0.4934(3) 0.3487(3)
H2R H 0.4547 0.4875 0.3505
C5R C 0.3764(3) 0.4515(3) 0.3707(3)
C6R C 0.3167(3) 0.4579(3) 0.3639(3)
H3R H 0.2910 0.4277 0.3759
C7R C 0.2941(3) 0.5102(3) 0.3388(3)
H4R H 0.2531 0.5153 0.3358
C5W C 0.3707(3) 0.3764(3) 0.4515(3)
C4W C 0.3487(3) 0.4137(4) 0.4934(3)
C3W C 0.3234(3) 0.3912(4) 0.5448(3)
C2W C 0.3182(2) 0.3320(2) 0.5548(2)
C1W C 0.2928(2) 0.3079(2) 0.6098(3)
O2W O 0.2869(5) 0.3449(4) 0.6493(4)
O4W O 0.2492(4) 0.3326(4) 0.6376(4)
O3W O 0.2789(4) 0.2542(4) 0.6093(4)
O5W O 0.3171(4) 0.2588(5) 0.6315(5)
C7W C 0.3388(3) 0.2941(3) 0.5102(3)
C6W C 0.3639(3) 0.3167(3) 0.4579(3)
H3W H 0.3759 0.2910 0.4277
H4W H 0.3358 0.2531 0.5153
H1W H 0.3096 0.4177 0.5735
H2W H 0.3505 0.4547 0.4875
C5Q C 0.4515(3) 0.3707(3) 0.3764(3)
C4Q C 0.4934(3) 0.3487(3) 0.4137(4)
C3Q C 0.5448(3) 0.3234(3) 0.3912(4)
C2Q C 0.5548(2) 0.3182(2) 0.3320(2)
C1Q C 0.6098(3) 0.2928(2) 0.3079(2)
O2Q O 0.6493(4) 0.2869(5) 0.3449(4)
O4Q O 0.6376(4) 0.2492(4) 0.3326(4)
O3Q O 0.6093(4) 0.2789(4) 0.2542(4)
O5Q O 0.6315(5) 0.3171(4) 0.2588(5)
C7Q C 0.5102(3) 0.3388(3) 0.2941(3)
C6Q C 0.4579(3) 0.3639(3) 0.3167(3)
H3Q H 0.4277 0.3759 0.2910
H4Q H 0.5153 0.3358 0.2531
H1Q H 0.5735 0.3096 0.4177
H2Q H 0.4875 0.3505 0.4547
Zn2AA Zn 0.20272(4) 0.79728(4) 0.29728(4)
Zn1S Zn 0.28601(4) 0.82880(4) 0.26497(4)
Zn1R Zn 0.17120(4) 0.76497(4) 0.21399(4)
Zn1AA Zn 0.26497(4) 0.78601(4) 0.17120(4)
Zn1HA Zn 0.21399(4) 0.67120(4) 0.23503(4)
Zn1GA Zn 0.32880(4) 0.73503(4) 0.28601(4)
O2AA O 0.1493(4) 0.7131(5) 0.3449(4)
O3HA O 0.2789(4) 0.7542(4) 0.3907(4)
O4AA O 0.1376(4) 0.7508(4) 0.3326(4)
O5HA O 0.3171(4) 0.7588(5) 0.3685(5)
O2S O 0.2131(5) 0.6551(4) 0.1493(4)
O4S O 0.2508(4) 0.6674(4) 0.1376(4)
Zn1IA Zn 0.67120(4) 1.23503(4) 0.21399(4)
Zn2B Zn 0.70272(4) 1.20272(4) 0.29728(4)
Zn1CA Zn 0.78601(4) 1.17120(4) 0.26497(4)
Zn1Q Zn 0.76497(4) 1.21399(4) 0.17120(4)
Zn1JA Zn 0.71399(4) 0.82880(4) -0.23503(4)
Zn2P Zn 0.79728(4) 0.79728(4) -0.20272(4)
Zn1EA Zn 0.76497(4) 0.71399(4) -0.17120(4)
Zn1V Zn 0.67120(4) 0.73503(4) -0.21399(4)
Zn1LA Zn 0.28601(4) 0.32880(4) 0.73503(4)
Zn2A Zn 0.20272(4) 0.29728(4) 0.70272(4)
Zn1DA Zn 0.23503(4) 0.21399(4) 0.67120(4)
Zn1A Zn 0.32880(4) 0.23503(4) 0.71399(4)
Zn1FA Zn 0.73503(4) 0.28601(4) 0.32880(4)
Zn2B_2 Zn 0.70272(4) 0.20272(4) 0.29728(4)
Zn1IA_2 Zn 0.67120(4) 0.23503(4) 0.21399(4)
Zn1B Zn 0.71399(4) 0.32880(4) 0.23503(4)
O2GA O 0.1551(4) 0.8507(4) 0.2131(5)
O2HA O 0.2869(5) 0.8449(4) 0.3507(4)
O4GA O 0.1674(4) 0.8624(4) 0.2508(4)
O4HA O 0.2492(4) 0.8326(4) 0.3624(4)
O3GA O 0.2458(4) 0.8907(4) 0.2211(4)
O5GA O 0.2412(5) 0.8685(5) 0.1829(4)
O3AA O 0.1093(4) 0.7211(4) 0.2542(4)
O5S O 0.1829(4) 0.7412(5) 0.1315(5)
O5AA O 0.1315(5) 0.6829(4) 0.2588(5)
O3S O 0.2211(4) 0.7458(4) 0.1093(4)
loop_
_geom_bond_atom_site_label_1
_geom_bond_atom_site_label_2
_geom_bond_site_symmetry_1
_geom_bond_site_symmetry_2
O1 Zn1 1_555 1_555
Zn1 Zn2 1_555 1_555
Zn2 O1 1_555 1_555
N1 C5 1_555 1_555
O2 Zn2 1_555 1_555
O3 O5 1_555 1_555
O4 Zn2 1_555 1_555
O5 C1 1_555 1_555
C1 O2 1_555 1_555
C2 C1 1_555 1_555
C3 C2 1_555 1_555
H1 C3 1_555 1_555
C4 C3 1_555 1_555
H2 C4 1_555 1_555
C5 C4 1_555 1_555
C6 C5 1_555 1_555
H3 C6 1_555 1_555
C7 C2 1_555 1_555
H4 C7 1_555 1_555
C5T N1 1_555 1_555
C4T C5T 1_555 1_555
C3T C4T 1_555 1_555
C2T C3T 1_555 1_555
C1T C2T 1_555 1_555
O2T C1T 1_555 1_555
O4T C1T 1_555 1_555
O3T C1T 1_555 1_555
O5T C1T 1_555 1_555
C7T C2T 1_555 1_555
C6T C5T 1_555 1_555
H3T C6T 1_555 1_555
H4T C7T 1_555 1_555
H1T C3T 1_555 1_555
H2T C4T 1_555 1_555
C5U N1 1_555 1_555
C4U C5U 1_555 1_555
C3U C4U 1_555 1_555
C2U C3U 1_555 1_555
C1U C2U 1_555 1_555
O2U C1U 1_555 1_555
O4U C1U 1_555 1_555
O3U C1U 1_555 1_555
O5U C1U 1_555 1_555
C7U C2U 1_555 1_555
C6U C5U 1_555 1_555
H3U C6U 1_555 1_555
H4U C7U 1_555 1_555
H1U C3U 1_555 1_555
H2U C4U 1_555 1_555
N1R C5R 1_555 1_555
O2R Zn2 1_555 1_555
O3R O5R 1_555 1_555
O4R Zn2 1_555 1_555
O5R Zn1 1_555 1_555
C1R O2R 1_555 1_555
C2R C1R 1_555 1_555
C3R C2R 1_555 1_555
H1R C3R 1_555 1_555
C4R C3R 1_555 1_555
H2R C4R 1_555 1_555
C5R C4R 1_555 1_555
C6R C5R 1_555 1_555
H3R C6R 1_555 1_555
C7R C2R 1_555 1_555
H4R C7R 1_555 1_555
C5W N1R 1_555 1_555
C4W C5W 1_555 1_555
C3W C4W 1_555 1_555
C2W C3W 1_555 1_555
C1W C2W 1_555 1_555
O2W C1W 1_555 1_555
O4W C1W 1_555 1_555
O3W C1W 1_555 1_555
O5W C1W 1_555 1_555
C7W C2W 1_555 1_555
C6W C5W 1_555 1_555
H3W C6W 1_555 1_555
H4W C7W 1_555 1_555
H1W C3W 1_555 1_555
H2W C4W 1_555 1_555
C5Q N1R 1_555 1_555
C4Q C5Q 1_555 1_555
C3Q C4Q 1_555 1_555
C2Q C3Q 1_555 1_555
C1Q C2Q 1_555 1_555
O2Q C1Q 1_555 1_555
O4Q C1Q 1_555 1_555
O3Q C1Q 1_555 1_555
O5Q C1Q 1_555 1_555
C7Q C2Q 1_555 1_555
C6Q C5Q 1_555 1_555
H3Q C6Q 1_555 1_555
H4Q C7Q 1_555 1_555
H1Q C3Q 1_555 1_555
H2Q C4Q 1_555 1_555
Zn2AA O1 1_555 1_555
Zn1S O1 1_555 1_555
Zn1R O1 1_555 1_555
Zn1AA O1 1_555 1_555
Zn1HA O1 1_555 1_555
Zn1GA O1 1_555 1_555
O2AA Zn1 1_555 1_555
O3HA Zn1 1_555 1_555
O4AA Zn1 1_555 1_555
O5HA Zn1 1_555 1_555
O2S Zn2 1_555 1_555
O4S Zn2 1_555 1_555
Zn1IA O2T 1_555 1_555
Zn2B O2T 1_555 1_555
Zn1CA O3T 1_555 1_555
Zn1Q O5T 1_555 1_555
Zn1JA O2U 1_555 1_555
Zn2P O2U 1_555 1_555
Zn1EA O3U 1_555 1_555
Zn1V O5U 1_555 1_555
Zn1LA O2W 1_555 1_555
Zn2A O2W 1_555 1_555
Zn1DA O3W 1_555 1_555
Zn1A O5W 1_555 1_555
Zn1FA O2Q 1_555 1_555
Zn2B_2 O2Q 1_555 1_555
Zn1IA_2 O3Q 1_555 1_555
Zn1B O5Q 1_555 1_555
O2GA Zn2AA 1_555 1_555
O2HA Zn2AA 1_555 1_555
O4GA Zn2AA 1_555 1_555
O4HA Zn2AA 1_555 1_555
O3GA Zn1S 1_555 1_555
O5GA Zn1S 1_555 1_555
O3AA Zn1R 1_555 1_555
O5S Zn1R 1_555 1_555
O5AA Zn1R 1_555 1_555
O3S Zn1AA 1_555 1_555
Zn1 Zn2AA 1_555 1_555
Zn1 Zn1S 1_555 1_555
Zn1 Zn1R 1_555 1_555
Zn1 Zn1HA 1_555 1_555
Zn1 Zn1GA 1_555 1_555
Zn2 Zn1S 1_555 1_555
Zn2 Zn1R 1_555 1_555
Zn2 Zn1AA 1_555 1_555
Zn2 Zn1HA 1_555 1_555
Zn2 Zn1GA 1_555 1_555
O2 O4 1_555 1_555
O2 Zn1AA 1_555 1_555
O3 C1 1_555 1_555
O3 Zn1GA 1_555 1_555
O4 C1 1_555 1_555
O4 Zn1AA 1_555 1_555
O5 Zn1GA 1_555 1_555
O5 Zn1S 1_555 1_555
C6 C7 1_555 1_555
O2T O4T 1_555 1_555
O4T Zn1IA 1_555 1_555
O4T Zn2B 1_555 1_555
O3T O5T 1_555 1_555
O5T Zn1CA 1_555 1_555
C7T C6T 1_555 1_555
O2U O4U 1_555 1_555
O4U Zn1JA 1_555 1_555
O4U Zn2P 1_555 1_555
O3U O5U 1_555 1_555
O5U Zn1EA 1_555 1_555
C7U C6U 1_555 1_555
O2R Zn1GA 1_555 1_555
O2R O4R 1_555 1_555
O3R Zn1HA 1_555 1_555
O3R C1R 1_555 1_555
O4R Zn1GA 1_555 1_555
O4R C1R 1_555 1_555
O5R Zn1HA 1_555 1_555
O5R C1R 1_555 1_555
C6R C7R 1_555 1_555
O2W O4W 1_555 1_555
O4W Zn1LA 1_555 1_555
O4W Zn2A 1_555 1_555
O3W O5W 1_555 1_555
O5W Zn1DA 1_555 1_555
C7W C6W 1_555 1_555
O2Q O4Q 1_555 1_555
O4Q Zn1FA 1_555 1_555
O4Q Zn2B_2 1_555 1_555
O3Q O5Q 1_555 1_555
O5Q Zn1IA_2 1_555 1_555
C7Q C6Q 1_555 1_555
Zn2AA Zn1AA 1_555 1_555
Zn2AA Zn1HA 1_555 1_555
Zn2AA Zn1GA 1_555 1_555
Zn2AA Zn1S 1_555 1_555
Zn2AA Zn1R 1_555 1_555
Zn2AA O2AA 1_555 1_555
Zn2AA O4AA 1_555 1_555
Zn1S Zn1R 1_555 1_555
Zn1S Zn1GA 1_555 1_555
Zn1S Zn1AA 1_555 1_555
Zn1S O2HA 1_555 1_555
Zn1S O4HA 1_555 1_555
Zn1R Zn1AA 1_555 1_555
Zn1R Zn1HA 1_555 1_555
Zn1R O2GA 1_555 1_555
Zn1R O4GA 1_555 1_555
Zn1AA Zn1HA 1_555 1_555
Zn1AA Zn1GA 1_555 1_555
Zn1AA O5S 1_555 1_555
Zn1AA O5GA 1_555 1_555
Zn1HA Zn1GA 1_555 1_555
Zn1HA O2S 1_555 1_555
Zn1HA O4S 1_555 1_555
Zn1HA O5AA 1_555 1_555
Zn1GA O5HA 1_555 1_555
O2AA O4AA 1_555 1_555
O3HA O5HA 1_555 1_555
O2S O4S 1_555 1_555
Zn1IA Zn1Q 1_555 1_555
Zn1IA Zn1CA 1_555 1_555
Zn1IA Zn2B 1_555 1_555
Zn2B Zn1Q 1_555 1_555
Zn2B Zn1CA 1_555 1_555
Zn1CA Zn1Q 1_555 1_555
Zn1JA Zn1V 1_555 1_555
Zn1JA Zn1EA 1_555 1_555
Zn1JA Zn2P 1_555 1_555
Zn2P Zn1V 1_555 1_555
Zn2P Zn1EA 1_555 1_555
Zn1EA Zn1V 1_555 1_555
Zn1LA Zn1A 1_555 1_555
Zn1LA Zn1DA 1_555 1_555
Zn1LA Zn2A 1_555 1_555
Zn2A Zn1A 1_555 1_555
Zn2A Zn1DA 1_555 1_555
Zn1DA Zn1A 1_555 1_555
Zn1FA Zn1B 1_555 1_555
Zn1FA Zn1IA_2 1_555 1_555
Zn1FA Zn2B_2 1_555 1_555
Zn2B_2 Zn1B 1_555 1_555
Zn2B_2 Zn1IA_2 1_555 1_555
Zn1IA_2 Zn1B 1_555 1_555
O2GA O4GA 1_555 1_555
O2HA O4HA 1_555 1_555
O3GA O5GA 1_555 1_555
O3AA O5AA 1_555 1_555
O5S O3S 1_555 1_555

#END
