
#######################################################################
#
#                 Cambridge Crystallographic Data Centre
#                                CCDC 
#
#######################################################################
#
# If this CIF has been generated from an entry in the Cambridge 
# Structural Database, then it will include bibliographic, chemical, 
# crystal, experimental, refinement or atomic coordinate data resulting 
# from the CCDC's data processing and validation procedures.
#
#######################################################################

data_YOBPOW
_chemical_formula_moiety         
'(C10 H18 N4 O8 Zn1)n,0.666n(C1 H4 O1),0.33n(H2 O1)'
_chemical_name_systematic        
'catena-[bis(\m~2~-2-(glycylamino)-3-hydroxypropanoato)-zinc methanol solvate hydrate]'
_symmetry_cell_setting           orthorhombic
_symmetry_space_group_name_H-M   'P 21 21 2'
_symmetry_Int_Tables_number      18
_space_group_name_Hall           'P 2 2ab'
loop_
_symmetry_equiv_pos_site_id
_symmetry_equiv_pos_as_xyz
1 x,y,z
2 -x,-y,z
3 1/2+x,1/2-y,-z
4 1/2-x,1/2+y,-z
_cell_length_a                   13.8742(6)
_cell_length_b                   14.6060(7)
_cell_length_c                   4.7321(2)
_cell_angle_alpha                90
_cell_angle_beta                 90
_cell_angle_gamma                90
_cell_volume                     958.944
_exptl_crystal_colour            'light colorless'
_exptl_crystal_description       prism
_cell_formula_units_Z            2
_exptl_crystal_recrystallization_method methanol
loop_
_atom_site_label
_atom_site_type_symbol
_atom_site_fract_x
_atom_site_fract_y
_atom_site_fract_z
Zn1 Zn 0.0000 0.0000 1.10280(11)
O1 O 0.0969(3) 0.0396(3) 0.8175(9)
O2 O 0.1307(5) 0.1480(6) 1.1132(15)
O3 O 0.3257(5) 0.2640(4) 0.4241(8)
N1 N 0.2884(3) 0.2022(3) 0.8431(8)
H1 H 0.2932 0.2080 1.0276
N2 N 0.4333(3) 0.4032(3) 0.6643(8)
H2 H 0.3967 0.4308 0.5264
H3 H 0.4787 0.3671 0.5768
C1 C 0.1519(4) 0.0995(4) 0.9075(11)
C2 C 0.2394(3) 0.1222(3) 0.7323(11)
H4 H 0.2195 0.1338 0.5323
C3 C 0.3265(4) 0.2668(4) 0.6820(11)
C4 C 0.3717(5) 0.3464(4) 0.8418(11)
H5 H 0.3198 0.3849 0.9225
H6 H 0.4103 0.3219 1.0007
O4 O 0.2602(17) -0.0269(14) 0.569(5)
H7 H 0.2993 -0.0728 0.6077
C5 C 0.3072(8) 0.0393(7) 0.743(3)
H8 H 0.3716 0.0550 0.6675
H9 H 0.3144 0.0166 0.9394
O1A O -0.0969(3) -0.0396(3) 0.8175(9)
O2A O -0.1307(5) -0.1480(6) 1.1132(15)
O3A O -0.3257(5) -0.2640(4) 0.4241(8)
N1A N -0.2884(3) -0.2022(3) 0.8431(8)
H1A H -0.2932 -0.2080 1.0276
N2A N -0.4333(3) -0.4032(3) 0.6643(8)
H2A H -0.3967 -0.4308 0.5264
H3A H -0.4787 -0.3671 0.5768
C1A C -0.1519(4) -0.0995(4) 0.9075(11)
C2A C -0.2394(3) -0.1222(3) 0.7323(11)
H4A H -0.2195 -0.1338 0.5323
C3A C -0.3265(4) -0.2668(4) 0.6820(11)
C4A C -0.3717(5) -0.3464(4) 0.8418(11)
H5A H -0.3198 -0.3849 0.9225
H6A H -0.4103 -0.3219 1.0007
O4A O -0.2602(17) 0.0269(14) 0.569(5)
H7A H -0.2993 0.0728 0.6077
C5A C -0.3072(8) -0.0393(7) 0.743(3)
H8A H -0.3716 -0.0550 0.6675
H9A H -0.3144 -0.0166 0.9394
Zn1B Zn -0.5000 -0.5000 0.89720(11)
Zn1B_2 Zn 0.5000 0.5000 0.89720(11)
N2B N -0.0667(3) 0.0968(3) 1.3357(8)
N2C N 0.0667(3) -0.0968(3) 1.3357(8)
C6 C 0.4384(13) -0.1647(13) 0.363(4)
O5 O 0.4385(14) -0.2339(15) 0.559(5)
O6 O 0.378(3) -0.160(2) 0.740(9)
H10? H 0.2108 0.1452 0.5516
H11? H 0.2741 -0.0046 0.6134
O7? O 0.342(3) 0.0137(19) 0.899(8)
H12? H 0.3489 -0.0422 0.8327
C7? C 0.307(2) 0.0471(13) 0.634(6)
H13? H 0.2724 -0.0011 0.5273
H14? H 0.3600 0.0717 0.5159
H15? H 0.3330 0.0311 0.8223
loop_
_geom_bond_atom_site_label_1
_geom_bond_atom_site_label_2
_geom_bond_site_symmetry_1
_geom_bond_site_symmetry_2
Zn1 O1 1_555 1_555
O1 C1 1_555 1_555
O2 C1 1_555 1_555
O3 C3 1_555 1_555
N1 H1 1_555 1_555
N2 H2 1_555 1_555
H3 N2 1_555 1_555
C1 C2 1_555 1_555
C2 N1 1_555 1_555
H4 C2 1_555 1_555
C3 N1 1_555 1_555
C4 N2 1_555 1_555
H5 C4 1_555 1_555
H6 C4 1_555 1_555
O4 H7 1_555 1_555
C5 C2 1_555 1_555
H8 C5 1_555 1_555
H9 C5 1_555 1_555
C6 O5 1_555 1_555
O1A Zn1 1_555 1_555
O2A C1A 1_555 1_555
O3A C3A 1_555 1_555
N1A H1A 1_555 1_555
N2A H2A 1_555 1_555
H3A N2A 1_555 1_555
C1A O1A 1_555 1_555
C2A N1A 1_555 1_555
H4A C2A 1_555 1_555
C3A N1A 1_555 1_555
C4A N2A 1_555 1_555
H5A C4A 1_555 1_555
H6A C4A 1_555 1_555
O4A H7A 1_555 1_555
C5A C2A 1_555 1_555
H8A C5A 1_555 1_555
H9A C5A 1_555 1_555
Zn1B N2A 1_555 1_555
Zn1B_2 N2 1_555 1_555
N2B Zn1 1_555 1_555
N2C Zn1 1_555 1_555
C3 C4 1_555 1_555
O4 C5 1_555 1_555
C1A C2A 1_555 1_555
C3A C4A 1_555 1_555
O4A C5A 1_555 1_555

#END
