
#######################################################################
#
#                 Cambridge Crystallographic Data Centre
#                                CCDC 
#
#######################################################################
#
# If this CIF has been generated from an entry in the Cambridge 
# Structural Database, then it will include bibliographic, chemical, 
# crystal, experimental, refinement or atomic coordinate data resulting 
# from the CCDC's data processing and validation procedures.
#
#######################################################################

data_YOBPIQ
_chemical_formula_moiety         
'(C12 H22 N4 O8 Zn1)0.5n,0.5n(H2 O1),0.5n(C10 H18 N4 O8 Zn1),n(C1 H4 O1)'
_chemical_name_systematic        
'catena-[bis(\m~2~-2-(glycylamino)-3-hydroxypropanoato)-zinc(ii) bis(\m~2~-2-(glycylamino)-3-hydroxybutanoato)-zinc methanol hemihydrate]'
_symmetry_cell_setting           monoclinic
_symmetry_space_group_name_H-M   'C 2'
_symmetry_Int_Tables_number      5
_space_group_name_Hall           'C 2y'
loop_
_symmetry_equiv_pos_site_id
_symmetry_equiv_pos_as_xyz
1 x,y,z
2 -x,y,-z
3 1/2+x,1/2+y,z
4 1/2-x,1/2+y,-z
_cell_length_a                   11.4558(10)
_cell_length_b                   13.0673(10)
_cell_length_c                   7.7695(6)
_cell_angle_alpha                90
_cell_angle_beta                 126.716(4)
_cell_angle_gamma                90
_cell_volume                     932.324
_exptl_crystal_colour            colorless
_exptl_crystal_description       block
_cell_formula_units_Z            2
loop_
_atom_site_label
_atom_site_type_symbol
_atom_site_fract_x
_atom_site_fract_y
_atom_site_fract_z
O5 O 0.0000 0.6867(9) 0.0000
Zn1 Zn 0.0000 -0.006410(13) 0.0000
O1 O 0.1083(4) 0.1193(2) 0.2396(6)
O2 O 0.3898(4) 0.3915(2) 0.7526(6)
N1 N -0.1550(4) 0.0307(3) 0.0535(5)
H1 H -0.2468 0.0264 -0.0744
H2 H -0.1493 -0.0165 0.1461
C1 C 0.2007(4) 0.3034(3) 0.4481(7)
H3 H 0.2679 0.2452 0.4815
N2 N 0.0556(3) 0.2613(3) 0.3465(5)
H4 H -0.0091 0.2959 0.3496
O3 O 0.1829(3) 0.3696(3) 0.7221(5)
C2 C 0.0206(4) 0.1712(3) 0.2494(6)
C3 C 0.2591(4) 0.3588(3) 0.6592(6)
O4 O 0.3480(4) 0.3954(3) 0.3680(6)
H5 H 0.3976 0.4140 0.4969
C4 C 0.2006(5) 0.3747(4) 0.2920(7)
H6 H 0.1461 0.3424 0.1483
C5 C -0.1341(4) 0.1331(3) 0.1432(7)
H7 H -0.1544 0.1319 0.2504
H8 H -0.2038 0.1810 0.0272
H9 H 0.1514 0.4397 0.2787
O1A O -0.1083(4) 0.1193(2) -0.2396(6)
O2A O -0.3898(4) 0.3915(2) -0.7526(6)
N1A N 0.1550(4) 0.0307(3) -0.0535(5)
H1A H 0.2468 0.0264 0.0744
H2A H 0.1493 -0.0165 -0.1461
C1A C -0.2007(4) 0.3034(3) -0.4481(7)
H3A H -0.2679 0.2452 -0.4815
N2A N -0.0556(3) 0.2613(3) -0.3465(5)
H4A H 0.0091 0.2959 -0.3496
O3A O -0.1829(3) 0.3696(3) -0.7221(5)
C2A C -0.0206(4) 0.1712(3) -0.2494(6)
C3A C -0.2591(4) 0.3588(3) -0.6592(6)
O4A O -0.3480(4) 0.3954(3) -0.3680(6)
H5A H -0.3976 0.4140 -0.4969
C4A C -0.2006(5) 0.3747(4) -0.2920(7)
H6A H -0.1461 0.3424 -0.1483
C5A C 0.1341(4) 0.1331(3) -0.1432(7)
H7A H 0.1544 0.1319 -0.2504
H8A H 0.2038 0.1810 -0.0272
H9A H -0.1514 0.4397 -0.2787
Zn1B Zn -0.5000 0.493590(13) -1.0000
Zn1B_2 Zn 0.5000 0.493590(13) 1.0000
O2B O -0.1102(4) -0.1085(2) -0.2474(6)
O2C O 0.1102(4) -0.1085(2) 0.2474(6)
O6? O -0.0509(11) 0.6869(8) 0.3207(18)
C6? C 0.0000 0.6261(10) 0.5000
C7? C 0.1265(9) 0.4746(6) 0.2625(14)
H10? H 0.0275 0.4617 0.2173
H11? H 0.1219 0.5150 0.1524
H12? H 0.1815 0.5123 0.3984
loop_
_geom_bond_atom_site_label_1
_geom_bond_atom_site_label_2
_geom_bond_site_symmetry_1
_geom_bond_site_symmetry_2
Zn1 O1 1_555 1_555
O1 C2 1_555 1_555
O2 C3 1_555 1_555
N1 Zn1 1_555 1_555
H1 N1 1_555 1_555
H2 N1 1_555 1_555
C1 H3 1_555 1_555
N2 C1 1_555 1_555
H4 N2 1_555 1_555
O3 C3 1_555 1_555
C2 N2 1_555 1_555
C3 C1 1_555 1_555
O4 H5 1_555 1_555
C4 C1 1_555 1_555
H6 C4 1_555 1_555
C5 N1 1_555 1_555
H7 C5 1_555 1_555
H8 C5 1_555 1_555
H9 C4 1_555 1_555
O1A Zn1 1_555 1_555
O2A C3A 1_555 1_555
N1A Zn1 1_555 1_555
H1A N1A 1_555 1_555
H2A N1A 1_555 1_555
C1A H3A 1_555 1_555
N2A C1A 1_555 1_555
H4A N2A 1_555 1_555
O3A C3A 1_555 1_555
C2A O1A 1_555 1_555
C3A C1A 1_555 1_555
O4A H5A 1_555 1_555
C4A C1A 1_555 1_555
H6A C4A 1_555 1_555
C5A N1A 1_555 1_555
H7A C5A 1_555 1_555
H8A C5A 1_555 1_555
H9A C4A 1_555 1_555
Zn1B O2A 1_555 1_555
Zn1B_2 O2 1_555 1_555
O2B Zn1 1_555 1_555
O2C Zn1 1_555 1_555
C2 C5 1_555 1_555
O4 C4 1_555 1_555
N2A C2A 1_555 1_555
C2A C5A 1_555 1_555
O4A C4A 1_555 1_555

#END
