
#######################################################################
#
#                 Cambridge Crystallographic Data Centre
#                                CCDC 
#
#######################################################################
#
# If this CIF has been generated from an entry in the Cambridge 
# Structural Database, then it will include bibliographic, chemical, 
# crystal, experimental, refinement or atomic coordinate data resulting 
# from the CCDC's data processing and validation procedures.
#
#######################################################################

data_YOBQAJ
_chemical_formula_moiety         '(C10 H18 N4 O8 Zn1)n,2n(C1 H4 O1)'
_chemical_name_systematic        
'catena-[bis(\m~2~-2-(glycylamino)-3-hydroxypropanoato)-zinc methanol solvate]'
_symmetry_cell_setting           orthorhombic
_symmetry_space_group_name_H-M   'P 21 21 2'
_symmetry_Int_Tables_number      18
_space_group_name_Hall           'P 2 2ab'
loop_
_symmetry_equiv_pos_site_id
_symmetry_equiv_pos_as_xyz
1 x,y,z
2 -x,-y,z
3 1/2+x,1/2-y,-z
4 1/2-x,1/2+y,-z
_cell_length_a                   13.8808(10)
_cell_length_b                   14.6838(11)
_cell_length_c                   4.7401(3)
_cell_angle_alpha                90
_cell_angle_beta                 90
_cell_angle_gamma                90
_cell_volume                     966.141
_exptl_crystal_colour            'light colorless'
_exptl_crystal_description       irregular
_cell_formula_units_Z            2
loop_
_atom_site_label
_atom_site_type_symbol
_atom_site_fract_x
_atom_site_fract_y
_atom_site_fract_z
Zn1 Zn 0.5000 0.0000 0.09621(8)
O1 O 0.3262(2) 0.23448(19) 0.5734(5)
O2 O 0.1285(2) 0.3502(2) -0.1162(9)
O3 O 0.09736(16) 0.46026(16) 0.1830(5)
N1 N 0.43100(16) 0.09407(16) 0.3322(5)
H1 H 0.3921 0.0653 0.4617
H2 H 0.4755 0.1283 0.4296
N2 N 0.28864(19) 0.29695(17) 0.1493(5)
H3 H 0.2930 0.2910 -0.0350
C1 C 0.3263(2) 0.2323(2) 0.3127(6)
C2 C 0.3722(3) 0.1540(2) 0.1544(7)
H4 H 0.3208 0.1174 0.0647
H5 H 0.4133 0.1791 0.0022
C3 C 0.2406(2) 0.3770(2) 0.2631(7)
H6 H 0.2217 0.3643 0.4627
C4 C 0.3062(3) 0.4593(3) 0.2592(10)
H7 H 0.2729 0.5119 0.3465
H8 H 0.3650 0.4463 0.3702
C5 C 0.1499(2) 0.3965(2) 0.0931(7)
O4 O 0.3323(4) 0.4812(8) -0.0286(13)
H9 H 0.3782 0.5185 -0.0284
O1A O 0.6738(2) -0.23448(19) 0.5734(5)
O2A O 0.8715(2) -0.3502(2) -0.1162(9)
O3A O 0.90264(16) -0.46026(16) 0.1830(5)
N1A N 0.56900(16) -0.09407(16) 0.3322(5)
H1A H 0.6079 -0.0653 0.4617
H2A H 0.5245 -0.1283 0.4296
N2A N 0.71136(19) -0.29695(17) 0.1493(5)
H3A H 0.7070 -0.2910 -0.0350
C1A C 0.6737(2) -0.2323(2) 0.3127(6)
C2A C 0.6278(3) -0.1540(2) 0.1544(7)
H4A H 0.6792 -0.1174 0.0647
H5A H 0.5867 -0.1791 0.0022
C3A C 0.7594(2) -0.3770(2) 0.2631(7)
H6A H 0.7783 -0.3643 0.4627
C4A C 0.6938(3) -0.4593(3) 0.2592(10)
H7A H 0.7271 -0.5119 0.3465
H8A H 0.6350 -0.4463 0.3702
C5A C 0.8501(2) -0.3965(2) 0.0931(7)
O4A O 0.6677(4) -0.4812(8) -0.0286(13)
H9A H 0.6218 -0.5185 -0.0284
Zn1B Zn 0.0000 0.5000 -0.09621(8)
Zn1B_2 Zn 1.0000 -0.5000 -0.09621(8)
O3B O 0.59736(16) 0.03974(16) -0.1830(5)
O3C O 0.40264(16) -0.03974(16) -0.1830(5)
C6 C 0.5526(14) 0.2739(14) 0.395(5)
H10 H 0.6073 0.2318 0.3833
H11 H 0.5519 0.3132 0.2279
H12 H 0.4925 0.2392 0.4042
O5 O 0.5619(7) 0.3288(6) 0.643(2)
H13 H 0.5680 0.3837 0.5960
O6? O 0.401(2) 0.4462(19) 0.358(7)
C7? C 0.5224(9) 0.3875(12) 0.891(3)
H14? H 0.5052 0.4166 1.0702
H15? H 0.4728 0.3429 0.8404
H16? H 0.5270 0.4338 0.7429
C8? C 0.614(2) 0.3200(17) 0.373(6)
H17? H 0.6772 0.3500 0.3883
H18? H 0.5769 0.3487 0.2217
H19? H 0.6237 0.2553 0.3289
O7? O 0.6068(8) 0.3456(6) 0.918(3)
H20? H 0.5983 0.2889 0.9163
O8? O 0.5619(7) 0.3288(6) 0.643(2)
H21? H 0.5209 0.2869 0.6558
H22? H 0.3996 0.4386 0.5333
H23? H 0.3724 0.4425 0.3238
H24? H 0.2759 0.5077 0.3743
O9? O 0.2625(8) 0.5249(8) 0.452(3)
H25? H 0.2740 0.5096 0.6189
C9? C 0.307(3) 0.487(4) -0.057(5)
H26? H 0.3098 0.4820 0.0628
H27? H 0.3684 0.4691 -0.1427
H28? H 0.2995 0.5535 -0.0725
H29? H 0.2539 0.4571 -0.1557
loop_
_geom_bond_atom_site_label_1
_geom_bond_atom_site_label_2
_geom_bond_site_symmetry_1
_geom_bond_site_symmetry_2
Zn1 N1 1_555 1_555
O1 C1 1_555 1_555
O2 C5 1_555 1_555
O3 C5 1_555 1_555
N1 H1 1_555 1_555
H2 N1 1_555 1_555
N2 H3 1_555 1_555
C1 N2 1_555 1_555
C2 N1 1_555 1_555
H4 C2 1_555 1_555
H5 C2 1_555 1_555
C3 N2 1_555 1_555
H6 C3 1_555 1_555
C4 C3 1_555 1_555
H7 C4 1_555 1_555
H8 C4 1_555 1_555
C5 C3 1_555 1_555
O4 C4 1_555 1_555
H9 O4 1_555 1_555
C6 H10 1_555 1_555
H11 C6 1_555 1_555
H12 C6 1_555 1_555
O5 C6 1_555 1_555
H13 O5 1_555 1_555
O1A C1A 1_555 1_555
O2A C5A 1_555 1_555
O3A C5A 1_555 1_555
N1A Zn1 1_555 1_555
H1A N1A 1_555 1_555
H2A N1A 1_555 1_555
N2A H3A 1_555 1_555
C1A N2A 1_555 1_555
C2A N1A 1_555 1_555
H4A C2A 1_555 1_555
H5A C2A 1_555 1_555
C3A N2A 1_555 1_555
H6A C3A 1_555 1_555
C4A C3A 1_555 1_555
H7A C4A 1_555 1_555
H8A C4A 1_555 1_555
C5A C3A 1_555 1_555
O4A C4A 1_555 1_555
H9A O4A 1_555 1_555
Zn1B O3 1_555 1_555
Zn1B_2 O3A 1_555 1_555
O3B Zn1 1_555 1_555
O3C Zn1 1_555 1_555
C1 C2 1_555 1_555
C1A C2A 1_555 1_555

#END
