
#######################################################################
#
#                 Cambridge Crystallographic Data Centre
#                                CCDC 
#
#######################################################################
#
# If this CIF has been generated from an entry in the Cambridge 
# Structural Database, then it will include bibliographic, chemical, 
# crystal, experimental, refinement or atomic coordinate data resulting 
# from the CCDC's data processing and validation procedures.
#
#######################################################################

data_YOBQEN
_chemical_formula_moiety         '(C10 H18 N4 O8 Zn1)n'
_chemical_name_systematic        
catena-[bis(\m~2~-2-(glycylamino)-3-hydroxypropanoato)-zinc]
_symmetry_cell_setting           orthorhombic
_symmetry_space_group_name_H-M   'P 21 21 2'
_symmetry_Int_Tables_number      18
_space_group_name_Hall           'P 2 2ab'
loop_
_symmetry_equiv_pos_site_id
_symmetry_equiv_pos_as_xyz
1 x,y,z
2 -x,-y,z
3 1/2+x,1/2-y,-z
4 1/2-x,1/2+y,-z
_cell_length_a                   11.151(12)
_cell_length_b                   14.586(16)
_cell_length_c                   4.837(5)
_cell_angle_alpha                90
_cell_angle_beta                 90
_cell_angle_gamma                90
_cell_volume                     786.731
_exptl_crystal_colour            'dull light colorless'
_exptl_crystal_description       irregular
_cell_formula_units_Z            2
loop_
_atom_site_label
_atom_site_type_symbol
_atom_site_fract_x
_atom_site_fract_y
_atom_site_fract_z
Zn1 Zn 0.0000 0.5000 1.0822(3)
O1 O 0.3034(10) 0.3967(7) 0.3215(17)
O2 O 0.6200(14) 0.2757(16) 0.916(2)
H1 H 0.6920 0.2926 0.9217
O3 O 0.3554(9) 0.1690(6) 0.9821(16)
O4 O 0.4666(9) 0.1011(6) 0.6498(17)
N1 N 0.1190(11) 0.4269(6) 0.843(2)
H2 H 0.1409 0.3758 0.9426
H3 H 0.0777 0.4065 0.6904
N2 N 0.3687(10) 0.3391(6) 0.737(2)
H4 H 0.3643 0.3436 0.9181
C1 C 0.3075(11) 0.3988(8) 0.583(3)
C2 C 0.2307(13) 0.4705(8) 0.742(3)
H5 H 0.2770 0.4948 0.9010
H6 H 0.2107 0.5224 0.6187
C3 C 0.4426(14) 0.2667(9) 0.618(3)
H7 H 0.4197 0.2604 0.4187
C4 C 0.5756(12) 0.2831(9) 0.630(2)
H8 H 0.6172 0.2375 0.5123
H9 H 0.5938 0.3449 0.5566
C5 C 0.4143(11) 0.1728(9) 0.765(3)
O1A O -0.3034(10) 0.6033(7) 0.3215(17)
O2A O -0.6200(14) 0.7243(16) 0.916(2)
H1A H -0.6920 0.7074 0.9217
O3A O -0.3554(9) 0.8310(6) 0.9821(16)
O4A O -0.4666(9) 0.8989(6) 0.6498(17)
N1A N -0.1190(11) 0.5731(6) 0.843(2)
H2A H -0.1409 0.6242 0.9426
H3A H -0.0777 0.5935 0.6904
N2A N -0.3687(10) 0.6609(6) 0.737(2)
H4A H -0.3643 0.6564 0.9181
C1A C -0.3075(11) 0.6012(8) 0.583(3)
C2A C -0.2307(13) 0.5295(8) 0.742(3)
H5A H -0.2770 0.5052 0.9010
H6A H -0.2107 0.4776 0.6187
C3A C -0.4426(14) 0.7333(9) 0.618(3)
H7A H -0.4197 0.7396 0.4187
C4A C -0.5756(12) 0.7169(9) 0.630(2)
H8A H -0.6172 0.7625 0.5123
H9A H -0.5938 0.6551 0.5566
C5A C -0.4143(11) 0.8272(9) 0.765(3)
Zn1B Zn -0.5000 1.0000 0.9178(3)
Zn1B_2 Zn 0.5000 0.0000 0.9178(3)
O4B O -0.0334(9) 0.3989(6) 1.3502(17)
O4C O 0.0334(9) 0.6011(6) 1.3502(17)
O5? O 0.587(5) 0.280(5) 0.934(5)
H10? H 0.6580 0.2918 0.9794
H11? H 0.6220 0.2328 0.5385
C6? C 0.595(5) 0.376(2) 0.488(9)
H12? H 0.6629 0.3719 0.3599
H13? H 0.6120 0.4231 0.6280
H14? H 0.5226 0.3933 0.3852
loop_
_geom_bond_atom_site_label_1
_geom_bond_atom_site_label_2
_geom_bond_site_symmetry_1
_geom_bond_site_symmetry_2
Zn1 N1 1_555 1_555
O1 C1 1_555 1_555
O2 H1 1_555 1_555
O3 C5 1_555 1_555
O4 C5 1_555 1_555
N1 H2 1_555 1_555
H3 N1 1_555 1_555
N2 H4 1_555 1_555
C1 N2 1_555 1_555
C2 N1 1_555 1_555
H5 C2 1_555 1_555
H6 C2 1_555 1_555
C3 N2 1_555 1_555
H7 C3 1_555 1_555
C4 O2 1_555 1_555
H8 C4 1_555 1_555
H9 C4 1_555 1_555
C5 C3 1_555 1_555
O1A C1A 1_555 1_555
O2A H1A 1_555 1_555
O3A C5A 1_555 1_555
O4A C5A 1_555 1_555
N1A Zn1 1_555 1_555
H2A N1A 1_555 1_555
H3A N1A 1_555 1_555
N2A H4A 1_555 1_555
C1A N2A 1_555 1_555
C2A N1A 1_555 1_555
H5A C2A 1_555 1_555
H6A C2A 1_555 1_555
C3A N2A 1_555 1_555
H7A C3A 1_555 1_555
C4A O2A 1_555 1_555
H8A C4A 1_555 1_555
H9A C4A 1_555 1_555
C5A C3A 1_555 1_555
Zn1B O4A 1_555 1_555
Zn1B_2 O4 1_555 1_555
O4B Zn1 1_555 1_555
O4C Zn1 1_555 1_555
C1 C2 1_555 1_555
C3 C4 1_555 1_555
C1A C2A 1_555 1_555
C3A C4A 1_555 1_555

#END
