
#######################################################################
#
#                 Cambridge Crystallographic Data Centre
#                                CCDC 
#
#######################################################################
#
# If this CIF has been generated from an entry in the Cambridge 
# Structural Database, then it will include bibliographic, chemical, 
# crystal, experimental, refinement or atomic coordinate data resulting 
# from the CCDC's data processing and validation procedures.
#
#######################################################################

data_YABHER
_chemical_name_common            PCN-427
_chemical_formula_moiety         '(C32 H26 Cu2 O10)n'
_chemical_name_systematic        
"catena-[(\m-2',3'',5'',6'-tetramethyl-1,1':4',1'':4'',1'''-quaterphenyl-3,3''',5,5'''-tetracarboxylato)-diaqua-di-copper unknown solvate]"
_symmetry_cell_setting           tetragonal
_symmetry_space_group_name_H-M   'P 42/m n m'
_symmetry_Int_Tables_number      136
_space_group_name_Hall           '-P 4n 2n'
loop_
_symmetry_equiv_pos_site_id
_symmetry_equiv_pos_as_xyz
1 x,y,z
2 1/2-y,1/2+x,1/2+z
3 -x,-y,z
4 1/2+y,1/2-x,1/2+z
5 1/2+x,1/2-y,1/2-z
6 1/2-x,1/2+y,1/2-z
7 y,x,-z
8 -y,-x,-z
9 -x,-y,-z
10 1/2+y,1/2-x,1/2-z
11 x,y,-z
12 1/2-y,1/2+x,1/2-z
13 1/2-x,1/2+y,1/2+z
14 1/2+x,1/2-y,1/2+z
15 -y,-x,z
16 y,x,z
_cell_length_a                   18.7570(5)
_cell_length_b                   18.7570(5)
_cell_length_c                   36.092(2)
_cell_angle_alpha                90
_cell_angle_beta                 90
_cell_angle_gamma                90
_cell_volume                     12698.1
_exptl_crystal_colour            blue
_exptl_crystal_description       Block
_cell_formula_units_Z            8
loop_
_atom_site_label
_atom_site_type_symbol
_atom_site_fract_x
_atom_site_fract_y
_atom_site_fract_z
_atom_site_U_iso_or_equiv
_atom_site_thermal_displace_type
Cu1 Cu 0.20137(3) 0.79863(3) 0.226367(18) 0.0439 Uani
Cu2 Cu 0.26578(3) 0.73422(3) 0.282786(17) 0.0411 Uani
O1 O 0.29616(16) 0.80305(18) 0.20531(8) 0.0616 Uani
O2 O 0.14899(17) 0.85101(17) 0.18114(11) 0.0693 Uani
O3 O 0.35305(14) 0.75031(16) 0.25339(7) 0.0515 Uani
O4 O 0.31721(17) 0.68279(17) 0.32821(11) 0.0643 Uani
O5 O 0.61530(15) 0.71982(17) 0.24486(8) 0.0574 Uani
O6 O 0.66978(14) 0.77253(16) 0.19638(7) 0.0515 Uani
C1 C 0.48273(10) 0.76427(11) 0.21648(4) 0.0477 Uani
H1 H 0.4849 0.7580 0.2426 0.0570 Uiso
C2 C 0.41742(9) 0.77588(10) 0.19931(5) 0.0513 Uani
C3 C 0.41419(10) 0.78502(14) 0.16113(5) 0.0543 Uani
H2 H 0.3696 0.7930 0.1494 0.0650 Uiso
C4 C 0.47625(11) 0.78255(17) 0.14012(4) 0.0567 Uani
C5 C 0.54155(10) 0.77094(15) 0.15730(5) 0.0620 Uani
H3 H 0.5840 0.7693 0.1429 0.0740 Uiso
C6 C 0.54479(9) 0.76180(12) 0.19548(5) 0.0473 Uani
C7 C 0.35035(10) 0.77848(17) 0.22116(7) 0.0493 Uani
C8 C 0.61517(10) 0.75215(19) 0.21357(7) 0.0587 Uani
C9 C 0.4721(2) 0.78201(17) 0.09829(6) 0.0563 Uani
C10 C 0.4646(2) 0.84633(15) 0.07957(7) 0.1632 Uani
C11 C 0.4621(2) 0.84724(17) 0.04108(7) 0.1632 Uani
H4 H 0.4569 0.8912 0.0283 0.1960 Uiso
C12 C 0.4671(2) 0.7838(2) 0.02132(6) 0.0690 Uani
C13 C 0.4747(3) 0.71953(17) 0.04004(9) 0.1632 Uani
H5 H 0.4782 0.6762 0.0265 0.1960 Uiso
C14 C 0.4772(3) 0.71861(15) 0.07853(9) 0.1632 Uani
C15 C 0.4454(4) 0.91830(18) 0.10045(11) 0.1632 Uani
H6 H 0.4489 0.9109 0.1273 0.2450 Uiso
H7 H 0.3967 0.9326 0.0941 0.2450 Uiso
H8 H 0.4787 0.9558 0.0929 0.2450 Uiso
C16 C 0.4989(6) 0.6508(4) 0.09884(16) 0.1632 Uani
H9 H 0.5010 0.6111 0.0812 0.2450 Uiso
H10 H 0.4638 0.6401 0.1182 0.2450 Uiso
H11 H 0.5459 0.6576 0.1102 0.2450 Uiso
O1J O 0.29616(16) 0.80305(18) -0.20531(8) 0.0616 Uani
O3J O 0.35305(14) 0.75031(16) -0.25339(7) 0.0515 Uani
O5J O 0.61530(15) 0.71982(17) -0.24486(8) 0.0574 Uani
O6J O 0.66978(14) 0.77253(16) -0.19638(7) 0.0515 Uani
C1J C 0.48273(10) 0.76427(11) -0.21648(4) 0.0477 Uani
H1J H 0.4849 0.7580 -0.2426 0.0570 Uiso
C2J C 0.41742(9) 0.77588(10) -0.19931(5) 0.0513 Uani
C3J C 0.41419(10) 0.78502(14) -0.16113(5) 0.0543 Uani
H2J H 0.3696 0.7930 -0.1494 0.0650 Uiso
C4J C 0.47625(11) 0.78255(17) -0.14012(4) 0.0567 Uani
C5J C 0.54155(10) 0.77094(15) -0.15730(5) 0.0620 Uani
H3J H 0.5840 0.7693 -0.1429 0.0740 Uiso
C6J C 0.54479(9) 0.76180(12) -0.19548(5) 0.0473 Uani
C7J C 0.35035(10) 0.77848(17) -0.22116(7) 0.0493 Uani
C8J C 0.61517(10) 0.75215(19) -0.21357(7) 0.0587 Uani
C9J C 0.4721(2) 0.78201(17) -0.09829(6) 0.0563 Uani
C10J C 0.4646(2) 0.84633(15) -0.07957(7) 0.1632 Uani
C11J C 0.4621(2) 0.84724(17) -0.04108(7) 0.1632 Uani
H4J H 0.4569 0.8912 -0.0283 0.1960 Uiso
C12J C 0.4671(2) 0.7838(2) -0.02132(6) 0.0690 Uani
C13J C 0.4747(3) 0.71953(17) -0.04004(9) 0.1632 Uani
H5J H 0.4782 0.6762 -0.0265 0.1960 Uiso
C14J C 0.4772(3) 0.71861(15) -0.07853(9) 0.1632 Uani
C15J C 0.4454(4) 0.91830(18) -0.10045(11) 0.1632 Uani
H6J H 0.4489 0.9109 -0.1273 0.2450 Uiso
H7J H 0.3967 0.9326 -0.0941 0.2450 Uiso
H8J H 0.4787 0.9558 -0.0929 0.2450 Uiso
C16J C 0.4989(6) 0.6508(4) -0.09884(16) 0.1632 Uani
H9J H 0.5010 0.6111 -0.0812 0.2450 Uiso
H10J H 0.4638 0.6401 -0.1182 0.2450 Uiso
H11J H 0.5459 0.6576 -0.1102 0.2450 Uiso
Cu1A Cu 0.70137(3) 0.70137(3) -0.273633(18) 0.0439 Uani
Cu1D Cu 0.70137(3) 0.70137(3) 0.273633(18) 0.0439 Uani
Cu1G Cu 0.20137(3) 0.79863(3) -0.226367(18) 0.0439 Uani
Cu2A Cu 0.76578(3) 0.76578(3) -0.217214(17) 0.0411 Uani
Cu2D Cu 0.76578(3) 0.76578(3) 0.217214(17) 0.0411 Uani
Cu2G Cu 0.26578(3) 0.73422(3) -0.282786(17) 0.0411 Uani
O1N O 0.19695(18) 0.70384(16) 0.20531(8) 0.0616 Uani
O3N O 0.24969(16) 0.64695(14) 0.25339(7) 0.0515 Uani
O5D O 0.11530(15) 0.78018(17) 0.25514(8) 0.0574 Uani
O5I O 0.21982(17) 0.88470(15) 0.25514(8) 0.0574 Uani
O6D O 0.16978(14) 0.72747(16) 0.30362(7) 0.0515 Uani
O6I O 0.27253(16) 0.83022(14) 0.30362(7) 0.0515 Uani
loop_
_atom_site_aniso_label
_atom_site_aniso_U_11
_atom_site_aniso_U_22
_atom_site_aniso_U_33
_atom_site_aniso_U_23
_atom_site_aniso_U_13
_atom_site_aniso_U_12
Cu1 0.0483(3) 0.0483(3) 0.0350(3) 0.0039(2) -0.0039(2) 0.0115(3)
Cu2 0.0445(3) 0.0445(3) 0.0344(3) 0.0034(2) -0.0034(2) 0.0084(3)
O1 0.0488(18) 0.085(2) 0.0509(16) 0.0138(17) 0.0021(15) 0.0025(16)
O2 0.080(2) 0.080(2) 0.048(2) 0.0123(16) -0.0123(16) 0.021(3)
O3 0.0432(17) 0.071(2) 0.0402(15) 0.0009(14) 0.0026(13) -0.0025(14)
O4 0.0709(19) 0.0709(19) 0.051(2) 0.0102(16) -0.0102(16) 0.003(2)
O5 0.0498(18) 0.073(2) 0.0494(16) 0.0128(15) -0.0009(14) -0.0100(15)
O6 0.0402(16) 0.070(2) 0.0443(15) 0.0021(14) 0.0003(13) -0.0117(14)
C1 0.049(2) 0.046(2) 0.048(2) 0.002(2) 0.0046(19) -0.0068(19)
C2 0.053(3) 0.060(3) 0.041(2) 0.002(2) -0.0052(19) -0.015(2)
C3 0.047(3) 0.073(3) 0.043(2) 0.002(2) 0.0017(19) -0.006(2)
C4 0.041(2) 0.079(4) 0.050(2) 0.010(2) -0.002(2) -0.012(2)
C5 0.039(2) 0.103(4) 0.044(2) 0.007(2) 0.0064(19) -0.006(2)
C6 0.036(2) 0.060(3) 0.046(2) -0.003(2) -0.0013(18) -0.0097(19)
C7 0.055(3) 0.046(2) 0.047(2) -0.0067(19) 0.005(2) -0.004(2)
C8 0.044(2) 0.086(4) 0.046(2) -0.006(2) 0.008(2) -0.012(2)
C9 0.052(3) 0.067(3) 0.050(2) -0.003(2) 0.001(2) -0.015(2)
C10 0.342(6) 0.094(2) 0.0537(14) 0.0005(15) -0.011(2) 0.016(3)
C11 0.342(6) 0.094(2) 0.0537(14) 0.0005(15) -0.011(2) 0.016(3)
C12 0.053(3) 0.109(4) 0.045(2) -0.001(3) -0.002(2) -0.010(3)
C13 0.342(6) 0.094(2) 0.0537(14) 0.0005(15) -0.011(2) 0.016(3)
C14 0.342(6) 0.094(2) 0.0537(14) 0.0005(15) -0.011(2) 0.016(3)
C15 0.342(6) 0.094(2) 0.0537(14) 0.0005(15) -0.011(2) 0.016(3)
C16 0.342(6) 0.094(2) 0.0537(14) 0.0005(15) -0.011(2) 0.016(3)
O1J 0.0488 0.085 0.0509 -0.0138 -0.0021 0.0025
O3J 0.0432 0.071 0.0402 -0.0009 -0.0026 -0.0025
O5J 0.0498 0.073 0.0494 -0.0128 0.0009 -0.01
O6J 0.0402 0.07 0.0443 -0.0021 -0.0003 -0.0117
C1J 0.049 0.046 0.048 -0.002 -0.0046 -0.0068
C2J 0.053 0.06 0.041 -0.002 0.0052 -0.015
C3J 0.047 0.073 0.043 -0.002 -0.0017 -0.006
C4J 0.041 0.079 0.05 -0.01 0.002 -0.012
C5J 0.039 0.103 0.044 -0.007 -0.0064 -0.006
C6J 0.036 0.06 0.046 0.003 0.0013 -0.0097
C7J 0.055 0.046 0.047 0.0067 -0.005 -0.004
C8J 0.044 0.086 0.046 0.006 -0.008 -0.012
C9J 0.052 0.067 0.05 0.003 -0.001 -0.015
C10J 0.342 0.094 0.0537 -0.0005 0.011 0.016
C11J 0.342 0.094 0.0537 -0.0005 0.011 0.016
C12J 0.053 0.109 0.045 0.001 0.002 -0.01
C13J 0.342 0.094 0.0537 -0.0005 0.011 0.016
C14J 0.342 0.094 0.0537 -0.0005 0.011 0.016
C15J 0.342 0.094 0.0537 -0.0005 0.011 0.016
C16J 0.342 0.094 0.0537 -0.0005 0.011 0.016
Cu1A 0.0483 0.0483 0.035 -0.0039 -0.0039 -0.0115
Cu1D 0.0483 0.0483 0.035 0.0039 0.0039 -0.0115
Cu1G 0.0483 0.0483 0.035 -0.0039 0.0039 0.0115
Cu2A 0.0445 0.0445 0.0344 -0.0034 -0.0034 -0.0084
Cu2D 0.0445 0.0445 0.0344 0.0034 0.0034 -0.0084
Cu2G 0.0445 0.0445 0.0344 -0.0034 0.0034 0.0084
O1N 0.085 0.0488 0.0509 -0.0021 -0.0138 0.0025
O3N 0.071 0.0432 0.0402 -0.0026 -0.0009 -0.0025
O5D 0.0498 0.073 0.0494 0.0128 0.0009 0.01
O5I 0.073 0.0498 0.0494 -0.0009 -0.0128 0.01
O6D 0.0402 0.07 0.0443 0.0021 -0.0003 0.0117
O6I 0.07 0.0402 0.0443 0.0003 -0.0021 0.0117
loop_
_geom_bond_atom_site_label_1
_geom_bond_atom_site_label_2
_geom_bond_site_symmetry_1
_geom_bond_site_symmetry_2
Cu1 Cu2 1_555 1_555
Cu2 O3 1_555 1_555
O1 Cu1 1_555 1_555
O2 Cu1 1_555 1_555
O3 C7 1_555 1_555
O4 Cu2 1_555 1_555
O5 C8 1_555 1_555
O6 C8 1_555 1_555
C1 H1 1_555 1_555
C2 C1 1_555 1_555
C3 C2 1_555 1_555
H2 C3 1_555 1_555
C4 C3 1_555 1_555
C5 C4 1_555 1_555
H3 C5 1_555 1_555
C6 C1 1_555 1_555
C7 O1 1_555 1_555
C8 C6 1_555 1_555
C9 C4 1_555 1_555
C10 C9 1_555 1_555
C11 C10 1_555 1_555
H4 C11 1_555 1_555
C12 C11 1_555 1_555
C13 C12 1_555 1_555
H5 C13 1_555 1_555
C14 C9 1_555 1_555
C15 C10 1_555 1_555
H6 C15 1_555 1_555
H7 C15 1_555 1_555
H8 C15 1_555 1_555
C16 C14 1_555 1_555
H9 C16 1_555 1_555
H10 C16 1_555 1_555
H11 C16 1_555 1_555
O1J C7J 1_555 1_555
O3J C7J 1_555 1_555
O5J C8J 1_555 1_555
O6J C8J 1_555 1_555
C1J H1J 1_555 1_555
C2J C1J 1_555 1_555
C3J C2J 1_555 1_555
H2J C3J 1_555 1_555
C4J C3J 1_555 1_555
C5J C4J 1_555 1_555
H3J C5J 1_555 1_555
C6J C1J 1_555 1_555
C7J C2J 1_555 1_555
C8J C6J 1_555 1_555
C9J C4J 1_555 1_555
C10J C9J 1_555 1_555
C11J C10J 1_555 1_555
H4J C11J 1_555 1_555
C12J C12 1_555 1_555
C13J C12J 1_555 1_555
H5J C13J 1_555 1_555
C14J C9J 1_555 1_555
C15J C10J 1_555 1_555
H6J C15J 1_555 1_555
H7J C15J 1_555 1_555
H8J C15J 1_555 1_555
C16J C14J 1_555 1_555
H9J C16J 1_555 1_555
H10J C16J 1_555 1_555
H11J C16J 1_555 1_555
Cu1A O5J 1_555 1_555
Cu1D O5 1_555 1_555
Cu1G O1J 1_555 1_555
Cu2A O6J 1_555 1_555
Cu2D O6 1_555 1_555
Cu2G O3J 1_555 1_555
O1N Cu1 1_555 1_555
O3N Cu2 1_555 1_555
O5D Cu1 1_555 1_555
O5I Cu1 1_555 1_555
O6D Cu2 1_555 1_555
O6I Cu2 1_555 1_555
C2 C7 1_555 1_555
C5 C6 1_555 1_555
C13 C14 1_555 1_555
C5J C6J 1_555 1_555
C11J C12J 1_555 1_555
C13J C14J 1_555 1_555
Cu1A Cu2A 1_555 1_555
Cu1D Cu2D 1_555 1_555
Cu1G Cu2G 1_555 1_555

#END
