
#######################################################################
#
#                 Cambridge Crystallographic Data Centre
#                                CCDC 
#
#######################################################################
#
# If this CIF has been generated from an entry in the Cambridge 
# Structural Database, then it will include bibliographic, chemical, 
# crystal, experimental, refinement or atomic coordinate data resulting 
# from the CCDC's data processing and validation procedures.
#
#######################################################################

data_XORGOC
_chemical_formula_moiety         '(C8 H8 N8 O6 S1 Zn2)n,2n(H2 O1)'
_chemical_name_systematic        
"catena-[(\m~5~-5-(Pyrazin-2-yl)-3,3'-bi-1,2,4-triazolyl)-(\m~2~-sulfato)-diaqua-di-zinc dihydrate]"
_symmetry_cell_setting           monoclinic
_symmetry_space_group_name_H-M   'P 21/c'
_symmetry_Int_Tables_number      14
_space_group_name_Hall           '-P 2ybc'
loop_
_symmetry_equiv_pos_site_id
_symmetry_equiv_pos_as_xyz
1 x,y,z
2 -x,1/2+y,1/2-z
3 -x,-y,-z
4 x,1/2-y,1/2+z
_cell_length_a                   9.902(2)
_cell_length_b                   11.171(2)
_cell_length_c                   14.512(3)
_cell_angle_alpha                90
_cell_angle_beta                 100.402(4)
_cell_angle_gamma                90
_cell_volume                     1578.87
_exptl_crystal_colour            colorless
_exptl_crystal_description       block
_cell_formula_units_Z            4
loop_
_atom_site_label
_atom_site_type_symbol
_atom_site_fract_x
_atom_site_fract_y
_atom_site_fract_z
_atom_site_U_iso_or_equiv
_atom_site_thermal_displace_type
S1 S 0.88324(7) 1.07802(6) 0.14719(4) 0.0151 Uani
Zn1 Zn 0.90714(3) 1.00698(2) 0.362003(19) 0.0133 Uani
Zn2 Zn 0.65167(3) 0.89187(3) 0.070452(19) 0.0148 Uani
O1 O 0.8949(2) 1.11574(16) 0.24611(13) 0.0190 Uani
O2 O 1.0642(2) 0.89748(17) 0.32087(14) 0.0224 Uani
H1 H 1.0447 0.8883 0.2618 0.0340 Uiso
H2 H 1.0784 0.8286 0.3456 0.0340 Uiso
O3 O 0.7361(2) 1.05362(17) 0.10875(13) 0.0220 Uani
O4 O 0.5851(2) 0.96186(17) -0.06213(12) 0.0187 Uani
H3 H 0.6460 1.0082 -0.0767 0.0280 Uiso
H4 H 0.5695 0.9050 -0.1015 0.0280 Uiso
O5 O 0.9623(2) 0.96838(19) 0.14200(14) 0.0266 Uani
O6 O 0.9297(2) 1.17632(18) 0.09424(13) 0.0260 Uani
N1 N 0.7529(2) 0.87246(19) 0.29660(15) 0.0150 Uani
N2 N 0.6653(2) 0.84925(19) 0.21483(14) 0.0143 Uani
N3 N 0.6034(2) 0.7326(2) 0.32580(15) 0.0168 Uani
N4 N 0.8875(2) 0.88938(18) 0.47366(14) 0.0141 Uani
N5 N 0.9457(2) 0.87788(19) 0.56597(14) 0.0146 Uani
N6 N 0.7801(2) 0.74099(19) 0.53290(15) 0.0154 Uani
N7 N 0.4813(2) 0.75941(19) 0.07315(15) 0.0155 Uani
N8 N 0.2734(2) 0.6065(2) 0.10620(15) 0.0176 Uani
C1 C 0.7125(3) 0.8011(2) 0.36037(17) 0.0138 Uani
C2 C 0.5792(3) 0.7662(2) 0.23508(17) 0.0146 Uani
C3 C 0.7897(2) 0.8070(2) 0.45618(17) 0.0133 Uani
C4 C 0.8799(3) 0.7893(2) 0.59848(18) 0.0175 Uani
H5 H 0.8999 0.7628 0.6602 0.0210 Uiso
C5 C 0.4724(3) 0.7215(2) 0.16042(17) 0.0148 Uani
C6 C 0.3683(3) 0.6468(2) 0.17649(18) 0.0177 Uani
H6 H 0.3641 0.6240 0.2376 0.0210 Uiso
C7 C 0.2858(3) 0.6390(3) 0.01926(19) 0.0208 Uani
H7 H 0.2239 0.6091 -0.0314 0.0250 Uiso
C8 C 0.3888(3) 0.7160(2) 0.00300(18) 0.0194 Uani
H8 H 0.3933 0.7378 -0.0582 0.0230 Uiso
Zn1A Zn 0.09286(3) 0.50698(2) 0.137997(19) 0.0133 Uani
Zn1B Zn 1.09286(3) 0.99302(2) 0.637997(19) 0.0133 Uani
Zn2C Zn 0.65167(3) 0.60813(3) 0.570452(19) 0.0148 Uani
N5B N 1.0543(2) 1.12212(19) 0.43403(14) 0.0146 Uani
N6C N 0.7801(2) 0.75901(19) 0.03290(15) 0.0154 Uani
N8A N 0.7266(2) 1.1065(2) 0.39380(15) 0.0176 Uani
O7 O 0.3519(12) 0.9744(11) 0.3077(10) 0.3367 Uani
H9 H 0.2700 0.9521 0.3084 0.5050 Uiso
H10 H 0.4101 0.9178 0.3121 0.5050 Uiso
O8 O 0.7957(2) 1.0976(2) -0.09159(15) 0.0323 Uani
H11 H 0.8345 1.1207 -0.0375 0.0480 Uiso
H12 H 0.8708 1.0770 -0.1076 0.0480 Uiso
loop_
_atom_site_aniso_label
_atom_site_aniso_U_11
_atom_site_aniso_U_22
_atom_site_aniso_U_33
_atom_site_aniso_U_23
_atom_site_aniso_U_13
_atom_site_aniso_U_12
S1 0.0196(3) 0.0138(3) 0.0113(3) 0.0005(2) 0.0010(2) -0.0029(2)
Zn1 0.01341(16) 0.01374(16) 0.01167(16) 0.00062(11) -0.00082(11) -0.00124(11)
Zn2 0.02018(17) 0.01431(16) 0.00949(16) -0.00006(11) 0.00180(11) -0.00220(11)
O1 0.0266(10) 0.0173(9) 0.0117(9) -0.0001(7) -0.0001(7) -0.0009(8)
O2 0.0243(10) 0.0217(10) 0.0204(10) -0.0005(8) 0.0017(8) 0.0060(8)
O3 0.0231(10) 0.0167(9) 0.0229(10) 0.0024(8) -0.0043(8) -0.0065(8)
O4 0.0252(10) 0.0180(9) 0.0132(9) -0.0027(7) 0.0045(7) -0.0009(8)
O5 0.0317(11) 0.0236(10) 0.0256(11) -0.0029(8) 0.0078(9) 0.0057(9)
O6 0.0358(11) 0.0238(10) 0.0186(10) 0.0029(8) 0.0051(8) -0.0119(9)
N1 0.0161(10) 0.0163(10) 0.0116(10) -0.0002(8) -0.0002(8) -0.0042(8)
N2 0.0166(10) 0.0161(10) 0.0090(10) -0.0004(8) -0.0010(8) -0.0053(9)
N3 0.0181(11) 0.0204(11) 0.0103(10) 0.0024(8) -0.0015(8) -0.0061(9)
N4 0.0157(11) 0.0145(10) 0.0107(10) 0.0003(8) -0.0013(8) -0.0004(8)
N5 0.0167(11) 0.0152(10) 0.0099(10) -0.0007(8) -0.0033(8) -0.0013(8)
N6 0.0177(11) 0.0166(11) 0.0110(10) 0.0015(8) -0.0002(8) -0.0034(9)
N7 0.0159(10) 0.0177(11) 0.0122(10) 0.0027(8) 0.0005(8) -0.0005(9)
N8 0.0173(11) 0.0193(11) 0.0142(11) 0.0017(9) -0.0023(8) -0.0040(9)
C1 0.0141(12) 0.0145(12) 0.0117(12) -0.0007(9) -0.0007(9) -0.0033(9)
C2 0.0159(12) 0.0188(12) 0.0084(11) 0.0019(9) 0.0004(9) -0.0029(10)
C3 0.0156(12) 0.0123(11) 0.0115(12) 0.0000(9) 0.0011(9) -0.0007(9)
C4 0.0213(13) 0.0174(13) 0.0119(12) 0.0027(10) -0.0020(10) -0.0015(10)
C5 0.0172(12) 0.0172(12) 0.0088(11) 0.0010(9) -0.0007(9) -0.0012(10)
C6 0.0190(13) 0.0215(13) 0.0114(12) 0.0026(10) -0.0008(10) -0.0053(11)
C7 0.0205(13) 0.0257(14) 0.0135(12) -0.0012(11) -0.0044(10) -0.0047(11)
C8 0.0222(14) 0.0239(14) 0.0107(12) 0.0023(10) -0.0007(10) -0.0037(11)
Zn1A 0.01341 0.01374 0.01167 -0.00062 -0.00082 0.00124
Zn1B 0.01341 0.01374 0.01167 0.00062 -0.00082 -0.00124
Zn2C 0.02018 0.01431 0.00949 6e-05 0.0018 0.0022
N5B 0.0167 0.0152 0.0099 -0.0007 -0.0033 -0.0013
N6C 0.0177 0.0166 0.011 -0.0015 -0.0002 0.0034
N8A 0.0173 0.0193 0.0142 -0.0017 -0.0023 0.004
O7 0.202(11) 0.365(17) 0.44(2) 0.147(15) 0.050(12) -0.012(11)
O8 0.0280(11) 0.0439(13) 0.0271(11) 0.0008(10) 0.0106(9) -0.0006(10)
loop_
_geom_bond_atom_site_label_1
_geom_bond_atom_site_label_2
_geom_bond_site_symmetry_1
_geom_bond_site_symmetry_2
S1 O1 1_555 1_555
Zn1 O1 1_555 1_555
Zn2 O3 1_555 1_555
O2 Zn1 1_555 1_555
H1 O2 1_555 1_555
H2 O2 1_555 1_555
O3 S1 1_555 1_555
O4 Zn2 1_555 1_555
H3 O4 1_555 1_555
H4 O4 1_555 1_555
O5 S1 1_555 1_555
O6 S1 1_555 1_555
N1 Zn1 1_555 1_555
N2 Zn2 1_555 1_555
N3 C1 1_555 1_555
N4 Zn1 1_555 1_555
N5 N4 1_555 1_555
N6 C3 1_555 1_555
N7 Zn2 1_555 1_555
N8 C6 1_555 1_555
C1 N1 1_555 1_555
C2 N2 1_555 1_555
C3 N4 1_555 1_555
C4 N5 1_555 1_555
H5 C4 1_555 1_555
C5 N7 1_555 1_555
C6 C5 1_555 1_555
H6 C6 1_555 1_555
C7 N8 1_555 1_555
H7 C7 1_555 1_555
C8 N7 1_555 1_555
H8 C8 1_555 1_555
O7 H9 1_555 1_555
H10 O7 1_555 1_555
O8 H11 1_555 1_555
H12 O8 1_555 1_555
Zn1A N8 1_555 1_555
Zn1B N5 1_555 1_555
Zn2C N6 1_555 1_555
N5B Zn1 1_555 1_555
N6C Zn2 1_555 1_555
N8A Zn1 1_555 1_555
N1 N2 1_555 1_555
N3 C2 1_555 1_555
N6 C4 1_555 1_555
C1 C3 1_555 1_555
C2 C5 1_555 1_555
C7 C8 1_555 1_555

#END
