
#######################################################################
#
#                 Cambridge Crystallographic Data Centre
#                                CCDC 
#
#######################################################################
#
# If this CIF has been generated from an entry in the Cambridge 
# Structural Database, then it will include bibliographic, chemical, 
# crystal, experimental, refinement or atomic coordinate data resulting 
# from the CCDC's data processing and validation procedures.
#
#######################################################################

data_XORHET
_chemical_formula_moiety         '(C32 H24 Co4 N32 O4)n,8n(H2 O1)'
_chemical_name_systematic        
"catena-[tetrakis(\m~3~-5-(Pyrazin-2-yl)-3,3'-bi-1,2,4-triazolyl)-tetra-aqua-tetra-cobalt octahydrate]"
_symmetry_cell_setting           tetragonal
_symmetry_space_group_name_H-M   'P 43 21 2'
_symmetry_Int_Tables_number      96
_space_group_name_Hall           'P 4nw 2abw'
loop_
_symmetry_equiv_pos_site_id
_symmetry_equiv_pos_as_xyz
1 x,y,z
2 -x,-y,1/2+z
3 1/2-y,1/2+x,3/4+z
4 1/2+y,1/2-x,1/4+z
5 1/2-x,1/2+y,3/4-z
6 1/2+x,1/2-y,1/4-z
7 y,x,-z
8 -y,-x,1/2-z
_cell_length_a                   18.341(4)
_cell_length_b                   18.341(4)
_cell_length_c                   17.503(5)
_cell_angle_alpha                90
_cell_angle_beta                 90
_cell_angle_gamma                90
_cell_volume                     5887.87
_exptl_crystal_colour            purple
_exptl_crystal_description       block
_cell_formula_units_Z            4
loop_
_atom_site_label
_atom_site_type_symbol
_atom_site_fract_x
_atom_site_fract_y
_atom_site_fract_z
_atom_site_U_iso_or_equiv
_atom_site_thermal_displace_type
Co1 Co 0.84010(2) 0.84010(2) 0.0000 0.0235 Uani
N1 N 0.73514(14) 0.83261(15) 0.04401(14) 0.0300 Uani
N2 N 0.85199(16) 0.94289(15) 0.05710(15) 0.0342 Uani
N3 N 0.88852(14) 0.81101(14) 0.10614(14) 0.0271 Uani
N4 N 0.67761(14) 0.86860(14) 0.01160(15) 0.0274 Uani
C1 C 0.7099(2) 0.8045(2) 0.1084(2) 0.0457 Uani
N5 N 0.84072(17) 1.01638(15) 0.04223(17) 0.0386 Uani
C2 C 0.87987(18) 0.93848(19) 0.12673(18) 0.0311 Uani
C3 C 0.89894(19) 0.86611(18) 0.15344(19) 0.0323 Uani
N6 N 0.91158(17) 0.74997(15) 0.14401(15) 0.0356 Uani
C4 C 0.62098(18) 0.85826(17) 0.05829(17) 0.0275 Uani
Co2 Co 0.65364(2) 0.93261(2) -0.08623(2) 0.0286 Uani
N7 N 0.63714(16) 0.81884(18) 0.11999(17) 0.0431 Uani
H1 H 0.7385 0.7778 0.1422 0.0550 Uiso
C5 C 0.8650(2) 1.05030(19) 0.1039(2) 0.0390 Uani
N8 N 0.88967(15) 1.00420(15) 0.15910(16) 0.0339 Uani
N9 N 0.9261(2) 0.84538(18) 0.22180(17) 0.0559 Uani
C6 C 0.9337(3) 0.7742(2) 0.2117(2) 0.0573 Uani
C7 C 0.55388(18) 0.89503(18) 0.03837(17) 0.0271 Uani
N10 N 0.55433(15) 0.93764(17) -0.02239(15) 0.0362 Uani
O1 O 0.69742(15) 1.02489(14) -0.03030(14) 0.0470 Uani
N11 N 0.60880(14) 0.98923(14) -0.17882(14) 0.0276 Uani
N12 N 0.59309(16) 0.84600(17) -0.14860(17) 0.0404 Uani
C8 C 0.8702(2) 1.1266(2) 0.1160(2) 0.0457 Uani
Co3 Co 0.94392(3) 1.05608(3) 0.2500 0.0400 Uani
H2 H 0.9530 0.7436 0.2490 0.0690 Uiso
N13 N 0.48562(17) 0.96467(17) -0.03116(17) 0.0427 Uani
H3 H 0.7393 1.0144 -0.0125 0.0700 Uiso
H4 H 0.7013 1.0597 -0.0621 0.0700 Uiso
N14 N 0.90670(19) 1.14738(17) 0.17838(19) 0.0503 Uani
C9 C 0.8400(3) 1.1797(2) 0.0668(3) 0.0807 Uani
O2 O 0.9550(2) 0.95997(16) 0.31280(17) 0.0788 Uani
C10 C 0.44915(18) 0.93604(19) 0.02625(19) 0.0336 Uani
C11 C 0.9144(3) 1.2204(2) 0.1897(3) 0.0757 Uani
H5 H 0.8145 1.1645 0.0237 0.0970 Uiso
N15 N 0.8470(4) 1.2507(2) 0.0802(3) 0.1113 Uani
H6 H 0.9965 0.9602 0.3344 0.1180 Uiso
H7 H 0.9522 0.9236 0.2829 0.1180 Uiso
C12 C 0.37182(19) 0.9485(2) 0.0437(2) 0.0409 Uani
H8 H 0.9420 1.2376 0.2305 0.0910 Uiso
C13 C 0.8822(4) 1.2676(3) 0.1417(4) 0.1020 Uani
C14 C 0.3281(3) 0.9964(3) 0.0045(3) 0.0827 Uani
C15 C 0.2762(2) 0.9153(3) 0.1185(2) 0.0577 Uani
H9 H 0.8854 1.3168 0.1538 0.1220 Uiso
H10 H 0.3474 1.0239 -0.0353 0.0990 Uiso
N16 N 0.2567(2) 1.0037(3) 0.0237(3) 0.1083 Uani
H11 H 0.2561 0.8877 0.1578 0.0700 Uiso
C16 C 0.2319(3) 0.9645(4) 0.0792(3) 0.0890 Uani
H12 H 0.1833 0.9692 0.0934 0.1070 Uiso
N1F N 0.83261(15) 0.73514(14) -0.04401(14) 0.0300 Uani
N2F N 0.94289(15) 0.85199(16) -0.05710(15) 0.0342 Uani
N3F N 0.81101(14) 0.88852(14) -0.10614(14) 0.0271 Uani
N4F N 0.86860(14) 0.67761(14) -0.01160(15) 0.0274 Uani
C1F C 0.8045(2) 0.7099(2) -0.1084(2) 0.0457 Uani
N5F N 1.01638(15) 0.84072(17) -0.04223(17) 0.0386 Uani
C2F C 0.93848(19) 0.87987(18) -0.12673(18) 0.0311 Uani
C3F C 0.86611(18) 0.89894(19) -0.15344(19) 0.0323 Uani
N6F N 0.74997(15) 0.91158(17) -0.14401(15) 0.0356 Uani
Co2F Co 0.93261(2) 0.65364(2) 0.08623(2) 0.0286 Uani
C4F C 0.85826(17) 0.62098(18) -0.05829(17) 0.0275 Uani
N7F N 0.81884(18) 0.63714(16) -0.11999(17) 0.0431 Uani
H1F H 0.7778 0.7385 -0.1422 0.0550 Uiso
C5F C 1.05030(19) 0.8650(2) -0.1039(2) 0.0390 Uani
N8F N 1.00420(15) 0.88967(15) -0.15910(16) 0.0339 Uani
N9F N 0.84538(18) 0.9261(2) -0.22180(17) 0.0559 Uani
C6F C 0.7742(2) 0.9337(3) -0.2117(2) 0.0573 Uani
N10F N 0.93764(17) 0.55433(15) 0.02239(15) 0.0362 Uani
O1F O 1.02489(14) 0.69742(15) 0.03030(14) 0.0470 Uani
N11F N 0.98923(14) 0.60880(14) 0.17882(14) 0.0276 Uani
N12F N 0.84600(17) 0.59309(16) 0.14860(17) 0.0404 Uani
C7F C 0.89503(18) 0.55388(18) -0.03837(17) 0.0271 Uani
C8F C 1.1266(2) 0.8702(2) -0.1160(2) 0.0457 Uani
Co3A Co 1.05608(3) 0.94392(3) -0.2500 0.0400 Uani
H2F H 0.7436 0.9530 -0.2490 0.0690 Uiso
N11C N 0.48923(14) 0.89120(14) 0.07118(14) 0.0276 Uani
O2G O 1.04003(16) 1.0450(2) 0.18720(17) 0.0788 Uani
N8G N 0.99580(15) 1.11033(15) 0.34090(16) 0.0339 Uani
N14G N 0.85262(17) 1.09330(19) 0.32162(19) 0.0503 Uani
N13F N 0.96467(17) 0.48562(17) 0.03116(17) 0.0427 Uani
H3F H 1.0144 0.7393 0.0125 0.0700 Uiso
H4F H 1.0597 0.7013 0.0621 0.0700 Uiso
N11D N 0.89120(14) 0.48923(14) -0.07118(14) 0.0276 Uani
N14F N 1.14738(17) 0.90670(19) -0.17838(19) 0.0503 Uani
C9F C 1.1797(2) 0.8400(3) -0.0668(3) 0.0807 Uani
Co2C Co 0.43261(2) 0.84636(2) 0.16377(2) 0.0286 Uani
H6G H 1.0398 1.0035 0.1656 0.1180 Uiso
H7G H 1.0764 1.0478 0.2171 0.1180 Uiso
C10F C 0.93604(19) 0.44915(18) -0.02625(19) 0.0336 Uani
Co2D Co 0.84636(2) 0.43261(2) -0.16377(2) 0.0286 Uani
C11F C 1.2204(2) 0.9144(3) -0.1897(3) 0.0757 Uani
H5F H 1.1645 0.8145 -0.0237 0.0970 Uiso
N15F N 1.2507(2) 0.8470(4) -0.0802(3) 0.1113 Uani
N12C N 0.34600(17) 0.90691(16) 0.10140(17) 0.0404 Uani
C12F C 0.9485(2) 0.37182(19) -0.0437(2) 0.0409 Uani
N12D N 0.90691(16) 0.34600(17) -0.10140(17) 0.0404 Uani
H8F H 1.2376 0.9420 -0.2305 0.0910 Uiso
C13F C 1.2676(3) 0.8822(4) -0.1417(4) 0.1020 Uani
C14F C 0.9964(3) 0.3281(3) -0.0045(3) 0.0827 Uani
C15F C 0.9153(3) 0.2762(2) -0.1185(2) 0.0577 Uani
H9F H 1.3168 0.8854 -0.1538 0.1220 Uiso
H10F H 1.0239 0.3474 0.0353 0.0990 Uiso
N16F N 1.0037(3) 0.2567(2) -0.0237(3) 0.1083 Uani
H11F H 0.8877 0.2561 -0.1578 0.0700 Uiso
C16F C 0.9645(4) 0.2319(3) -0.0792(3) 0.0890 Uani
H12F H 0.9692 0.1833 -0.0934 0.1070 Uiso
loop_
_atom_site_aniso_label
_atom_site_aniso_U_11
_atom_site_aniso_U_22
_atom_site_aniso_U_33
_atom_site_aniso_U_23
_atom_site_aniso_U_13
_atom_site_aniso_U_12
Co1 0.02491(19) 0.02491(19) 0.0206(3) 0.00113(18) -0.00113(18) -0.0008(3)
N1 0.0312(15) 0.0321(16) 0.0267(14) 0.0030(12) -0.0009(12) 0.0010(12)
N2 0.0437(18) 0.0282(15) 0.0307(15) 0.0013(12) -0.0107(13) -0.0037(13)
N3 0.0308(15) 0.0291(15) 0.0214(14) 0.0005(11) -0.0034(11) 0.0017(12)
N4 0.0303(15) 0.0260(14) 0.0259(15) 0.0080(11) 0.0029(11) 0.0034(11)
C1 0.035(2) 0.062(3) 0.040(2) 0.0261(19) 0.0087(17) 0.0043(18)
N5 0.0505(18) 0.0234(14) 0.0418(17) 0.0010(13) -0.0181(16) -0.0007(14)
C2 0.0325(18) 0.0324(18) 0.0284(18) -0.0062(15) -0.0079(14) -0.0068(15)
C3 0.039(2) 0.0313(18) 0.0265(18) -0.0039(14) -0.0100(15) 0.0006(15)
N6 0.0537(19) 0.0281(15) 0.0249(16) -0.0058(12) -0.0111(13) 0.0067(13)
C4 0.0318(17) 0.0282(18) 0.0226(16) 0.0024(13) 0.0057(14) 0.0001(14)
Co2 0.0272 0.0321 0.0266 0.00912 0.00227 0.00195
N7 0.0310(17) 0.055(2) 0.0433(18) 0.0223(15) 0.0121(13) 0.0085(14)
C5 0.043(2) 0.032(2) 0.042(2) 0.0012(16) -0.0141(16) -0.0022(16)
N8 0.0337(16) 0.0319(15) 0.0360(16) -0.0076(13) -0.0106(13) 0.0002(12)
N9 0.101(3) 0.0362(18) 0.0305(17) -0.0103(14) -0.0273(17) 0.0122(19)
C6 0.100(4) 0.035(2) 0.037(2) -0.0027(17) -0.032(2) 0.017(2)
C7 0.0334(19) 0.0281(17) 0.0198(16) 0.0032(13) 0.0043(14) 0.0026(15)
N10 0.0283(15) 0.0466(18) 0.0336(16) 0.0123(14) 0.0066(12) 0.0096(14)
O1 0.0602 0.0375 0.0432 0.012 -0.0184 -0.003
N11 0.0299 0.026 0.027 0.0038 -0.0037 0.001
N12 0.0465 0.0323 0.0424 0.01 0.005 -0.0033
C8 0.060(3) 0.034(2) 0.043(2) 0.0003(17) -0.0064(19) -0.0032(18)
Co3 0.0409(3) 0.0409(3) 0.0382(4) -0.0134(2) -0.0134(2) 0.0014(3)
N13 0.0336(17) 0.050(2) 0.0446(18) 0.0134(15) 0.0053(14) 0.0113(15)
N14 0.063(2) 0.0329(18) 0.055(2) -0.0102(16) -0.0053(17) -0.0043(15)
C9 0.138(5) 0.031(2) 0.073(3) 0.005(2) -0.048(3) 0.002(3)
O2 0.132(3) 0.0483(19) 0.056(2) -0.0165(15) -0.047(2) 0.0160(18)
C10 0.0308(18) 0.0352(19) 0.0349(19) 0.0079(16) 0.0076(15) 0.0038(16)
C11 0.109(4) 0.031(2) 0.087(4) -0.014(2) -0.024(3) -0.008(3)
N15 0.210(6) 0.029(2) 0.095(4) 0.005(2) -0.042(4) 0.006(3)
C12 0.0266(18) 0.049(2) 0.047(2) 0.0075(19) 0.0035(16) 0.0080(16)
C13 0.179(7) 0.031(3) 0.096(5) -0.003(3) -0.015(4) 0.000(3)
C14 0.057(3) 0.108(4) 0.083(3) 0.046(3) 0.020(3) 0.040(3)
C15 0.029(2) 0.087(4) 0.057(3) 0.006(2) 0.0141(19) 0.005(2)
N16 0.063(3) 0.149(5) 0.113(4) 0.056(4) 0.027(3) 0.060(3)
C16 0.036(3) 0.139(6) 0.092(4) 0.015(4) 0.017(3) 0.018(3)
N1F 0.0321 0.0312 0.0267 0.0009 -0.003 0.001
N2F 0.0282 0.0437 0.0307 0.0107 -0.0013 -0.0037
N3F 0.0291 0.0308 0.0214 0.0034 -0.0005 0.0017
N4F 0.026 0.0303 0.0259 -0.0029 -0.008 0.0034
C1F 0.062 0.035 0.04 -0.0087 -0.0261 0.0043
N5F 0.0234 0.0505 0.0418 0.0181 -0.001 -0.0007
C2F 0.0324 0.0325 0.0284 0.0079 0.0062 -0.0068
C3F 0.0313 0.039 0.0265 0.01 0.0039 0.0006
N6F 0.0281 0.0537 0.0249 0.0111 0.0058 0.0067
Co2F 0.0321 0.0272 0.0266 -0.00227 -0.00912 0.00195
C4F 0.0282 0.0318 0.0226 -0.0057 -0.0024 0.0001
N7F 0.055 0.031 0.0433 -0.0121 -0.0223 0.0085
C5F 0.032 0.043 0.042 0.0141 -0.0012 -0.0022
N8F 0.0319 0.0337 0.036 0.0106 0.0076 0.0002
N9F 0.0362 0.101 0.0305 0.0273 0.0103 0.0122
C6F 0.035 0.1 0.037 0.032 0.0027 0.017
N10F 0.0466 0.0283 0.0336 -0.0066 -0.0123 0.0096
O1F 0.0375 0.0602 0.0432 0.0184 -0.012 -0.003
N11F 0.026 0.0299 0.027 0.0037 -0.0038 0.001
N12F 0.0323 0.0465 0.0424 -0.005 -0.01 -0.0033
C7F 0.0281 0.0334 0.0198 -0.0043 -0.0032 0.0026
C8F 0.034 0.06 0.043 0.0064 -0.0003 -0.0032
Co3A 0.0409 0.0409 0.0382 0.0134 0.0134 0.0014
N11C 0.0260(15) 0.0299(15) 0.0270(15) 0.0037(12) 0.0038(12) -0.0010(12)
O2G 0.0483 0.132 0.056 -0.047 -0.0165 0.016
N8G 0.0319 0.0337 0.036 -0.0106 -0.0076 0.0002
N14G 0.0329 0.063 0.055 -0.0053 -0.0102 -0.0043
N13F 0.05 0.0336 0.0446 -0.0053 -0.0134 0.0113
N11D 0.0299 0.026 0.027 -0.0038 -0.0037 -0.001
N14F 0.0329 0.063 0.055 0.0053 0.0102 -0.0043
C9F 0.031 0.138 0.073 0.048 -0.005 0.002
Co2C 0.0321 0.0272 0.0266 -0.00227 0.00912 -0.00195
C10F 0.0352 0.0308 0.0349 -0.0076 -0.0079 0.0038
Co2D 0.0272 0.0321 0.0266 -0.00912 0.00227 -0.00195
C11F 0.031 0.109 0.087 0.024 0.014 -0.008
N15F 0.029 0.21 0.095 0.042 -0.005 0.006
N12C 0.0323(16) 0.0465(18) 0.0424(17) -0.0050(14) 0.0100(14) 0.0033(14)
C12F 0.049 0.0266 0.047 -0.0035 -0.0075 0.008
N12D 0.0465 0.0323 0.0424 -0.01 0.005 0.0033
C13F 0.031 0.179 0.096 0.015 0.003 0
C14F 0.108 0.057 0.083 -0.02 -0.046 0.04
C15F 0.087 0.029 0.057 -0.0141 -0.006 0.005
N16F 0.149 0.063 0.113 -0.027 -0.056 0.06
C16F 0.139 0.036 0.092 -0.017 -0.015 0.018
loop_
_geom_bond_atom_site_label_1
_geom_bond_atom_site_label_2
_geom_bond_site_symmetry_1
_geom_bond_site_symmetry_2
Co1 N1 1_555 1_555
N1 N4 1_555 1_555
N2 Co1 1_555 1_555
N3 Co1 1_555 1_555
N4 C4 1_555 1_555
C1 N1 1_555 1_555
N5 N2 1_555 1_555
C2 N2 1_555 1_555
C3 N3 1_555 1_555
N6 N3 1_555 1_555
C4 N7 1_555 1_555
Co2 N4 1_555 1_555
N7 C1 1_555 1_555
H1 C1 1_555 1_555
C5 N5 1_555 1_555
N8 C2 1_555 1_555
N9 C3 1_555 1_555
C6 N6 1_555 1_555
C7 C4 1_555 1_555
N10 Co2 1_555 1_555
O1 Co2 1_555 1_555
N11 Co2 1_555 1_555
N12 Co2 1_555 1_555
C8 C5 1_555 1_555
Co3 N8 1_555 1_555
H2 C6 1_555 1_555
N13 N10 1_555 1_555
H3 O1 1_555 1_555
H4 O1 1_555 1_555
N14 C8 1_555 1_555
C9 C8 1_555 1_555
O2 Co3 1_555 1_555
C10 N13 1_555 1_555
C11 N14 1_555 1_555
H5 C9 1_555 1_555
N15 C9 1_555 1_555
H6 O2 1_555 1_555
H7 O2 1_555 1_555
C12 C10 1_555 1_555
H8 C11 1_555 1_555
C13 C11 1_555 1_555
C14 C12 1_555 1_555
C15 H11 1_555 1_555
H9 C13 1_555 1_555
H10 C14 1_555 1_555
N16 C14 1_555 1_555
C16 C15 1_555 1_555
H12 C16 1_555 1_555
N1F Co1 1_555 1_555
N2F Co1 1_555 1_555
N3F Co1 1_555 1_555
N4F N1F 1_555 1_555
C1F N1F 1_555 1_555
N5F N2F 1_555 1_555
C2F N2F 1_555 1_555
C3F N3F 1_555 1_555
N6F Co2 1_555 1_555
Co2F N6 1_555 1_555
C4F N4F 1_555 1_555
N7F C1F 1_555 1_555
H1F C1F 1_555 1_555
C5F N5F 1_555 1_555
N8F C2F 1_555 1_555
N9F C3F 1_555 1_555
C6F N6F 1_555 1_555
N10F Co2F 1_555 1_555
O1F Co2F 1_555 1_555
N11F Co2F 1_555 1_555
N12F Co2F 1_555 1_555
C7F C4F 1_555 1_555
C8F C5F 1_555 1_555
Co3A N8F 1_555 1_555
H2F C6F 1_555 1_555
N11C C7 1_555 1_555
O2G Co3 1_555 1_555
N8G Co3 1_555 1_555
N14G Co3 1_555 1_555
N13F N10F 1_555 1_555
H3F O1F 1_555 1_555
H4F O1F 1_555 1_555
N11D C7F 1_555 1_555
N14F C8F 1_555 1_555
C9F C8F 1_555 1_555
Co2C N11C 1_555 1_555
H6G O2G 1_555 1_555
H7G O2G 1_555 1_555
C10F N13F 1_555 1_555
Co2D N11D 1_555 1_555
C11F N14F 1_555 1_555
H5F C9F 1_555 1_555
N15F C9F 1_555 1_555
N12C C12 1_555 1_555
C12F C10F 1_555 1_555
N12D Co2D 1_555 1_555
H8F C11F 1_555 1_555
C13F C11F 1_555 1_555
C14F C12F 1_555 1_555
C15F N12D 1_555 1_555
H9F C13F 1_555 1_555
H10F C14F 1_555 1_555
N16F C14F 1_555 1_555
H11F C15F 1_555 1_555
C16F C15F 1_555 1_555
H12F C16F 1_555 1_555
C2 C3 1_555 1_555
C5 N8 1_555 1_555
N9 C6 1_555 1_555
C7 N10 1_555 1_555
Co3 N14 1_555 1_555
C10 N11C 1_555 1_555
N15 C13 1_555 1_555
C15 N12C 1_555 1_555
N16 C16 1_555 1_555
N3F N6F 1_555 1_555
N4F Co2F 1_555 1_555
C2F C3F 1_555 1_555
C4F N7F 1_555 1_555
C5F N8F 1_555 1_555
N9F C6F 1_555 1_555
N10F C7F 1_555 1_555
Co3A N14F 1_555 1_555
N11D C10F 1_555 1_555
Co2C N12C 1_555 1_555
N15F C13F 1_555 1_555
C12F N12D 1_555 1_555
N16F C16F 1_555 1_555

#END
