
#######################################################################
#
#                 Cambridge Crystallographic Data Centre
#                                CCDC 
#
#######################################################################
#
# If this CIF has been generated from an entry in the Cambridge 
# Structural Database, then it will include bibliographic, chemical, 
# crystal, experimental, refinement or atomic coordinate data resulting 
# from the CCDC's data processing and validation procedures.
#
#######################################################################

data_FALROB
_chemical_formula_moiety         '(C26 H24 N7 Zn1 1+)n,n(C2 N3 1-),n(H2 O1)'
_chemical_name_systematic        
"catena-(bis(\m~2~-4,4'-ethane-1,2-diyldipyridine)-(\m~2~-dicyanamide)-zinc(ii) dicyanamide monohydrate)"
_symmetry_cell_setting           monoclinic
_symmetry_space_group_name_H-M   'C 2/c'
_symmetry_Int_Tables_number      15
_space_group_name_Hall           '-C 2yc'
loop_
_symmetry_equiv_pos_site_id
_symmetry_equiv_pos_as_xyz
1 x,y,z
2 -x,y,1/2-z
3 1/2+x,1/2+y,z
4 1/2-x,1/2+y,1/2-z
5 -x,-y,-z
6 x,-y,1/2+z
7 1/2-x,1/2-y,-z
8 1/2+x,1/2-y,1/2+z
_cell_length_a                   18.7806(5)
_cell_length_b                   19.9045(5)
_cell_length_c                   8.7871(2)
_cell_angle_alpha                90
_cell_angle_beta                 100.9810(10)
_cell_angle_gamma                90
_cell_volume                     3224.64
_exptl_crystal_colour            colorless
_exptl_crystal_description       'square block'
_cell_formula_units_Z            4
loop_
_atom_site_label
_atom_site_type_symbol
_atom_site_fract_x
_atom_site_fract_y
_atom_site_fract_z
O1 O 0.5000 0.0478(8) 0.7500
C1 C 0.3510(3) 0.3896(3) 0.2710(7)
H1 H 0.3455 0.3490 0.3197
C2 C 0.4171(4) 0.4596(3) 0.1480(8)
H2 H 0.4586 0.4681 0.1077
C3 C 0.3650(5) 0.5085(4) 0.1326(9)
H3 H 0.3719 0.5489 0.0841
C4 C 0.3025(5) 0.4980(4) 0.1889(9)
C5 C 0.2960(4) 0.4367(4) 0.2563(9)
H4 H 0.2539 0.4267 0.2928
C6 C 0.2431(6) 0.5906(5) 0.3073(10)
H5 H 0.2903 0.6118 0.3341
H6 H 0.2377 0.5614 0.3927
C7 C 0.0833(4) 0.7057(3) 0.1572(8)
H7 H 0.0487 0.7118 0.0673
C8 C 0.1338(5) 0.6553(4) 0.1583(9)
H8 H 0.1334 0.6289 0.0709
C9 C 0.1813(4) 0.6860(3) 0.4181(8)
H9 H 0.2136 0.6803 0.5115
C10 C 0.1299(3) 0.7347(3) 0.4051(7)
H10 H 0.1285 0.7617 0.4908
C11 C -0.0017(4) 0.8479(3) -0.1190(7)
C12 C 0.2423(6) 0.5491(5) 0.1701(12)
H11 H 0.2460 0.5781 0.0832
H12 H 0.1961 0.5259 0.1455
C13 C 0.1861(4) 0.6446(4) 0.2939(9)
N1 N 0.0811(2) 0.7457(2) 0.2752(5)
N2 N 0.4124(2) 0.4012(2) 0.2164(5)
N3 N -0.0024(3) 0.8325(2) 0.0036(6)
N4 N 0.014(2) 0.8749(6) -0.245(4)
Zn1 Zn 0.0000 0.82488(4) 0.2500
C1B C -0.1490(3) 0.8896(3) 0.2710(7)
H1B H -0.1545 0.8490 0.3197
C2B C -0.0829(4) 0.9596(3) 0.1480(8)
H2B H -0.0414 0.9681 0.1077
C3B C -0.1350(5) 1.0085(4) 0.1326(9)
H3B H -0.1281 1.0489 0.0841
C4B C -0.1975(5) 0.9980(4) 0.1889(9)
C5B C -0.2040(4) 0.9367(4) 0.2563(9)
H4B H -0.2461 0.9267 0.2928
C6B C -0.2569(6) 1.0906(5) 0.3073(10)
H5B H -0.2097 1.1118 0.3341
H6B H -0.2623 1.0614 0.3927
C7B C -0.4167(4) 1.2057(3) 0.1572(8)
H7B H -0.4513 1.2118 0.0673
C8B C -0.3662(5) 1.1553(4) 0.1583(9)
H8B H -0.3666 1.1289 0.0709
C9B C -0.3187(4) 1.1860(3) 0.4181(8)
H9B H -0.2864 1.1803 0.5115
C10B C -0.3701(3) 1.2347(3) 0.4051(7)
H10B H -0.3715 1.2617 0.4908
C11A C 0.0017(4) 0.8479(3) -0.3810(7)
C12B C -0.2577(6) 1.0491(5) 0.1701(12)
H11B H -0.2540 1.0781 0.0832
H12B H -0.3039 1.0259 0.1455
C13B C -0.3139(4) 1.1446(4) 0.2939(9)
N1B N -0.4189(2) 1.2457(2) 0.2752(5)
N1A N -0.0811(2) 0.7457(2) 0.2248(5)
N2B N -0.0876(2) 0.9012(2) 0.2164(5)
N2C N 0.0876(2) 0.9012(2) 0.2836(5)
N3A N 0.0024(3) 0.8325(2) -0.5036(6)
N3A_2 N 0.0024(3) 0.8325(2) 0.4964(6)
N4A N -0.014(2) 0.8749(6) -0.255(4)
Zn1B Zn 0.5000 0.32488(4) 0.2500
Zn1_2 Zn 0.0000 0.82488(4) -0.7500
Zn1B_2 Zn -0.5000 1.32488(4) 0.2500
C14? C 0.185(3) 0.248(3) 0.367(4)
N5? N 0.264(5) 0.215(2) 0.610(11)
N6? N 0.175(4) 0.219(4) 0.490(8)
loop_
_geom_bond_atom_site_label_1
_geom_bond_atom_site_label_2
_geom_bond_site_symmetry_1
_geom_bond_site_symmetry_2
C1 H1 1_555 1_555
C2 H2 1_555 1_555
C3 C2 1_555 1_555
H3 C3 1_555 1_555
C4 C3 1_555 1_555
C5 C1 1_555 1_555
H4 C5 1_555 1_555
C6 H5 1_555 1_555
H6 C6 1_555 1_555
C7 H7 1_555 1_555
C8 C7 1_555 1_555
H8 C8 1_555 1_555
C9 H9 1_555 1_555
C10 C9 1_555 1_555
H10 C10 1_555 1_555
C11 N3 1_555 1_555
C12 C4 1_555 1_555
H11 C12 1_555 1_555
H12 C12 1_555 1_555
C13 C6 1_555 1_555
N1 C7 1_555 1_555
N2 C1 1_555 1_555
N3 Zn1 1_555 1_555
N4 C11 1_555 1_555
Zn1 N1 1_555 1_555
C1B H1B 1_555 1_555
C2B H2B 1_555 1_555
C3B C2B 1_555 1_555
H3B C3B 1_555 1_555
C4B C3B 1_555 1_555
C5B C1B 1_555 1_555
H4B C5B 1_555 1_555
C6B H5B 1_555 1_555
H6B C6B 1_555 1_555
C7B H7B 1_555 1_555
C8B C7B 1_555 1_555
H8B C8B 1_555 1_555
C9B H9B 1_555 1_555
C10B C9B 1_555 1_555
H10B C10B 1_555 1_555
C11A N4 1_555 1_555
C12B C4B 1_555 1_555
H11B C12B 1_555 1_555
H12B C12B 1_555 1_555
C13B C6B 1_555 1_555
N1B C7B 1_555 1_555
N1A Zn1 1_555 1_555
N2B Zn1 1_555 1_555
N2C Zn1 1_555 1_555
N3A C11A 1_555 1_555
N3A_2 Zn1 1_555 1_555
N4A C11 1_555 1_555
Zn1B N2 1_555 1_555
Zn1_2 N3A 1_555 1_555
Zn1B_2 N1B 1_555 1_555
C2 N2 1_555 1_555
C4 C5 1_555 1_555
C6 C12 1_555 1_555
C8 C13 1_555 1_555
C9 C13 1_555 1_555
C10 N1 1_555 1_555
N4 N4A 1_555 1_555
C1B N2B 1_555 1_555
C2B N2B 1_555 1_555
C4B C5B 1_555 1_555
C6B C12B 1_555 1_555
C8B C13B 1_555 1_555
C9B C13B 1_555 1_555
C10B N1B 1_555 1_555
C11A N4A 1_555 1_555

#END
