
#######################################################################
#
#                 Cambridge Crystallographic Data Centre
#                                CCDC 
#
#######################################################################
#
# If this CIF has been generated from an entry in the Cambridge 
# Structural Database, then it will include bibliographic, chemical, 
# crystal, experimental, refinement or atomic coordinate data resulting 
# from the CCDC's data processing and validation procedures.
#
#######################################################################

data_HIXNEK
_chemical_name_common            MUF-15
_chemical_formula_moiety         '(C40 H26 Co6 O24)n,8(C1 H4 O1)'
_chemical_name_systematic        
'catena-[pentakis(\m-benzene-1,3-dicarboxylato)-bis(\m-hydroxo)-bis(aqua)-hexa-cobalt(ii) methanol solvate]'
_symmetry_cell_setting           orthorhombic
_symmetry_space_group_name_H-M   'P n n a'
_symmetry_Int_Tables_number      52
_space_group_name_Hall           '-P 2a 2bc'
loop_
_symmetry_equiv_pos_site_id
_symmetry_equiv_pos_as_xyz
1 x,y,z
2 1/2-x,-y,z
3 1/2-x,1/2+y,1/2-z
4 x,1/2-y,1/2-z
5 -x,-y,-z
6 1/2+x,y,-z
7 1/2+x,1/2-y,1/2+z
8 -x,1/2+y,1/2+z
_cell_length_a                   28.714(2)
_cell_length_b                   21.1265(7)
_cell_length_c                   10.9460(3)
_cell_angle_alpha                90
_cell_angle_beta                 90
_cell_angle_gamma                90
_cell_volume                     6640.13
_exptl_crystal_colour            violet
_exptl_crystal_description       plate
_cell_formula_units_Z            4
loop_
_atom_site_label
_atom_site_type_symbol
_atom_site_fract_x
_atom_site_fract_y
_atom_site_fract_z
Co1 Co 0.54342(10) 0.53604(18) 0.0780(3)
Co2 Co 0.58949(10) 0.4098(2) 0.9405(3)
Co3 Co 0.63210(11) 0.4532(2) 1.2180(3)
O1 O 0.5247(5) 0.5152(7) 0.8957(13)
O2 O 0.4928(5) 0.3819(8) 0.9546(12)
O3 O 0.5761(4) 0.4453(7) 1.1021(10)
O4 O 0.8973(5) 0.4277(7) 1.0086(11)
O5 O 0.5445(4) 0.5592(8) 0.2582(13)
O6 O 0.5802(5) 0.4677(8) 0.7993(12)
O7 O 0.6572(4) 0.3872(8) 0.9168(12)
O8 O 0.5910(5) 0.4927(8) 0.3555(12)
O9 O 0.8479(5) 0.4587(8) 1.1496(14)
O10 O 0.6802(5) 0.4086(9) 1.1060(15)
C1 C 0.5423(4) 0.5459(7) 0.6932(12)
C2 C 0.5560(4) 0.5234(6) 0.5794(15)
H1 H 0.5708 0.4844 0.5729
C3 C 0.5475(4) 0.5593(8) 0.4752(11)
C4 C 0.5254(5) 0.6176(7) 0.4848(12)
H2 H 0.5198 0.6415 0.4151
C5 C 0.5118(5) 0.6401(6) 0.5986(15)
H3 H 0.4970 0.6791 0.6051
C6 C 0.5202(5) 0.6043(8) 0.7028(11)
H4 H 0.5111 0.6193 0.7790
O11 O 0.5581(5) 0.3321(8) 0.8958(13)
C7 C 0.4387(7) 0.2899(11) 0.8251(18)
H5 H 0.4218 0.3154 0.8783
C8 C 0.5100(10) 0.2500 0.7500
H6 H 0.5424 0.2500 0.7500
C9 C 0.5485(9) 0.5122(14) 0.804(3)
C10 C 0.7462(5) 0.3493(9) 0.8501(15)
H7 H 0.7219 0.3322 0.8046
C11 C 0.7367(4) 0.3838(8) 0.9552(14)
C12 C 0.7730(5) 0.4093(7) 1.0233(11)
H8 H 0.7666 0.4325 1.0937
C13 C 0.8188(4) 0.4002(8) 0.9863(13)
C14 C 0.8283(4) 0.3657(10) 0.8811(15)
H9 H 0.8590 0.3596 0.8563
C15 C 0.7920(6) 0.3402(11) 0.8130(14)
H10 H 0.7984 0.3171 0.7427
C16 C 0.4862(8) 0.2931(12) 0.823(2)
C17 C 0.8591(10) 0.4303(13) 1.054(3)
C18 C 0.5622(10) 0.5354(14) 0.355(3)
C19 C 0.6881(9) 0.3988(10) 1.000(3)
C20 C 0.4166(11) 0.2500 0.7500
H11 H 0.3842 0.2500 0.7500
C21 C 0.5117(12) 0.3404(15) 0.900(2)
H12 H 0.5581 0.4080 1.1422
O12 O 0.6144(6) 0.3612(10) 1.2833(17)
H13 H 0.6016 0.3250 1.2333
H14 H 0.6135 0.3432 1.3702
O2C O 0.4928(5) 0.1181(8) 0.5454(12)
O11C O 0.5581(5) 0.1679(8) 0.6042(13)
C7C C 0.4387(7) 0.2101(11) 0.6749(18)
H5C H 0.4218 0.1846 0.6217
C16C C 0.4862(8) 0.2069(12) 0.677(2)
C21C C 0.5117(12) 0.1596(15) 0.600(2)
Co1A Co 0.95658(10) 0.46396(18) 0.0780(3)
Co2A Co 0.91051(10) 0.5902(2) 0.9405(3)
Co3A Co 0.86790(11) 0.5468(2) 1.2180(3)
O1A O 0.9753(5) 0.4848(7) 0.8957(13)
O3A O 0.9239(4) 0.5547(7) 1.1021(10)
O4A O 0.6027(5) 0.5723(7) 1.0086(11)
O5A O 0.9555(4) 0.4408(8) 0.2582(13)
O6A O 0.9198(5) 0.5323(8) 0.7993(12)
O7A O 0.8428(4) 0.6128(8) 0.9168(12)
O8A O 0.9090(5) 0.5073(8) 0.3555(12)
O9A O 0.6521(5) 0.5413(8) 1.1496(14)
O10A O 0.8198(5) 0.5914(9) 1.1060(15)
C1A C 0.9577(4) 0.4541(7) 0.6932(12)
C2A C 0.9440(4) 0.4766(6) 0.5794(15)
H1A H 0.9292 0.5156 0.5729
C3A C 0.9525(4) 0.4407(8) 0.4752(11)
C4A C 0.9746(5) 0.3824(7) 0.4848(12)
H2A H 0.9802 0.3585 0.4151
C5A C 0.9882(5) 0.3599(6) 0.5986(15)
H3A H 1.0030 0.3209 0.6051
C6A C 0.9798(5) 0.3957(8) 0.7028(11)
H4A H 0.9889 0.3807 0.7790
C9A C 0.9515(9) 0.4878(14) 0.804(3)
C10A C 0.7538(5) 0.6507(9) 0.8501(15)
H7A H 0.7781 0.6678 0.8046
C11A C 0.7633(4) 0.6162(8) 0.9552(14)
C12A C 0.7270(5) 0.5907(7) 1.0233(11)
H8A H 0.7334 0.5675 1.0937
C13A C 0.6812(4) 0.5998(8) 0.9863(13)
C14A C 0.6717(4) 0.6343(10) 0.8811(15)
H9A H 0.6410 0.6404 0.8563
C15A C 0.7080(6) 0.6598(11) 0.8130(14)
H10A H 0.7016 0.6829 0.7427
C17A C 0.6409(10) 0.5697(13) 1.054(3)
C18A C 0.9378(10) 0.4646(14) 0.355(3)
C19A C 0.8119(9) 0.6012(10) 1.000(3)
H12A H 0.9419 0.5920 1.1422
O12A O 0.8856(6) 0.6388(10) 1.2833(17)
H13A H 0.8984 0.6750 1.2333
H14A H 0.8865 0.6568 1.3702
Co1_2 Co 0.54342(10) 0.53604(18) 1.0780(3)
Co1A_2 Co 0.95658(10) 0.46396(18) 1.0780(3)
Co1D Co 0.45658(10) 0.46396(18) 0.9220(3)
Co1E Co 1.04342(10) 0.53604(18) 0.9220(3)
Co1G Co 0.45658(10) 0.03604(18) 0.5780(3)
Co2C Co 0.58949(10) 0.0902(2) 0.5595(3)
Co3_2 Co 0.63210(11) 0.4532(2) 0.2180(3)
Co3A_2 Co 0.86790(11) 0.5468(2) 0.2180(3)
O1_2 O 0.5247(5) 0.5152(7) -0.1043(13)
O1A_2 O 0.9753(5) 0.4848(7) -0.1043(13)
O1D O 0.4753(5) 0.4848(7) 0.1043(13)
O1E O 1.0247(5) 0.5152(7) 0.1043(13)
O2D O 0.5072(5) 0.6181(8) 0.0454(12)
O2E O 0.9928(5) 0.3819(8) 0.0454(12)
O3_2 O 0.5761(4) 0.4453(7) 0.1021(10)
O3A_2 O 0.9239(4) 0.5547(7) 0.1021(10)
O4_2 O 0.8973(5) 0.4277(7) 0.0086(11)
O4A_2 O 0.6027(5) 0.5723(7) 0.0086(11)
O8_2 O 0.5910(5) 0.4927(8) 1.3555(12)
O8A_2 O 0.9090(5) 0.5073(8) 1.3555(12)
O11A O 0.9419(5) 0.6679(8) 0.8958(13)
O13? O 0.6868(6) 0.4554(8) 1.3435(15)
H15? H 0.7064 0.4180 1.3844
H16? H 0.7018 0.4954 1.3882
loop_
_geom_bond_atom_site_label_1
_geom_bond_atom_site_label_2
_geom_bond_site_symmetry_1
_geom_bond_site_symmetry_2
Co1 O5 1_555 1_555
Co2 O3 1_555 1_555
Co3 O3 1_555 1_555
O1 C9 1_555 1_555
O2 C21 1_555 1_555
O3 H12 1_555 1_555
O4 C17 1_555 1_555
O5 C18 1_555 1_555
O6 Co2 1_555 1_555
O7 Co2 1_555 1_555
O8 C18 1_555 1_555
O9 C17 1_555 1_555
O10 Co3 1_555 1_555
C1 C2 1_555 1_555
C2 H1 1_555 1_555
C3 C2 1_555 1_555
C4 C3 1_555 1_555
H2 C4 1_555 1_555
C5 C4 1_555 1_555
H3 C5 1_555 1_555
C6 C1 1_555 1_555
H4 C6 1_555 1_555
O11 Co2 1_555 1_555
C7 H5 1_555 1_555
C8 H6 1_555 1_555
C9 O6 1_555 1_555
C10 H7 1_555 1_555
C11 C10 1_555 1_555
C12 C11 1_555 1_555
H8 C12 1_555 1_555
C13 C12 1_555 1_555
C14 C13 1_555 1_555
H9 C14 1_555 1_555
C15 C10 1_555 1_555
H10 C15 1_555 1_555
C16 C7 1_555 1_555
C17 C13 1_555 1_555
C18 C3 1_555 1_555
C19 O7 1_555 1_555
C20 C7 1_555 1_555
H11 C20 1_555 1_555
C21 O11 1_555 1_555
O12 Co3 1_555 1_555
H13 O12 1_555 1_555
H14 O12 1_555 1_555
O2C C21C 1_555 1_555
O11C C21C 1_555 1_555
C7C C20 1_555 1_555
H5C C7C 1_555 1_555
C16C C8 1_555 1_555
C21C C16C 1_555 1_555
Co1A O5A 1_555 1_555
Co2A O3A 1_555 1_555
Co3A O9 1_555 1_555
O1A C9A 1_555 1_555
O3A Co3A 1_555 1_555
O4A C17A 1_555 1_555
O5A C18A 1_555 1_555
O6A Co2A 1_555 1_555
O7A Co2A 1_555 1_555
O8A C18A 1_555 1_555
O9A Co3 1_555 1_555
O10A Co3A 1_555 1_555
C1A C2A 1_555 1_555
C2A H1A 1_555 1_555
C3A C2A 1_555 1_555
C4A C3A 1_555 1_555
H2A C4A 1_555 1_555
C5A C4A 1_555 1_555
H3A C5A 1_555 1_555
C6A C1A 1_555 1_555
H4A C6A 1_555 1_555
C9A O6A 1_555 1_555
C10A H7A 1_555 1_555
C11A C10A 1_555 1_555
C12A C11A 1_555 1_555
H8A C12A 1_555 1_555
C13A C12A 1_555 1_555
C14A C13A 1_555 1_555
H9A C14A 1_555 1_555
C15A C10A 1_555 1_555
H10A C15A 1_555 1_555
C17A O9A 1_555 1_555
C18A C3A 1_555 1_555
C19A O7A 1_555 1_555
H12A O3A 1_555 1_555
O12A Co3A 1_555 1_555
H13A O12A 1_555 1_555
H14A O12A 1_555 1_555
Co1_2 O1 1_555 1_555
Co1A_2 O4 1_555 1_555
Co1D O1 1_555 1_555
Co1E O1A 1_555 1_555
Co1G O2C 1_555 1_555
Co2C O11C 1_555 1_555
Co3_2 O8 1_555 1_555
Co3A_2 O8A 1_555 1_555
O1_2 Co1 1_555 1_555
O1A_2 Co1A 1_555 1_555
O1D Co1 1_555 1_555
O1E Co1A 1_555 1_555
O2D Co1 1_555 1_555
O2E Co1A 1_555 1_555
O3_2 Co1 1_555 1_555
O3A_2 Co1A 1_555 1_555
O4_2 Co1A 1_555 1_555
O4A_2 Co1 1_555 1_555
O8_2 Co3 1_555 1_555
O8A_2 Co3A 1_555 1_555
O11A Co2A 1_555 1_555
O2 Co1D 1_555 1_555
O3 Co1_2 1_555 1_555
O10 C19 1_555 1_555
C1 C9 1_555 1_555
C5 C6 1_555 1_555
C8 C16 1_555 1_555
C11 C19 1_555 1_555
C14 C15 1_555 1_555
C16 C21 1_555 1_555
C7C C16C 1_555 1_555
O1A Co1A_2 1_555 1_555
O3A Co1A_2 1_555 1_555
O4A Co1_2 1_555 1_555
O10A C19A 1_555 1_555
C1A C9A 1_555 1_555
C5A C6A 1_555 1_555
C11A C19A 1_555 1_555
C13A C17A 1_555 1_555
C14A C15A 1_555 1_555
Co3_2 O3_2 1_555 1_555
Co3A_2 O3A_2 1_555 1_555

#END
