
#######################################################################
#
#                 Cambridge Crystallographic Data Centre
#                                CCDC 
#
#######################################################################
#
# If this CIF has been generated from an entry in the Cambridge 
# Structural Database, then it will include bibliographic, chemical, 
# crystal, experimental, refinement or atomic coordinate data resulting 
# from the CCDC's data processing and validation procedures.
#
#######################################################################

data_XULGIW
_chemical_formula_moiety         '(C48 H26 O16 Zr3)n'
_chemical_name_systematic        
"catena-[tris(\m~4~-4,4'-ethyne-1,2-diyldibenzoato)-bis(\m~3~-hydroxo)-bis(\m~3~-oxido)-tri-zirconium(iv) unknown solvate]"
_symmetry_cell_setting           cubic
_symmetry_space_group_name_H-M   'F m -3 m'
_symmetry_Int_Tables_number      225
_space_group_name_Hall           '-F 4 2 3'
loop_
_symmetry_equiv_pos_site_id
_symmetry_equiv_pos_as_xyz
1 x,y,z
2 -y,x,z
3 -x,-y,z
4 y,-x,z
5 x,-z,y
6 x,-y,-z
7 x,z,-y
8 z,y,-x
9 -x,y,-z
10 -z,y,x
11 z,x,y
12 y,z,x
13 -y,-z,x
14 z,-x,-y
15 -y,z,-x
16 -z,-x,y
17 -z,x,-y
18 y,-z,-x
19 y,x,-z
20 -y,-x,-z
21 -x,z,y
22 -x,-z,-y
23 z,-y,x
24 -z,-y,-x
25 x,1/2+y,1/2+z
26 -y,1/2+x,1/2+z
27 -x,1/2-y,1/2+z
28 y,1/2-x,1/2+z
29 x,1/2-z,1/2+y
30 x,1/2-y,1/2-z
31 x,1/2+z,1/2-y
32 z,1/2+y,1/2-x
33 -x,1/2+y,1/2-z
34 -z,1/2+y,1/2+x
35 z,1/2+x,1/2+y
36 y,1/2+z,1/2+x
37 -y,1/2-z,1/2+x
38 z,1/2-x,1/2-y
39 -y,1/2+z,1/2-x
40 -z,1/2-x,1/2+y
41 -z,1/2+x,1/2-y
42 y,1/2-z,1/2-x
43 y,1/2+x,1/2-z
44 -y,1/2-x,1/2-z
45 -x,1/2+z,1/2+y
46 -x,1/2-z,1/2-y
47 z,1/2-y,1/2+x
48 -z,1/2-y,1/2-x
49 1/2+x,y,1/2+z
50 1/2-y,x,1/2+z
51 1/2-x,-y,1/2+z
52 1/2+y,-x,1/2+z
53 1/2+x,-z,1/2+y
54 1/2+x,-y,1/2-z
55 1/2+x,z,1/2-y
56 1/2+z,y,1/2-x
57 1/2-x,y,1/2-z
58 1/2-z,y,1/2+x
59 1/2+z,x,1/2+y
60 1/2+y,z,1/2+x
61 1/2-y,-z,1/2+x
62 1/2+z,-x,1/2-y
63 1/2-y,z,1/2-x
64 1/2-z,-x,1/2+y
65 1/2-z,x,1/2-y
66 1/2+y,-z,1/2-x
67 1/2+y,x,1/2-z
68 1/2-y,-x,1/2-z
69 1/2-x,z,1/2+y
70 1/2-x,-z,1/2-y
71 1/2+z,-y,1/2+x
72 1/2-z,-y,1/2-x
73 1/2+x,1/2+y,z
74 1/2-y,1/2+x,z
75 1/2-x,1/2-y,z
76 1/2+y,1/2-x,z
77 1/2+x,1/2-z,y
78 1/2+x,1/2-y,-z
79 1/2+x,1/2+z,-y
80 1/2+z,1/2+y,-x
81 1/2-x,1/2+y,-z
82 1/2-z,1/2+y,x
83 1/2+z,1/2+x,y
84 1/2+y,1/2+z,x
85 1/2-y,1/2-z,x
86 1/2+z,1/2-x,-y
87 1/2-y,1/2+z,-x
88 1/2-z,1/2-x,y
89 1/2-z,1/2+x,-y
90 1/2+y,1/2-z,-x
91 1/2+y,1/2+x,-z
92 1/2-y,1/2-x,-z
93 1/2-x,1/2+z,y
94 1/2-x,1/2-z,-y
95 1/2+z,1/2-y,x
96 1/2-z,1/2-y,-x
97 -x,-y,-z
98 y,-x,-z
99 x,y,-z
100 -y,x,-z
101 -x,z,-y
102 -x,y,z
103 -x,-z,y
104 -z,-y,x
105 x,-y,z
106 z,-y,-x
107 -z,-x,-y
108 -y,-z,-x
109 y,z,-x
110 -z,x,y
111 y,-z,x
112 z,x,-y
113 z,-x,y
114 -y,z,x
115 -y,-x,z
116 y,x,z
117 x,-z,-y
118 x,z,y
119 -z,y,-x
120 z,y,x
121 -x,1/2-y,1/2-z
122 y,1/2-x,1/2-z
123 x,1/2+y,1/2-z
124 -y,1/2+x,1/2-z
125 -x,1/2+z,1/2-y
126 -x,1/2+y,1/2+z
127 -x,1/2-z,1/2+y
128 -z,1/2-y,1/2+x
129 x,1/2-y,1/2+z
130 z,1/2-y,1/2-x
131 -z,1/2-x,1/2-y
132 -y,1/2-z,1/2-x
133 y,1/2+z,1/2-x
134 -z,1/2+x,1/2+y
135 y,1/2-z,1/2+x
136 z,1/2+x,1/2-y
137 z,1/2-x,1/2+y
138 -y,1/2+z,1/2+x
139 -y,1/2-x,1/2+z
140 y,1/2+x,1/2+z
141 x,1/2-z,1/2-y
142 x,1/2+z,1/2+y
143 -z,1/2+y,1/2-x
144 z,1/2+y,1/2+x
145 1/2-x,-y,1/2-z
146 1/2+y,-x,1/2-z
147 1/2+x,y,1/2-z
148 1/2-y,x,1/2-z
149 1/2-x,z,1/2-y
150 1/2-x,y,1/2+z
151 1/2-x,-z,1/2+y
152 1/2-z,-y,1/2+x
153 1/2+x,-y,1/2+z
154 1/2+z,-y,1/2-x
155 1/2-z,-x,1/2-y
156 1/2-y,-z,1/2-x
157 1/2+y,z,1/2-x
158 1/2-z,x,1/2+y
159 1/2+y,-z,1/2+x
160 1/2+z,x,1/2-y
161 1/2+z,-x,1/2+y
162 1/2-y,z,1/2+x
163 1/2-y,-x,1/2+z
164 1/2+y,x,1/2+z
165 1/2+x,-z,1/2-y
166 1/2+x,z,1/2+y
167 1/2-z,y,1/2-x
168 1/2+z,y,1/2+x
169 1/2-x,1/2-y,-z
170 1/2+y,1/2-x,-z
171 1/2+x,1/2+y,-z
172 1/2-y,1/2+x,-z
173 1/2-x,1/2+z,-y
174 1/2-x,1/2+y,z
175 1/2-x,1/2-z,y
176 1/2-z,1/2-y,x
177 1/2+x,1/2-y,z
178 1/2+z,1/2-y,-x
179 1/2-z,1/2-x,-y
180 1/2-y,1/2-z,-x
181 1/2+y,1/2+z,-x
182 1/2-z,1/2+x,y
183 1/2+y,1/2-z,x
184 1/2+z,1/2+x,-y
185 1/2+z,1/2-x,y
186 1/2-y,1/2+z,x
187 1/2-y,1/2-x,z
188 1/2+y,1/2+x,z
189 1/2+x,1/2-z,-y
190 1/2+x,1/2+z,y
191 1/2-z,1/2+y,-x
192 1/2+z,1/2+y,x
_cell_length_a                   30.2029(13)
_cell_length_b                   30.2029(13)
_cell_length_c                   30.2029(13)
_cell_angle_alpha                90
_cell_angle_beta                 90
_cell_angle_gamma                90
_cell_volume                     27551.5
_exptl_crystal_colour            colorless
_exptl_crystal_description       Octahedral
_cell_formula_units_Z            8
loop_
_atom_site_label
_atom_site_type_symbol
_atom_site_fract_x
_atom_site_fract_y
_atom_site_fract_z
Zr1 Zr 0.0000 0.081339(8) 0.0000
O1 O 0.0000 0.11780(5) 0.06333(6)
O2 O 0.03975(7) 0.03975(7) 0.03975(7)
C1 C 0.0000 0.10413(6) 0.10413(6)
C2 C 0.0000 0.13847(6) 0.13847(6)
C3 C 0.0000 0.18298(9) 0.12399(14)
H1 H 0.0000 0.1912 0.0936
C4 C 0.0000 0.21372(15) 0.15835(12)
H2 H 0.0000 0.2442 0.1504
C5 C 0.0000 0.20362(7) 0.20362(7)
C6 C 0.0000 0.23769(9) 0.23769(9)
O1T O 0.0000 0.06333(6) 0.11780(5)
C3T C 0.0000 0.12399(14) 0.18298(9)
H1T H 0.0000 0.0936 0.1912
C4T C 0.0000 0.15835(12) 0.21372(15)
H2T H 0.0000 0.1504 0.2442
O1CA O 0.0000 0.38220(5) 0.43667(6)
C1CA C 0.0000 0.39587(6) 0.39587(6)
C2CA C 0.0000 0.36153(6) 0.36153(6)
C3CA C 0.0000 0.31702(9) 0.37601(14)
H1CA H 0.0000 0.3088 0.4064
C4CA C 0.0000 0.28628(15) 0.34165(12)
H2CA H 0.0000 0.2558 0.3496
C5CA C 0.0000 0.29638(7) 0.29638(7)
C6CA C 0.0000 0.26231(9) 0.26231(9)
O1SA O 0.0000 0.43667(6) 0.38220(5)
C3SA C 0.0000 0.37601(14) 0.31702(9)
H1SA H 0.0000 0.4064 0.3088
C4SA C 0.0000 0.34165(12) 0.28628(15)
H2SA H 0.0000 0.3496 0.2558
Zr1A Zr -0.081339(8) 0.0000 0.0000
O1A O -0.11780(5) 0.0000 0.06333(6)
O2A O -0.03975(7) 0.03975(7) 0.03975(7)
C1A C -0.10413(6) 0.0000 0.10413(6)
C2A C -0.13847(6) 0.0000 0.13847(6)
C3A C -0.18298(9) 0.0000 0.12399(14)
H1A H -0.1912 0.0000 0.0936
C4A C -0.21372(15) 0.0000 0.15835(12)
H2A H -0.2442 0.0000 0.1504
C5A C -0.20362(7) 0.0000 0.20362(7)
C6A C -0.23769(9) 0.0000 0.23769(9)
O1O O -0.06333(6) 0.0000 0.11780(5)
C3O C -0.12399(14) 0.0000 0.18298(9)
H1O H -0.0936 0.0000 0.1912
C4O C -0.15835(12) 0.0000 0.21372(15)
H2O H -0.1504 0.0000 0.2442
O1NB O -0.38220(5) 0.0000 0.43667(6)
C1IB C -0.39587(6) 0.0000 0.39587(6)
C2IB C -0.36153(6) 0.0000 0.36153(6)
C3NB C -0.31702(9) 0.0000 0.37601(14)
H1NB H -0.3088 0.0000 0.4064
C4NB C -0.28628(15) 0.0000 0.34165(12)
H2NB H -0.2558 0.0000 0.3496
C5IB C -0.29638(7) 0.0000 0.29638(7)
C6IB C -0.26231(9) 0.0000 0.26231(9)
O1IB O -0.43667(6) 0.0000 0.38220(5)
C3IB C -0.37601(14) 0.0000 0.31702(9)
H1IB H -0.4064 0.0000 0.3088
C4IB C -0.34165(12) 0.0000 0.28628(15)
H2IB H -0.3496 0.0000 0.2558
Zr1B Zr 0.0000 -0.081339(8) 0.0000
O1B O 0.0000 -0.11780(5) 0.06333(6)
O2B O -0.03975(7) -0.03975(7) 0.03975(7)
C1B C 0.0000 -0.10413(6) 0.10413(6)
C2B C 0.0000 -0.13847(6) 0.13847(6)
C3B C 0.0000 -0.18298(9) 0.12399(14)
H1B H 0.0000 -0.1912 0.0936
C4B C 0.0000 -0.21372(15) 0.15835(12)
H2B H 0.0000 -0.2442 0.1504
C5B C 0.0000 -0.20362(7) 0.20362(7)
C6B C 0.0000 -0.23769(9) 0.23769(9)
O1D O 0.0000 -0.06333(6) 0.11780(5)
C3D C 0.0000 -0.12399(14) 0.18298(9)
H1D H 0.0000 -0.0936 0.1912
C4D C 0.0000 -0.15835(12) 0.21372(15)
H2D H 0.0000 -0.1504 0.2442
O1FA O 0.0000 -0.38220(5) 0.43667(6)
C1DA C 0.0000 -0.39587(6) 0.39587(6)
C2DA C 0.0000 -0.36153(6) 0.36153(6)
C3FA C 0.0000 -0.31702(9) 0.37601(14)
H1FA H 0.0000 -0.3088 0.4064
C4FA C 0.0000 -0.28628(15) 0.34165(12)
H2FA H 0.0000 -0.2558 0.3496
C5DA C 0.0000 -0.29638(7) 0.29638(7)
C6DA C 0.0000 -0.26231(9) 0.26231(9)
O1DA O 0.0000 -0.43667(6) 0.38220(5)
C3DA C 0.0000 -0.37601(14) 0.31702(9)
H1DA H 0.0000 -0.4064 0.3088
C4DA C 0.0000 -0.34165(12) 0.28628(15)
H2DA H 0.0000 -0.3496 0.2558
O2C O 0.03975(7) -0.03975(7) 0.03975(7)
Zr1C Zr 0.081339(8) 0.0000 0.0000
Zr1D Zr 0.0000 0.0000 0.081339(8)
Zr1X Zr 0.0000 -0.418661(8) 0.5000
Zr1Z Zr 0.0000 0.418661(8) 0.5000
Zr1DA Zr 0.0000 -0.5000 0.418661(8)
Zr1DA_2 Zr 0.0000 0.5000 0.418661(8)
Zr1YA Zr -0.418661(8) 0.0000 0.5000
Zr1BB Zr -0.5000 0.0000 0.418661(8)
O1E O 0.0000 -0.11780(5) -0.06333(6)
O1G O 0.06333(6) 0.11780(5) 0.0000
O1H O 0.0000 0.11780(5) -0.06333(6)
O1I O -0.06333(6) 0.11780(5) 0.0000
O1L O -0.11780(5) -0.06333(6) 0.0000
O1N O -0.11780(5) 0.06333(6) 0.0000
O1S O -0.11780(5) 0.0000 -0.06333(6)
O1V O 0.06333(6) -0.11780(5) 0.0000
O1W O -0.06333(6) -0.11780(5) 0.0000
O2E O 0.03975(7) -0.03975(7) -0.03975(7)
O2F O 0.03975(7) 0.03975(7) -0.03975(7)
O2H O -0.03975(7) 0.03975(7) -0.03975(7)
O2S O -0.03975(7) -0.03975(7) -0.03975(7)
loop_
_geom_bond_atom_site_label_1
_geom_bond_atom_site_label_2
_geom_bond_site_symmetry_1
_geom_bond_site_symmetry_2
Zr1 O1 1_555 1_555
O1 C1 1_555 1_555
O2 Zr1 1_555 1_555
C1 C2 1_555 1_555
C2 C3 1_555 1_555
C3 H1 1_555 1_555
C4 C3 1_555 1_555
H2 C4 1_555 1_555
C5 C4 1_555 1_555
C6 C5 1_555 1_555
O1T C1 1_555 1_555
C3T C2 1_555 1_555
H1T C3T 1_555 1_555
C4T C5 1_555 1_555
H2T C4T 1_555 1_555
O1CA C1CA 1_555 1_555
C1CA C2CA 1_555 1_555
C2CA C3CA 1_555 1_555
C3CA H1CA 1_555 1_555
C4CA C3CA 1_555 1_555
H2CA C4CA 1_555 1_555
C5CA C4CA 1_555 1_555
C6CA C6 1_555 1_555
O1SA C1CA 1_555 1_555
C3SA C2CA 1_555 1_555
H1SA C3SA 1_555 1_555
C4SA C5CA 1_555 1_555
H2SA C4SA 1_555 1_555
Zr1A O1A 1_555 1_555
O1A C1A 1_555 1_555
O2A Zr1 1_555 1_555
C1A C2A 1_555 1_555
C2A C3A 1_555 1_555
C3A H1A 1_555 1_555
C4A C3A 1_555 1_555
H2A C4A 1_555 1_555
C5A C4A 1_555 1_555
C6A C5A 1_555 1_555
O1O C1A 1_555 1_555
C3O C2A 1_555 1_555
H1O C3O 1_555 1_555
C4O C5A 1_555 1_555
H2O C4O 1_555 1_555
O1NB C1IB 1_555 1_555
C1IB C2IB 1_555 1_555
C2IB C3NB 1_555 1_555
C3NB H1NB 1_555 1_555
C4NB C3NB 1_555 1_555
H2NB C4NB 1_555 1_555
C5IB C4NB 1_555 1_555
C6IB C6A 1_555 1_555
O1IB C1IB 1_555 1_555
C3IB C2IB 1_555 1_555
H1IB C3IB 1_555 1_555
C4IB C5IB 1_555 1_555
H2IB C4IB 1_555 1_555
Zr1B O1B 1_555 1_555
O1B C1B 1_555 1_555
O2B Zr1A 1_555 1_555
C1B C2B 1_555 1_555
C2B C3B 1_555 1_555
C3B H1B 1_555 1_555
C4B C3B 1_555 1_555
H2B C4B 1_555 1_555
C5B C4B 1_555 1_555
C6B C5B 1_555 1_555
O1D C1B 1_555 1_555
C3D C2B 1_555 1_555
H1D C3D 1_555 1_555
C4D C5B 1_555 1_555
H2D C4D 1_555 1_555
O1FA C1DA 1_555 1_555
C1DA C2DA 1_555 1_555
C2DA C3FA 1_555 1_555
C3FA H1FA 1_555 1_555
C4FA C3FA 1_555 1_555
H2FA C4FA 1_555 1_555
C5DA C4FA 1_555 1_555
C6DA C6B 1_555 1_555
O1DA C1DA 1_555 1_555
C3DA C2DA 1_555 1_555
H1DA C3DA 1_555 1_555
C4DA C5DA 1_555 1_555
H2DA C4DA 1_555 1_555
O2C Zr1B 1_555 1_555
Zr1C O2 1_555 1_555
Zr1D O2 1_555 1_555
Zr1X O1FA 1_555 1_555
Zr1Z O1CA 1_555 1_555
Zr1DA O1DA 1_555 1_555
Zr1DA_2 O1SA 1_555 1_555
Zr1YA O1NB 1_555 1_555
Zr1BB O1IB 1_555 1_555
O1E Zr1B 1_555 1_555
O1G Zr1 1_555 1_555
O1H Zr1 1_555 1_555
O1I Zr1 1_555 1_555
O1L Zr1A 1_555 1_555
O1N Zr1A 1_555 1_555
O1S Zr1A 1_555 1_555
O1V Zr1B 1_555 1_555
O1W Zr1B 1_555 1_555
O2E Zr1B 1_555 1_555
O2F Zr1 1_555 1_555
O2H Zr1 1_555 1_555
O2S Zr1A 1_555 1_555
O1T Zr1D 1_555 1_555
C3T C4T 1_555 1_555
C5CA C6CA 1_555 1_555
C3SA C4SA 1_555 1_555
Zr1A O2A 1_555 1_555
Zr1A O2H 1_555 1_555
O2A Zr1D 1_555 1_555
O1O Zr1D 1_555 1_555
C3O C4O 1_555 1_555
C5IB C6IB 1_555 1_555
C3IB C4IB 1_555 1_555
Zr1B O2B 1_555 1_555
Zr1B O2S 1_555 1_555
O2B Zr1D 1_555 1_555
O1D Zr1D 1_555 1_555
C3D C4D 1_555 1_555
C5DA C6DA 1_555 1_555
C3DA C4DA 1_555 1_555
O2C Zr1C 1_555 1_555
O2C Zr1D 1_555 1_555
Zr1C O2E 1_555 1_555
Zr1C O2F 1_555 1_555

#END
