
#######################################################################
#
#                 Cambridge Crystallographic Data Centre
#                                CCDC 
#
#######################################################################
#
# If this CIF has been generated from an entry in the Cambridge 
# Structural Database, then it will include bibliographic, chemical, 
# crystal, experimental, refinement or atomic coordinate data resulting 
# from the CCDC's data processing and validation procedures.
#
#######################################################################

data_PUPJER
_chemical_formula_moiety         '(C24 H12 Cu2 F6 O10)n'
_chemical_name_systematic        
catena-[(\m-2',5'-bis(trifluoromethyl)-1,1':4',1''-terphenyl-3,3'',5,5''-tetracarboxylato)-diaqua-di-copper]
_symmetry_cell_setting           rhombohedral
_symmetry_space_group_name_H-M   'R -3 m'
_symmetry_Int_Tables_number      166
_space_group_name_Hall           '-R 3 2"'
loop_
_symmetry_equiv_pos_site_id
_symmetry_equiv_pos_as_xyz
1 x,y,z
2 -y,x-y,z
3 -x+y,-x,z
4 x-y,-y,-z
5 -x,-x+y,-z
6 y,x,-z
7 2/3+x,1/3+y,1/3+z
8 2/3-y,1/3+x-y,1/3+z
9 2/3-x+y,1/3-x,1/3+z
10 2/3+x-y,1/3-y,1/3-z
11 2/3-x,1/3-x+y,1/3-z
12 2/3+y,1/3+x,1/3-z
13 1/3+x,2/3+y,2/3+z
14 1/3-y,2/3+x-y,2/3+z
15 1/3-x+y,2/3-x,2/3+z
16 1/3+x-y,2/3-y,2/3-z
17 1/3-x,2/3-x+y,2/3-z
18 1/3+y,2/3+x,2/3-z
19 -x,-y,-z
20 y,-x+y,-z
21 x-y,x,-z
22 -x+y,y,z
23 x,x-y,z
24 -y,-x,z
25 1/3-x,2/3-y,2/3-z
26 1/3+y,2/3-x+y,2/3-z
27 1/3+x-y,2/3+x,2/3-z
28 1/3-x+y,2/3+y,2/3+z
29 1/3+x,2/3+x-y,2/3+z
30 1/3-y,2/3-x,2/3+z
31 2/3-x,1/3-y,1/3-z
32 2/3+y,1/3-x+y,1/3-z
33 2/3+x-y,1/3+x,1/3-z
34 2/3-x+y,1/3+y,1/3+z
35 2/3+x,1/3+x-y,1/3+z
36 2/3-y,1/3-x,1/3+z
_cell_length_a                   18.5283(4)
_cell_length_b                   18.5283(4)
_cell_length_c                   38.8075(8)
_cell_angle_alpha                90
_cell_angle_beta                 90
_cell_angle_gamma                120
_cell_volume                     11537.7
_exptl_crystal_colour            blue
_exptl_crystal_description       block
_cell_formula_units_Z            9
loop_
_atom_site_label
_atom_site_type_symbol
_atom_site_fract_x
_atom_site_fract_y
_atom_site_fract_z
_atom_site_U_iso_or_equiv
_atom_site_thermal_displace_type
C1 C 0.55588(14) 0.44412(14) 0.63914(10) 0.0503 Uani
H1 H 0.5664 0.4336 0.6615 0.0600 Uiso
C2 C 0.48300(16) 0.38719(18) 0.62220(7) 0.0503 Uani
C3 C 0.42471(16) 0.30638(18) 0.63924(7) 0.0499 Uani
C4 C 0.46741(19) 0.40336(19) 0.58839(8) 0.0579 Uani
H2 H 0.4191 0.3649 0.5770 0.0690 Uiso
C5 C 0.52375(15) 0.47625(15) 0.57206(12) 0.0581 Uani
C6 C 0.5400(2) 0.4600(2) 0.51090(16) 0.1039 Uani
H3 H 0.5678 0.4322 0.5178 0.1250 Uiso
C7 C 0.51001(17) 0.48999(17) 0.53523(11) 0.0591 Uani
C8 C 0.4693(2) 0.5307(2) 0.52451(16) 0.1040 Uani
C9 C 0.4360(3) 0.5640(3) 0.5515(3) 0.1572 Uani
F1 F 0.3969(2) 0.6031(2) 0.5359(2) 0.1296 Uani
F2 F 0.4980(5) 0.6217(4) 0.57140(19) 0.1901 Uani
O1 O 0.36258(13) 0.25520(14) 0.62212(5) 0.0601 Uani
O2 O 0.44345(13) 0.29561(14) 0.66902(5) 0.0601 Uani
Cu1 Cu 0.38149(3) 0.190745(14) 0.694477(12) 0.0394 Uani
O3 O 0.4584(3) 0.22918(16) 0.73940(11) 0.1115 Uani
H4 H 0.4892 0.2071 0.7401 0.1670 Uiso
C1E C 0.44412(14) 0.55588(14) 0.36086(10) 0.0503 Uani
H1E H 0.4336 0.5664 0.3385 0.0600 Uiso
C2E C 0.38719(18) 0.48300(16) 0.37780(7) 0.0503 Uani
C3E C 0.30638(18) 0.42471(16) 0.36076(7) 0.0499 Uani
C4E C 0.40336(19) 0.46741(19) 0.41161(8) 0.0579 Uani
H2E H 0.3649 0.4191 0.4230 0.0690 Uiso
C5E C 0.47625(15) 0.52375(15) 0.42794(12) 0.0581 Uani
C6E C 0.4600(2) 0.5400(2) 0.48910(16) 0.1039 Uani
H3E H 0.4322 0.5678 0.4822 0.1250 Uiso
C7E C 0.48999(17) 0.51001(17) 0.46477(11) 0.0591 Uani
C8E C 0.5307(2) 0.4693(2) 0.47549(16) 0.1040 Uani
C9E C 0.5640(3) 0.4360(3) 0.4485(3) 0.1572 Uani
F1E F 0.6031(2) 0.3969(2) 0.4641(2) 0.1296 Uani
F2E F 0.6217(4) 0.4980(5) 0.42860(19) 0.1901 Uani
O1E O 0.25520(14) 0.36258(13) 0.37788(5) 0.0601 Uani
O2E O 0.29561(14) 0.44345(13) 0.33098(5) 0.0601 Uani
C2R C 0.51700(16) 0.61281(18) 0.37780(7) 0.0503 Uani
C3R C 0.57529(16) 0.69362(18) 0.36076(7) 0.0499 Uani
C4R C 0.53259(19) 0.59664(19) 0.41161(8) 0.0579 Uani
H2R H 0.5809 0.6351 0.4230 0.0690 Uiso
F2R F 0.5020(5) 0.3783(4) 0.42860(19) 0.1901 Uani
O1R O 0.63742(13) 0.74480(14) 0.37788(5) 0.0601 Uani
O2R O 0.55655(13) 0.70439(14) 0.33098(5) 0.0601 Uani
C2W C 0.61281(18) 0.51700(16) 0.62220(7) 0.0503 Uani
C3W C 0.69362(18) 0.57529(16) 0.63924(7) 0.0499 Uani
C4W C 0.59664(19) 0.53259(19) 0.58839(8) 0.0579 Uani
H2W H 0.6351 0.5809 0.5770 0.0690 Uiso
F2W F 0.3783(4) 0.5020(5) 0.57140(19) 0.1901 Uani
O1W O 0.74480(14) 0.63742(13) 0.62212(5) 0.0601 Uani
O2W O 0.70439(14) 0.55655(13) 0.66902(5) 0.0601 Uani
H4V H 0.4892 0.2821 0.7401 0.1670 Uiso
Cu1J Cu 0.28518(3) 0.142588(33) 0.638856(12) 0.0394 Uani
O3J O 0.2083(3) 0.10411(34) 0.59393(11) 0.1115 Uani
H4J H 0.1775 0.0512 0.5932 0.1670 Uiso
H4DA H 0.1775 0.1262 0.5932 0.1670 Uiso
O1J O 0.30409(13) 0.22595(19) 0.71121(5) 0.0601 Uani
O1V O 0.36258(13) 0.10738(19) 0.62212(5) 0.0601 Uani
O1DA O 0.30409(13) 0.07813(14) 0.71121(5) 0.0601 Uani
O2J O 0.22322(13) 0.18549(19) 0.66431(5) 0.0601 Uani
O2V O 0.44345(13) 0.14784(19) 0.66902(5) 0.0601 Uani
O2DA O 0.22322(13) 0.03772(14) 0.66431(5) 0.0601 Uani
Cu1B Cu 0.809255(33) 0.61851(3) 0.694477(12) 0.0394 Uani
Cu1D Cu 0.61851(3) 0.809255(33) 0.305523(12) 0.0394 Uani
Cu1E Cu 0.190745(14) 0.38149(3) 0.305523(12) 0.0394 Uani
Cu1K Cu 0.857412(14) 0.71482(3) 0.638856(12) 0.0394 Uani
Cu1L Cu 0.71482(3) 0.857412(14) 0.361144(12) 0.0394 Uani
Cu1N Cu 0.142588(33) 0.28518(3) 0.361144(12) 0.0394 Uani
F3? F 0.4362(5) 0.5638(5) 0.5788(4) 0.1296 Uani
F4? F 0.4617(7) 0.6552(6) 0.5364(4) 0.1901 Uani
C10? C 0.4290(4) 0.5710(4) 0.5442(4) 0.1572 Uani
loop_
_atom_site_aniso_label
_atom_site_aniso_U_11
_atom_site_aniso_U_22
_atom_site_aniso_U_33
_atom_site_aniso_U_23
_atom_site_aniso_U_13
_atom_site_aniso_U_12
C1 0.0491(14) 0.0491(14) 0.0419(17) 0.0009(8) -0.0009(8) 0.0164(16)
C2 0.0449(13) 0.0525(15) 0.0433(13) 0.0036(11) -0.0021(10) 0.0167(12)
C3 0.0412(13) 0.0516(15) 0.0448(13) 0.0029(11) 0.0029(10) 0.0142(11)
C4 0.0483(14) 0.0564(16) 0.0507(15) 0.0053(12) -0.0074(12) 0.0125(13)
C5 0.0586(16) 0.0586(16) 0.046(2) 0.0072(9) -0.0072(9) 0.0209(18)
C6 0.145(5) 0.145(5) 0.061(3) 0.0096(15) -0.0096(15) 0.102(6)
C7 0.0572(15) 0.0572(15) 0.046(2) 0.0089(10) -0.0089(10) 0.0160(19)
C8 0.146(6) 0.146(6) 0.056(3) 0.0074(14) -0.0074(14) 0.100(6)
C9 0.177(6) 0.177(6) 0.161(9) 0.026(4) -0.026(4) 0.121(6)
F1 0.150(4) 0.150(4) 0.118(4) 0.0083(18) -0.0083(18) 0.097(4)
F2 0.241(6) 0.192(5) 0.173(5) -0.048(4) -0.023(4) 0.135(5)
O1 0.0491(10) 0.0563(11) 0.0503(10) 0.0089(9) -0.0043(9) 0.0079(9)
O2 0.0530(11) 0.0577(12) 0.0460(10) 0.0090(9) -0.0044(8) 0.0100(9)
Cu1 0.0313(3) 0.0498(3) 0.0308(3) -0.00095(8) -0.00191(16) 0.01563(16)
O3 0.111(3) 0.133(3) 0.083(3) -0.0303(14) -0.061(3) 0.0554(17)
C1E 0.0491 0.0491 0.0419 0.0009 -0.0009 0.0164
C2E 0.0525 0.0449 0.0433 0.0021 -0.0036 0.0167
C3E 0.0516 0.0412 0.0448 -0.0029 -0.0029 0.0142
C4E 0.0564 0.0483 0.0507 0.0074 -0.0053 0.0125
C5E 0.0586 0.0586 0.046 0.0072 -0.0072 0.0209
C6E 0.145 0.145 0.061 0.0096 -0.0096 0.102
C7E 0.0572 0.0572 0.046 0.0089 -0.0089 0.016
C8E 0.146 0.146 0.056 0.0074 -0.0074 0.1
C9E 0.177 0.177 0.161 0.026 -0.026 0.121
F1E 0.15 0.15 0.118 0.0083 -0.0083 0.097
F2E 0.192 0.241 0.173 0.023 0.048 0.135
O1E 0.0563 0.0491 0.0503 0.0043 -0.0089 0.0079
O2E 0.0577 0.053 0.046 0.0044 -0.009 0.01
C2R 0.0449 0.0525 0.0433 0.0036 -0.0021 0.0167
C3R 0.0412 0.0516 0.0448 0.0029 0.0029 0.0142
C4R 0.0483 0.0564 0.0507 0.0053 -0.0074 0.0125
F2R 0.241 0.192 0.173 -0.048 -0.023 0.135
O1R 0.0491 0.0563 0.0503 0.0089 -0.0043 0.0079
O2R 0.053 0.0577 0.046 0.009 -0.0044 0.01
C2W 0.0525 0.0449 0.0433 0.0021 -0.0036 0.0167
C3W 0.0516 0.0412 0.0448 -0.0029 -0.0029 0.0142
C4W 0.0564 0.0483 0.0507 0.0074 -0.0053 0.0125
F2W 0.192 0.241 0.173 0.023 0.048 0.135
O1W 0.0563 0.0491 0.0503 0.0043 -0.0089 0.0079
O2W 0.0577 0.053 0.046 0.0044 -0.009 0.01
Cu1J 0.0313 0.04984 0.0308 -0.00096 -0.00191 0.01567
O3J 0.111 0.1332 0.083 -0.0307 -0.061 0.0556
O1J 0.0491 0.0896 0.0503 -0.0132 -0.0043 0.0412
O1V 0.0491 0.0896 0.0503 -0.0132 -0.0043 0.0412
O1DA 0.0491 0.0563 0.0503 0.0089 -0.0043 0.0079
O2J 0.053 0.0907 0.046 -0.0134 -0.0044 0.043
O2V 0.053 0.0907 0.046 -0.0134 -0.0044 0.043
O2DA 0.053 0.0577 0.046 0.009 -0.0044 0.01
Cu1B 0.04984 0.0313 0.0308 0.00191 0.00096 0.01567
Cu1D 0.0313 0.04984 0.0308 -0.00096 -0.00191 0.01567
Cu1E 0.0498 0.0313 0.0308 0.00191 0.00095 0.01563
Cu1K 0.0498 0.0313 0.0308 0.00191 0.00095 0.01563
Cu1L 0.0313 0.0498 0.0308 -0.00095 -0.00191 0.01563
Cu1N 0.04984 0.0313 0.0308 0.00191 0.00096 0.01567
F3? 0.150(4) 0.150(4) 0.118(4) 0.0083(18) -0.0083(18) 0.097(4)
F4? 0.241(6) 0.192(5) 0.173(5) -0.048(4) -0.023(4) 0.135(5)
C10? 0.177(6) 0.177(6) 0.161(9) 0.026(4) -0.026(4) 0.121(6)
loop_
_geom_bond_atom_site_label_1
_geom_bond_atom_site_label_2
_geom_bond_site_symmetry_1
_geom_bond_site_symmetry_2
C1 H1 1_555 1_555
C2 C1 1_555 1_555
C3 C2 1_555 1_555
C4 C2 1_555 1_555
H2 C4 1_555 1_555
C5 C4 1_555 1_555
C6 H3 1_555 1_555
C7 C5 1_555 1_555
C8 C7 1_555 1_555
C9 C8 1_555 1_555
F1 C9 1_555 1_555
F2 C9 1_555 1_555
O1 C3 1_555 1_555
O2 C3 1_555 1_555
Cu1 O2 1_555 1_555
O3 Cu1 1_555 1_555
H4 O3 1_555 1_555
C1E H1E 1_555 1_555
C2E C1E 1_555 1_555
C3E C2E 1_555 1_555
C4E C2E 1_555 1_555
H2E C4E 1_555 1_555
C5E C4E 1_555 1_555
C6E C8 1_555 1_555
H3E C6E 1_555 1_555
C7E C5E 1_555 1_555
C8E C6 1_555 1_555
C9E C8E 1_555 1_555
F1E C9E 1_555 1_555
F2E C9E 1_555 1_555
O1E C3E 1_555 1_555
O2E C3E 1_555 1_555
C2R C1E 1_555 1_555
C3R C2R 1_555 1_555
C4R C5E 1_555 1_555
H2R C4R 1_555 1_555
F2R C9E 1_555 1_555
O1R C3R 1_555 1_555
O2R C3R 1_555 1_555
C2W C1 1_555 1_555
C3W C2W 1_555 1_555
C4W C5 1_555 1_555
H2W C4W 1_555 1_555
F2W C9 1_555 1_555
O1W C3W 1_555 1_555
O2W C3W 1_555 1_555
H4V O3 1_555 1_555
Cu1J O1 1_555 1_555
O3J Cu1J 1_555 1_555
H4J O3J 1_555 1_555
H4DA O3J 1_555 1_555
O1J Cu1 1_555 1_555
O1V Cu1J 1_555 1_555
O1DA Cu1 1_555 1_555
O2J Cu1J 1_555 1_555
O2V Cu1 1_555 1_555
O2DA Cu1J 1_555 1_555
Cu1B O2W 1_555 1_555
Cu1D O2R 1_555 1_555
Cu1E O2E 1_555 1_555
Cu1K O1W 1_555 1_555
Cu1L O1R 1_555 1_555
Cu1N O1E 1_555 1_555
C6 C7 1_555 1_555
Cu1 Cu1J 1_555 1_555
C6E C7E 1_555 1_555
C7E C8E 1_555 1_555
C2R C4R 1_555 1_555
C2W C4W 1_555 1_555
Cu1B Cu1K 1_555 1_555
Cu1D Cu1L 1_555 1_555
Cu1E Cu1N 1_555 1_555

#END
