
#######################################################################
#
#                 Cambridge Crystallographic Data Centre
#                                CCDC 
#
#######################################################################
#
# If this CIF has been generated from an entry in the Cambridge 
# Structural Database, then it will include bibliographic, chemical, 
# crystal, experimental, refinement or atomic coordinate data resulting 
# from the CCDC's data processing and validation procedures.
#
#######################################################################

data_FUFRII
_chemical_formula_moiety         '(C10 H7 Cd1 N3 O5)n'
_chemical_name_systematic        
catena-((\m~4~-2-(Pyridin-4-yl)-1H-imidazole-4,5-dicarboxylato-N,N',O,O,O'')-aqua-cadmium(ii))
_symmetry_cell_setting           monoclinic
_symmetry_space_group_name_H-M   'P 21/n'
_symmetry_Int_Tables_number      14
_space_group_name_Hall           '-P 2yn'
loop_
_symmetry_equiv_pos_site_id
_symmetry_equiv_pos_as_xyz
1 x,y,z
2 1/2-x,1/2+y,1/2-z
3 -x,-y,-z
4 1/2+x,1/2-y,1/2+z
_cell_length_a                   11.1205(7)
_cell_length_b                   6.4538(4)
_cell_length_c                   15.6958(9)
_cell_angle_alpha                90
_cell_angle_beta                 106.961(1)
_cell_angle_gamma                90
_cell_volume                     1077.48
_exptl_crystal_colour            colorless
_exptl_crystal_description       block
_cell_formula_units_Z            4
loop_
_atom_site_label
_atom_site_type_symbol
_atom_site_fract_x
_atom_site_fract_y
_atom_site_fract_z
Cd1 Cd 0.830772(14) 0.97931(3) 1.001188(10)
N1 N 0.72277(16) 0.8906(3) 0.85729(11)
N2 N 0.30124(18) 0.9305(3) 0.91784(13)
N3 N 0.59402(16) 0.8827(3) 0.71583(11)
O1 O 0.97734(14) 0.9094(3) 0.91980(10)
O2 O 1.00092(14) 0.9056(3) 0.78466(10)
O3 O 0.86512(15) 0.8812(3) 0.63261(10)
O4 O 0.66540(15) 0.8336(3) 0.55825(10)
O5 O 0.87203(16) 0.6606(3) 1.07008(11)
H1 H 0.9490 0.6363 1.1122
H2 H 0.8117 0.5564 1.0557
C1 C 0.4007(2) 0.8084(4) 0.95315(16)
H3 H 0.4039 0.7352 1.0048
C2 C 0.4986(2) 0.7862(4) 0.91640(15)
H4 H 0.5665 0.7010 0.9435
C3 C 0.49506(19) 0.8922(3) 0.83859(14)
C4 C 0.3883(2) 1.0088(4) 0.79857(17)
H5 H 0.3797 1.0743 0.7443
C5 C 0.2950(2) 1.0261(4) 0.84045(18)
H6 H 0.2250 1.1074 0.8139
C6 C 0.60317(18) 0.8877(3) 0.80279(13)
C7 C 0.79527(18) 0.8891(3) 0.80034(13)
C8 C 0.71583(18) 0.8827(3) 0.71364(13)
C9 C 0.7478(2) 0.8659(3) 0.62930(14)
C10 C 0.93299(18) 0.9008(3) 0.83614(13)
Cd1B Cd 0.169228(14) 1.02069(3) 0.998812(10)
Cd1B_2 Cd 1.169228(14) 1.02069(3) 0.998812(10)
Cd1A Cd 0.669228(14) 0.47931(3) 0.498812(10)
N2B N 0.69876(18) 1.0695(3) 1.08216(13)
O1B O 1.02266(14) 1.0906(3) 1.08020(10)
O4A O 0.83460(15) 1.3336(3) 0.94175(10)
loop_
_geom_bond_atom_site_label_1
_geom_bond_atom_site_label_2
_geom_bond_site_symmetry_1
_geom_bond_site_symmetry_2
Cd1 N1 1_555 1_555
N1 C6 1_555 1_555
N2 C1 1_555 1_555
N3 C6 1_555 1_555
O1 Cd1 1_555 1_555
O2 C10 1_555 1_555
O3 C9 1_555 1_555
O4 C9 1_555 1_555
O5 Cd1 1_555 1_555
H1 O5 1_555 1_555
H2 O5 1_555 1_555
C1 H3 1_555 1_555
C2 C1 1_555 1_555
H4 C2 1_555 1_555
C3 C2 1_555 1_555
C4 C3 1_555 1_555
H5 C4 1_555 1_555
C5 N2 1_555 1_555
H6 C5 1_555 1_555
C6 C3 1_555 1_555
C7 N1 1_555 1_555
C8 N3 1_555 1_555
C9 C8 1_555 1_555
C10 O1 1_555 1_555
Cd1B N2 1_555 1_555
Cd1B_2 O1 1_555 1_555
Cd1A O4 1_555 1_555
N2B Cd1 1_555 1_555
O1B Cd1 1_555 1_555
O4A Cd1 1_555 1_555
C4 C5 1_555 1_555
C7 C8 1_555 1_555
C7 C10 1_555 1_555
Cd1B_2 O1B 1_555 1_555

#END
