
#######################################################################
#
#                 Cambridge Crystallographic Data Centre
#                                CCDC 
#
#######################################################################
#
# If this CIF has been generated from an entry in the Cambridge 
# Structural Database, then it will include bibliographic, chemical, 
# crystal, experimental, refinement or atomic coordinate data resulting 
# from the CCDC's data processing and validation procedures.
#
#######################################################################

data_FUFROO
_chemical_formula_moiety         '(C10 H7 N3 O5 Zn1)n'
_chemical_name_systematic        
catena-((\m~3~-5-carboxy-2-(pyridin-4-yl)imidazole-4-carboxylato-N,N',N'',O,O'')-aqua-zinc(ii))
_symmetry_cell_setting           monoclinic
_symmetry_space_group_name_H-M   'P 21/c'
_symmetry_Int_Tables_number      14
_space_group_name_Hall           '-P 2ybc'
loop_
_symmetry_equiv_pos_site_id
_symmetry_equiv_pos_as_xyz
1 x,y,z
2 -x,1/2+y,1/2-z
3 -x,-y,-z
4 x,1/2-y,1/2+z
_cell_length_a                   7.5169(9)
_cell_length_b                   11.5176(14)
_cell_length_c                   13.0625(14)
_cell_angle_alpha                90
_cell_angle_beta                 108.124(5)
_cell_angle_gamma                90
_cell_volume                     1074.8
_cell_formula_units_Z            4
loop_
_atom_site_label
_atom_site_type_symbol
_atom_site_fract_x
_atom_site_fract_y
_atom_site_fract_z
_atom_site_U_iso_or_equiv
_atom_site_thermal_displace_type
Zn1 Zn 0.67952(3) 0.27528(2) 0.315815(17) 0.0204 Uani
O1 O 0.2641(2) 0.07406(15) 0.38350(13) 0.0303 Uani
H1 H 0.2602 0.0702 0.4470 0.0360 Uiso
N1 N 0.6507(3) 0.27437(14) 0.47642(15) 0.0202 Uani
C1 C 0.4037(3) 0.14015(17) 0.38070(16) 0.0216 Uani
O2 O 0.4459(2) 0.15535(14) 0.29782(12) 0.0289 Uani
N2 N 0.6528(3) 0.25676(15) 0.64948(14) 0.0195 Uani
C2 C 0.5146(3) 0.19706(18) 0.48091(17) 0.0204 Uani
O3 O 0.4511(2) 0.10984(13) 0.73685(12) 0.0262 Uani
N3 N 1.1337(2) 0.58245(15) 0.66097(14) 0.0215 Uani
C3 C 0.7300(3) 0.30776(17) 0.57986(16) 0.0187 Uani
O4 O 0.2737(2) 0.05085(14) 0.57407(13) 0.0317 Uani
C4 C 0.8752(3) 0.39935(17) 0.61204(15) 0.0196 Uani
O5 O 0.8848(2) 0.14451(14) 0.37407(14) 0.0302 Uani
C5 C 1.0506(3) 0.38738(17) 0.59836(16) 0.0218 Uani
H2 H 1.0853 0.3168 0.5720 0.0260 Uiso
C6 C 0.8344(3) 0.50361(19) 0.65472(19) 0.0285 Uani
H3 H 0.7180 0.5138 0.6680 0.0340 Uiso
C7 C 0.5169(3) 0.18617(17) 0.58629(16) 0.0189 Uani
C8 C 0.4078(3) 0.11105(18) 0.63736(16) 0.0216 Uani
C9 C 0.9659(3) 0.59188(19) 0.67745(18) 0.0274 Uani
H4 H 0.9364 0.6626 0.7061 0.0330 Uiso
C10 C 1.1748(3) 0.48111(18) 0.62409(16) 0.0218 Uani
H5 H 1.2945 0.4722 0.6149 0.0260 Uiso
H6 H 0.8406 0.0805 0.3846 0.0260 Uiso
H7 H 0.9783 0.1304 0.3564 0.0260 Uiso
Zn1C Zn 0.67952(3) 0.22472(2) 0.815815(17) 0.0204 Uani
Zn1B Zn 1.32048(3) 0.72472(2) 0.684185(17) 0.0204 Uani
N2C N 0.6528(3) 0.24324(15) 0.14948(14) 0.0195 Uani
O3C O 0.4511(2) 0.39016(13) 0.23685(12) 0.0262 Uani
N3B N 0.8663(2) 0.41755(15) 0.33903(14) 0.0215 Uani
loop_
_atom_site_aniso_label
_atom_site_aniso_U_11
_atom_site_aniso_U_22
_atom_site_aniso_U_33
_atom_site_aniso_U_23
_atom_site_aniso_U_13
_atom_site_aniso_U_12
Zn1 0.02370(19) 0.02268(19) 0.01603(18) -0.00028(8) 0.00778(12) -0.00351(8)
O1 0.0289(8) 0.0410(9) 0.0196(8) -0.0008(7) 0.0053(6) -0.0150(7)
N1 0.0222(10) 0.0226(10) 0.0181(9) 0.0007(6) 0.0097(8) -0.0053(6)
C1 0.0229(10) 0.0227(10) 0.0183(10) 0.0000(8) 0.0051(8) -0.0029(8)
O2 0.0343(9) 0.0343(8) 0.0187(7) -0.0033(6) 0.0089(6) -0.0111(7)
N2 0.0221 0.0214 0.0167 -0.001 0.0083 -0.0042
C2 0.0192(10) 0.0218(9) 0.0203(10) 0.0007(8) 0.0064(8) -0.0035(8)
O3 0.0299 0.0313 0.0196 0.0033 0.0111 -0.0063
N3 0.0251 0.0232 0.016 -0.0002 0.0063 -0.006
C3 0.0230(10) 0.0186(9) 0.0168(9) -0.0012(8) 0.0095(8) -0.0019(8)
O4 0.0317 0.0369 0.0254 0.0039 0.0073 -0.0161
C4 0.0225(10) 0.0229(10) 0.0134(9) 0.0005(7) 0.0057(7) -0.0043(8)
O5 0.0301(8) 0.0267(8) 0.0377(9) 0.0070(7) 0.0162(7) 0.0018(7)
C5 0.0243(10) 0.0204(9) 0.0215(10) 0.0011(8) 0.0084(8) -0.0001(8)
C6 0.0306(12) 0.0289(11) 0.0335(12) -0.0057(10) 0.0208(10) -0.0045(9)
C7 0.0211 0.0183 0.0177 0.0009 0.0068 -0.0021
C8 0.0208 0.0232 0.0236 0.0021 0.0108 -0.0008
C9 0.0328 0.0245 0.0297 -0.0071 0.0169 -0.0061
C10 0.0189 0.0265 0.0188 0.0032 0.0042 -0.0004
Zn1C 0.0237 0.02268 0.01603 0.00028 0.00778 0.00351
Zn1B 0.0237 0.02268 0.01603 -0.00028 0.00778 -0.00351
N2C 0.0221 0.0214 0.0167 0.001 0.0083 0.0042
O3C 0.0299 0.0313 0.0196 -0.0033 0.0111 0.0063
N3B 0.0251 0.0232 0.016 -0.0002 0.0063 -0.006
loop_
_geom_bond_atom_site_label_1
_geom_bond_atom_site_label_2
_geom_bond_site_symmetry_1
_geom_bond_site_symmetry_2
Zn1 N1 1_555 1_555
O1 H1 1_555 1_555
N1 C2 1_555 1_555
C1 O1 1_555 1_555
O2 Zn1 1_555 1_555
N2 C3 1_555 1_555
C2 C1 1_555 1_555
O3 C8 1_555 1_555
N3 C9 1_555 1_555
C3 N1 1_555 1_555
O4 C8 1_555 1_555
C4 C3 1_555 1_555
O5 Zn1 1_555 1_555
C5 C4 1_555 1_555
H2 C5 1_555 1_555
C6 C4 1_555 1_555
H3 C6 1_555 1_555
C7 N2 1_555 1_555
C8 C7 1_555 1_555
C9 C6 1_555 1_555
H4 C9 1_555 1_555
C10 N3 1_555 1_555
H5 C10 1_555 1_555
H6 O5 1_555 1_555
H7 O5 1_555 1_555
Zn1C N2 1_555 1_555
Zn1B N3 1_555 1_555
N2C Zn1 1_555 1_555
O3C Zn1 1_555 1_555
N3B Zn1 1_555 1_555
C1 O2 1_555 1_555
C2 C7 1_555 1_555
O3 Zn1C 1_555 1_555
C5 C10 1_555 1_555

#END
