
#######################################################################
#
#                 Cambridge Crystallographic Data Centre
#                                CCDC 
#
#######################################################################
#
# If this CIF has been generated from an entry in the Cambridge 
# Structural Database, then it will include bibliographic, chemical, 
# crystal, experimental, refinement or atomic coordinate data resulting 
# from the CCDC's data processing and validation procedures.
#
#######################################################################

data_FUFRUU
_chemical_formula_moiety         
'(C40 H36 Eu3 N12 O24 1+)n,n(N1 O3 1-),4n(H2 O1)'
_chemical_name_systematic        
"catena-(tetrakis(\m~3~-2-(pyridin-4-yl)-1H-imidazole-4,5-dicarboxylato-O,O',O'',O''')-octa-aqua-tri-europium(iii) nitrate tetrahydrate)"
_symmetry_cell_setting           monoclinic
_symmetry_space_group_name_H-M   'C 2/c'
_symmetry_Int_Tables_number      15
_space_group_name_Hall           '-C 2yc'
loop_
_symmetry_equiv_pos_site_id
_symmetry_equiv_pos_as_xyz
1 x,y,z
2 -x,y,1/2-z
3 1/2+x,1/2+y,z
4 1/2-x,1/2+y,1/2-z
5 -x,-y,-z
6 x,-y,1/2+z
7 1/2-x,1/2-y,-z
8 1/2+x,1/2-y,1/2+z
_cell_length_a                   21.038(3)
_cell_length_b                   9.5537(15)
_cell_length_c                   28.343(5)
_cell_angle_alpha                90
_cell_angle_beta                 106.772(2)
_cell_angle_gamma                90
_cell_volume                     5454.35
_cell_formula_units_Z            4
loop_
_atom_site_label
_atom_site_type_symbol
_atom_site_fract_x
_atom_site_fract_y
_atom_site_fract_z
Eu1 Eu 0.186813(8) 0.187437(17) 0.215273(6)
Eu2 Eu 0.0000 -0.24490(2) 0.2500
O1 O 0.17089(12) -0.0364(2) 0.17271(10)
O2 O 0.25031(12) -0.1696(2) 0.21955(10)
O3 O 0.28529(12) -0.4439(3) 0.21050(9)
O4 O 0.23247(12) -0.6337(2) 0.17458(9)
O5 O 0.29782(13) 0.1017(3) 0.21906(11)
H1 H 0.2980 0.0159 0.2196
O6 O 0.11803(16) 0.2184(3) 0.13100(11)
H2 H 0.1080 0.1416 0.1181
O7 O 0.08879(12) 0.0882(3) 0.22555(10)
O8 O -0.00401(12) -0.0353(3) 0.19902(10)
O9 O 0.11708(11) 0.3738(3) 0.22530(10)
O10 O 0.05352(12) 0.5574(3) 0.22579(10)
O11 O 0.05623(19) -0.2975(3) 0.33370(11)
H3 H 0.0761 -0.2278 0.3472
O12 O -0.11437(12) -0.1673(3) 0.23511(12)
H4 H -0.1148 -0.0872 0.2454
N1 N 0.09996(15) -0.2589(3) 0.12640(11)
H5 H 0.0789 -0.1807 0.1199
N2 N 0.12234(14) -0.4853(3) 0.12407(11)
N3 N -0.11542(18) -0.4562(4) 0.00601(14)
N4 N -0.05671(14) 0.4187(3) 0.16303(11)
N5 N -0.07541(14) 0.1909(3) 0.15597(12)
H6 H -0.0961 0.1129 0.1478
N6 N -0.2977(2) 0.3931(6) 0.0508(2)
C1 C 0.19729(17) -0.1528(3) 0.18557(13)
C2 C 0.16177(17) -0.2768(4) 0.15812(13)
C3 C 0.17560(17) -0.4190(4) 0.15664(13)
C4 C 0.23549(17) -0.5027(3) 0.18273(12)
C5 C 0.07706(17) -0.3858(4) 0.10669(13)
C6 C 0.01103(18) -0.4096(4) 0.07176(13)
C7 C -0.0130(2) -0.5431(4) 0.05912(15)
H7 H 0.0129 -0.6205 0.0723
C8 C -0.0758(2) -0.5611(5) 0.02675(16)
H8 H -0.0911 -0.6521 0.0191
C9 C -0.0923(2) -0.3289(6) 0.0190(2)
H9 H -0.1194 -0.2535 0.0055
C10 C -0.0307(2) -0.3004(5) 0.0512(2)
H10 H -0.0174 -0.2083 0.0589
C11 C 0.02754(16) 0.0770(4) 0.20368(13)
C12 C -0.01065(17) 0.2057(4) 0.18355(13)
C13 C 0.00029(17) 0.3496(4) 0.18800(13)
C14 C 0.06124(16) 0.4320(3) 0.21503(12)
C15 C -0.10132(18) 0.3199(4) 0.14374(14)
C16 C -0.16959(18) 0.3446(4) 0.11182(14)
C17 C -0.2104(2) 0.2378(5) 0.0893(2)
H11 H -0.1957 0.1456 0.0940
C18 C -0.2732(3) 0.2668(6) 0.0595(2)
H12 H -0.2999 0.1920 0.0448
C19 C -0.2595(3) 0.4968(6) 0.0745(3)
H13 H -0.2767 0.5871 0.0706
C20 C -0.1956(2) 0.4779(5) 0.1046(2)
H14 H -0.1705 0.5541 0.1199
H15 H 0.053(3) -0.386(7) 0.340(2)
H16 H 0.330(3) 0.142(7) 0.231(2)
Eu1A Eu -0.186813(8) 0.187437(17) 0.284727(6)
Eu1C Eu 0.313187(8) -0.312563(17) 0.284727(6)
Eu1_2 Eu 0.186813(8) -0.812563(17) 0.215273(6)
Eu1C_2 Eu 0.313187(8) 0.687437(17) 0.284727(6)
Eu2_2 Eu 0.0000 0.75510(2) 0.2500
O1C O 0.32911(12) 0.4636(2) 0.32729(10)
O1A O -0.17089(12) -0.0364(2) 0.32729(10)
O2C O 0.24969(12) 0.3304(2) 0.28045(10)
O2B O -0.24969(12) 0.3304(2) 0.21955(10)
O3C O 0.21471(12) 0.0561(3) 0.28950(9)
O3B O -0.21471(12) 0.0561(3) 0.21050(9)
O4C O 0.26753(12) -0.1337(2) 0.32542(9)
O4_2 O 0.23247(12) 0.3663(2) 0.17458(9)
O4A O -0.23247(12) 0.3663(2) 0.32542(9)
O5A O -0.29782(13) 0.1017(3) 0.28094(11)
H1A H -0.2980 0.0159 0.2804
O6A O -0.11803(16) 0.2184(3) 0.36900(11)
H2A H -0.1080 0.1416 0.3819
O7A O -0.08879(12) 0.0882(3) 0.27445(10)
O8A O 0.00401(12) -0.0353(3) 0.30098(10)
O9A O -0.11708(11) 0.3738(3) 0.27470(10)
O10A O -0.05352(12) 0.5574(3) 0.27421(10)
O10_2 O 0.05352(12) -0.4426(3) 0.22579(10)
O10A_2 O -0.05352(12) -0.4426(3) 0.27421(10)
O11A O -0.05623(19) -0.2975(3) 0.16630(11)
H3A H -0.0761 -0.2278 0.1528
O12A O 0.11437(12) -0.1673(3) 0.26489(12)
H4A H 0.1148 -0.0872 0.2546
N1C N 0.40004(15) 0.2411(3) 0.37360(11)
H5C H 0.4211 0.3193 0.3801
N2C N 0.37766(14) 0.0147(3) 0.37593(11)
N3C N 0.61542(18) 0.0438(4) 0.49399(14)
N4A N 0.05671(14) 0.4187(3) 0.33697(11)
N5A N 0.07541(14) 0.1909(3) 0.34403(12)
H6A H 0.0961 0.1129 0.3522
N6A N 0.2977(2) 0.3931(6) 0.4492(2)
C1C C 0.30271(17) 0.3472(3) 0.31443(13)
C2C C 0.33823(17) 0.2232(4) 0.34188(13)
C3C C 0.32440(17) 0.0810(4) 0.34336(13)
C4C C 0.26451(17) -0.0027(3) 0.31727(12)
C5C C 0.42294(17) 0.1142(4) 0.39331(13)
C6C C 0.48897(18) 0.0904(4) 0.42824(13)
C7C C 0.5130(2) -0.0431(4) 0.44088(15)
H7C H 0.4871 -0.1205 0.4277
C8C C 0.5758(2) -0.0611(5) 0.47325(16)
H8C H 0.5911 -0.1521 0.4809
C9C C 0.5923(2) 0.1711(6) 0.4810(2)
H9C H 0.6194 0.2465 0.4945
C10C C 0.5307(2) 0.1996(5) 0.4488(2)
H10C H 0.5174 0.2917 0.4411
C11A C -0.02754(16) 0.0770(4) 0.29632(13)
C12A C 0.01065(17) 0.2057(4) 0.31645(13)
C13A C -0.00029(17) 0.3496(4) 0.31200(13)
C14A C -0.06124(16) 0.4320(3) 0.28497(12)
C15A C 0.10132(18) 0.3199(4) 0.35626(14)
C16A C 0.16959(18) 0.3446(4) 0.38818(14)
C17A C 0.2104(2) 0.2378(5) 0.4107(2)
H11A H 0.1957 0.1456 0.4060
C18A C 0.2732(3) 0.2668(6) 0.4405(2)
H12A H 0.2999 0.1920 0.4552
C19A C 0.2595(3) 0.4968(6) 0.4255(3)
H13A H 0.2767 0.5871 0.4294
C20A C 0.1956(2) 0.4779(5) 0.3954(2)
H14A H 0.1705 0.5541 0.3801
H15A H -0.053(3) -0.386(7) 0.160(2)
H16A H -0.330(3) 0.142(7) 0.269(2)
O13 O 0.13103(17) 0.9129(4) 0.39369(14)
O14 O -0.23395(17) -0.3714(5) -0.07059(13)
O15 O 0.0234(5) 0.0160(9) 0.1003(3)
O16 O -0.0849(3) 0.0364(8) 0.0302(3)
N7 N -0.016(2) 0.0513(13) 0.0573(5)
O17 O 0.0176(9) 0.117(2) 0.0357(7)
O18? O 0.0687(5) 0.0042(11) 0.0660(4)
loop_
_geom_bond_atom_site_label_1
_geom_bond_atom_site_label_2
_geom_bond_site_symmetry_1
_geom_bond_site_symmetry_2
Eu1 O1 1_555 1_555
Eu2 O8 1_555 1_555
O1 C1 1_555 1_555
O2 C1 1_555 1_555
O3 C4 1_555 1_555
O4 C4 1_555 1_555
O5 Eu1 1_555 1_555
H1 O5 1_555 1_555
O6 Eu1 1_555 1_555
H2 O6 1_555 1_555
O7 Eu1 1_555 1_555
O8 C11 1_555 1_555
O9 Eu1 1_555 1_555
O10 C14 1_555 1_555
O11 Eu2 1_555 1_555
H3 O11 1_555 1_555
O12 Eu2 1_555 1_555
H4 O12 1_555 1_555
N1 H5 1_555 1_555
N2 C3 1_555 1_555
N3 C8 1_555 1_555
N4 C13 1_555 1_555
N5 H6 1_555 1_555
N6 C18 1_555 1_555
C1 C2 1_555 1_555
C2 N1 1_555 1_555
C3 C2 1_555 1_555
C4 C3 1_555 1_555
C5 N1 1_555 1_555
C6 C5 1_555 1_555
C7 C6 1_555 1_555
H7 C7 1_555 1_555
C8 C7 1_555 1_555
H8 C8 1_555 1_555
C9 N3 1_555 1_555
H9 C9 1_555 1_555
C10 C6 1_555 1_555
H10 C10 1_555 1_555
C11 O7 1_555 1_555
C12 N5 1_555 1_555
C13 C12 1_555 1_555
C14 O9 1_555 1_555
C15 N4 1_555 1_555
C16 C15 1_555 1_555
C17 C16 1_555 1_555
H11 C17 1_555 1_555
C18 C17 1_555 1_555
H12 C18 1_555 1_555
C19 N6 1_555 1_555
H13 C19 1_555 1_555
C20 C16 1_555 1_555
H14 C20 1_555 1_555
H15 O11 1_555 1_555
H16 O5 1_555 1_555
O15 N7 1_555 1_555
O16 N7 1_555 1_555
N7 O17 1_555 1_555
Eu1A O1A 1_555 1_555
Eu1C O2 1_555 1_555
Eu1_2 O4 1_555 1_555
Eu1C_2 O1C 1_555 1_555
Eu2_2 O10 1_555 1_555
O1C C1C 1_555 1_555
O2C Eu1 1_555 1_555
O2B Eu1A 1_555 1_555
O3C Eu1 1_555 1_555
O3B Eu1A 1_555 1_555
O4C Eu1C 1_555 1_555
O4_2 Eu1 1_555 1_555
O4A Eu1A 1_555 1_555
O5A Eu1A 1_555 1_555
H1A O5A 1_555 1_555
O6A Eu1A 1_555 1_555
H2A O6A 1_555 1_555
O7A Eu1A 1_555 1_555
O8A Eu2 1_555 1_555
O9A Eu1A 1_555 1_555
O10A Eu2_2 1_555 1_555
O10_2 Eu2 1_555 1_555
O10A_2 Eu2 1_555 1_555
O11A Eu2 1_555 1_555
H3A O11A 1_555 1_555
O12A Eu2 1_555 1_555
H4A O12A 1_555 1_555
N1C H5C 1_555 1_555
N2C C3C 1_555 1_555
N3C C8C 1_555 1_555
N4A C13A 1_555 1_555
N5A H6A 1_555 1_555
N6A C18A 1_555 1_555
C1C O2C 1_555 1_555
C2C N1C 1_555 1_555
C3C C2C 1_555 1_555
C4C O3C 1_555 1_555
C5C N1C 1_555 1_555
C6C C5C 1_555 1_555
C7C C6C 1_555 1_555
H7C C7C 1_555 1_555
C8C C7C 1_555 1_555
H8C C8C 1_555 1_555
C9C N3C 1_555 1_555
H9C C9C 1_555 1_555
C10C C6C 1_555 1_555
H10C C10C 1_555 1_555
C11A O7A 1_555 1_555
C12A N5A 1_555 1_555
C13A C12A 1_555 1_555
C14A O9A 1_555 1_555
C15A N4A 1_555 1_555
C16A C15A 1_555 1_555
C17A C16A 1_555 1_555
H11A C17A 1_555 1_555
C18A C17A 1_555 1_555
H12A C18A 1_555 1_555
C19A N6A 1_555 1_555
H13A C19A 1_555 1_555
C20A C16A 1_555 1_555
H14A C20A 1_555 1_555
H15A O11A 1_555 1_555
H16A O5A 1_555 1_555
O3 Eu1C 1_555 1_555
N2 C5 1_555 1_555
N5 C15 1_555 1_555
C9 C10 1_555 1_555
C11 C12 1_555 1_555
C13 C14 1_555 1_555
C19 C20 1_555 1_555
O4C C4C 1_555 1_555
O8A C11A 1_555 1_555
O10A C14A 1_555 1_555
N2C C5C 1_555 1_555
N5A C15A 1_555 1_555
C1C C2C 1_555 1_555
C3C C4C 1_555 1_555
C9C C10C 1_555 1_555
C11A C12A 1_555 1_555
C13A C14A 1_555 1_555
C19A C20A 1_555 1_555

#END
