
#######################################################################
#
#                 Cambridge Crystallographic Data Centre
#                                CCDC 
#
#######################################################################
#
# If this CIF has been generated from an entry in the Cambridge 
# Structural Database, then it will include bibliographic, chemical, 
# crystal, experimental, refinement or atomic coordinate data resulting 
# from the CCDC's data processing and validation procedures.
#
#######################################################################

data_XOJPIW
_chemical_formula_moiety         
'(C60 H78 Ag4 N24 O12 4+)n,4n(N1 O3 1-),n(C2 H3 N1),n(C2 H6 O1)'
_chemical_name_systematic        
'catena-(tris(\m~4~-1,4-Benzylidene-bis(S,S)-4-yl-3,5-bis(1-hydroxyethyl)-1,2,4-triazole)-tetra-silver(i) tetranitrate acetonitrile ethanol solvate)'
_symmetry_cell_setting           hexagonal
_symmetry_space_group_name_H-M   'P 61'
_symmetry_Int_Tables_number      169
_space_group_name_Hall           'P 61'
loop_
_symmetry_equiv_pos_site_id
_symmetry_equiv_pos_as_xyz
1 x,y,z
2 -y,x-y,1/3+z
3 -x+y,-x,2/3+z
4 -x,-y,1/2+z
5 y,-x+y,5/6+z
6 x-y,x,1/6+z
_cell_length_a                   22.6827(19)
_cell_length_b                   22.6827(19)
_cell_length_c                   34.369(6)
_cell_angle_alpha                90
_cell_angle_beta                 90
_cell_angle_gamma                120
_cell_volume                     15313.9
_exptl_crystal_colour            colorless
_exptl_crystal_description       'hexagonal rod'
_cell_formula_units_Z            6
loop_
_atom_site_label
_atom_site_type_symbol
_atom_site_fract_x
_atom_site_fract_y
_atom_site_fract_z
Ag1 Ag -0.37076(14) -0.37066(14) -0.0301(5)
Ag2 Ag -0.56839(15) -0.56881(15) -0.0298(5)
Ag3 Ag -0.54250(15) -0.40575(16) -0.0301(5)
Ag4 Ag 0.45789(16) -0.13634(16) -0.1965(5)
N1 N -0.4846(11) -0.5062(11) -0.0794(7)
N2 N -0.4524(12) -0.4370(13) -0.0785(8)
C1 C -0.4446(19) -0.4116(12) -0.1150(10)
N3 N -0.4731(11) -0.4695(11) -0.1386(8)
C2 C -0.4966(15) -0.5284(11) -0.1165(9)
N4 N -0.4637(12) -0.3163(10) -0.0046(9)
N5 N -0.3967(13) -0.2947(12) -0.0112(9)
C3 C -0.3581(12) -0.2277(15) -0.0029(11)
N6 N -0.4053(11) -0.2082(12) 0.0078(7)
C4 C -0.4713(12) -0.2640(14) 0.0074(10)
N7 N -0.3130(10) -0.4654(11) -0.0532(8)
N8 N -0.2944(11) -0.3985(12) -0.0488(8)
C5 C -0.2284(13) -0.3586(11) -0.0586(10)
N9 N -0.2062(12) -0.4044(11) -0.0675(7)
C6 C -0.2598(14) -0.4714(11) -0.0655(10)
N10 N -0.4934(11) -0.5112(11) -0.4804(7)
N11 N -0.5622(12) -0.5393(11) -0.4823(7)
C7 C -0.5890(12) -0.5482(16) -0.4462(9)
N12 N -0.5328(10) -0.5263(10) -0.4216(8)
C8 C -0.4726(10) -0.4996(14) -0.4430(9)
N13 N -0.1457(11) 0.3664(14) 0.1190(9)
N14 N -0.0931(12) 0.3544(15) 0.1133(9)
C9 C -0.1174(14) 0.2898(12) 0.1010(10)
N15 N -0.1875(11) 0.2632(12) 0.0981(8)
C10 C -0.2058(15) 0.3108(13) 0.1098(11)
N16 N 0.3477(15) -0.0981(13) -0.1792(10)
N17 N 0.3606(13) -0.1508(12) -0.1794(10)
C11 C 0.3044(12) -0.2092(15) -0.1688(11)
N18 N 0.2565(11) -0.1894(11) -0.1607(8)
C12 C 0.2830(13) -0.1201(15) -0.1676(11)
N19 N -0.476(2) -0.4683(17) -0.1800(9)
C13 C -0.4963(14) -0.5206(15) -0.1963(4)
N20 N -0.5368(15) -0.5280(17) -0.3795(9)
C14 C -0.4838(13) -0.4984(17) -0.3638(4)
C15 C -0.4926(10) -0.5144(11) -0.2397(3)
C16 C -0.4619(14) -0.5437(14) -0.2611(4)
H1 H -0.4440 -0.5676 -0.2484
C17 C -0.4578(15) -0.5374(15) -0.3014(4)
H2 H -0.4373 -0.5570 -0.3157
C18 C -0.4845(15) -0.5017(15) -0.3203(3)
C19 C -0.5152(18) -0.4723(18) -0.2989(5)
H3 H -0.5330 -0.4485 -0.3115
C20 C -0.5192(16) -0.4787(16) -0.2586(5)
H4 H -0.5398 -0.4590 -0.2443
N21 N -0.3861(18) -0.1396(14) 0.0162(9)
C21 C -0.3827(15) -0.1286(10) 0.0493(8)
N22 N -0.2346(14) 0.196(2) 0.0845(11)
C22 C -0.2595(9) 0.149(2) 0.1044(10)
C23 C -0.3512(10) -0.0568(8) 0.0636(6)
C24 C -0.3385(16) -0.0046(10) 0.0378(6)
H5 H -0.3495 -0.0142 0.0116
C25 C -0.3094(17) 0.0621(9) 0.0511(7)
H6 H -0.3008 0.0970 0.0338
C26 C -0.2930(12) 0.0765(8) 0.0902(7)
C27 C -0.3057(15) 0.0243(9) 0.1161(6)
H7 H -0.2947 0.0339 0.1422
C28 C -0.3349(15) -0.0424(8) 0.1028(6)
H8 H -0.3434 -0.0773 0.1200
N23 N -0.1382(14) -0.3805(19) -0.0777(9)
C29 C -0.1297(10) -0.3740(19) -0.1110(8)
N24 N 0.1909(18) -0.2341(14) -0.1450(10)
C30 C 0.1460(16) -0.2606(11) -0.1667(9)
C31 C -0.0590(12) -0.3497(9) -0.1258(6)
C32 C -0.0451(15) -0.3375(10) -0.1653(6)
H9 H -0.0804 -0.3489 -0.1828
C33 C 0.0216(15) -0.3081(11) -0.1786(6)
H10 H 0.0309 -0.2999 -0.2050
C34 C 0.0743(11) -0.2910(9) -0.1523(7)
C35 C 0.0604(13) -0.3032(10) -0.1128(7)
H11 H 0.0957 -0.2918 -0.0953
C36 C -0.0063(14) -0.3326(10) -0.0996(6)
H12 H -0.0156 -0.3408 -0.0731
C37 C -0.412(2) -0.3386(13) -0.1291(13)
H13 H -0.4415 -0.3495 -0.1518
O1 O -0.430(4) -0.298(2) -0.114(2)
C38 C -0.350(4) -0.316(3) -0.152(3)
C39 C -0.534(2) -0.6011(13) -0.1324(11)
H14 H -0.5233 -0.6032 -0.1597
O2 O -0.512(3) -0.638(2) -0.107(2)
C40 C -0.610(2) -0.632(3) -0.126(3)
C41 C -0.2817(12) -0.180(2) -0.0071(13)
H15 H -0.2661 -0.1428 0.0118
O3 O -0.249(2) -0.219(3) 0.0001(17)
C42 C -0.265(3) -0.151(3) -0.0487(15)
C43 C -0.5355(15) -0.262(2) 0.0184(12)
H16 H -0.5742 -0.3086 0.0164
O4 O -0.532(2) -0.240(2) 0.0574(11)
C44 C -0.547(3) -0.219(4) -0.0100(14)
C45 C -0.1821(17) -0.2816(12) -0.0550(13)
H17 H -0.1445 -0.2675 -0.0735
O5 O -0.215(3) -0.248(2) -0.0640(18)
C46 C -0.152(3) -0.267(2) -0.0136(14)
C47 C -0.254(2) -0.5350(15) -0.0717(13)
H18 H -0.2079 -0.5223 -0.0628
O6 O -0.301(2) -0.5840(16) -0.0422(12)
C48 C -0.258(3) -0.559(2) -0.1092(13)
C49 C -0.6627(13) -0.579(2) -0.4331(13)
H19 H -0.6590 -0.5774 -0.4046
O7 O -0.692(3) -0.540(4) -0.441(5)
C50 C -0.703(3) -0.653(3) -0.441(3)
C51 C -0.4019(13) -0.474(2) -0.4257(11)
H20 H -0.3692 -0.4263 -0.4315
O8 O -0.418(2) -0.490(3) -0.3818(10)
C52 C -0.379(3) -0.524(3) -0.4384(16)
C53 C -0.079(2) 0.2540(14) 0.0884(14)
H21 H -0.0319 0.2913 0.0893
O9 O -0.077(3) 0.211(2) 0.1126(16)
C54 C -0.088(3) 0.241(2) 0.0458(13)
C55 C -0.277(2) 0.3000(16) 0.1107(14)
O10 O -0.314(3) 0.259(3) 0.1454(16)
C56 C -0.270(3) 0.372(2) 0.120(4)
C57 C 0.2940(15) -0.280(2) -0.1636(13)
H22 H 0.3416 -0.2689 -0.1626
O11 O 0.275(2) -0.303(3) -0.1246(12)
C58 C 0.272(3) -0.327(4) -0.1934(15)
C59 C 0.2440(13) -0.082(2) -0.1637(15)
O12 O 0.282(2) -0.014(3) -0.161(2)
C60 C 0.176(3) -0.120(2) -0.152(3)
Ag1C Ag -0.62924(14) -0.62934(14) -0.5301(5)
Ag2C Ag -0.43161(15) -0.43119(15) -0.5298(5)
Ag2E Ag 0.00042(21) 0.43161(15) 0.1369(5)
Ag2D Ag 0.43119(15) -0.00042(21) -0.1965(5)
Ag3E Ag -0.13675(22) 0.45750(15) 0.1366(5)
Ag4E Ag -0.40577(23) -0.54211(16) -0.0298(5)
N7D N 0.5346(11) -0.1524(15) -0.2199(8)
N10C N -0.5066(11) -0.4888(11) 0.0196(7)
N11C N -0.4378(12) -0.4607(11) 0.0177(7)
N13D N -0.6336(14) -0.4879(18) -0.0477(9)
N14D N -0.6456(15) -0.5525(19) -0.0534(9)
N16E N -0.5542(20) -0.6523(15) -0.0125(10)
C61? C -0.722(16) -0.412(10) -0.096(3)
O13? O -0.270(7) 0.367(3) 0.118(9)
loop_
_geom_bond_atom_site_label_1
_geom_bond_atom_site_label_2
_geom_bond_site_symmetry_1
_geom_bond_site_symmetry_2
Ag1 N2 1_555 1_555
Ag2 N1 1_555 1_555
Ag3 N4 1_555 1_555
Ag4 N17 1_555 1_555
N1 N2 1_555 1_555
N2 C1 1_555 1_555
C1 N3 1_555 1_555
N3 C2 1_555 1_555
C2 N1 1_555 1_555
N4 N5 1_555 1_555
N5 Ag1 1_555 1_555
C3 N5 1_555 1_555
N6 C3 1_555 1_555
C4 N4 1_555 1_555
N7 N8 1_555 1_555
N8 Ag1 1_555 1_555
C5 N8 1_555 1_555
N9 C5 1_555 1_555
C6 N7 1_555 1_555
N10 N11 1_555 1_555
N11 C7 1_555 1_555
C7 N12 1_555 1_555
N12 C8 1_555 1_555
C8 N10 1_555 1_555
N13 N14 1_555 1_555
N14 C9 1_555 1_555
C9 N15 1_555 1_555
N15 C10 1_555 1_555
C10 N13 1_555 1_555
N16 N17 1_555 1_555
N17 C11 1_555 1_555
C11 N18 1_555 1_555
N18 C12 1_555 1_555
C12 N16 1_555 1_555
N19 N3 1_555 1_555
C13 N19 1_555 1_555
N20 N12 1_555 1_555
C14 N20 1_555 1_555
C15 C13 1_555 1_555
C16 C15 1_555 1_555
H1 C16 1_555 1_555
C17 C16 1_555 1_555
H2 C17 1_555 1_555
C18 C14 1_555 1_555
C19 C18 1_555 1_555
H3 C19 1_555 1_555
C20 C15 1_555 1_555
H4 C20 1_555 1_555
N21 N6 1_555 1_555
C21 N21 1_555 1_555
N22 N15 1_555 1_555
C22 N22 1_555 1_555
C23 C21 1_555 1_555
C24 C23 1_555 1_555
H5 C24 1_555 1_555
C25 C24 1_555 1_555
H6 C25 1_555 1_555
C26 C22 1_555 1_555
C27 C26 1_555 1_555
H7 C27 1_555 1_555
C28 C23 1_555 1_555
H8 C28 1_555 1_555
N23 N9 1_555 1_555
C29 N23 1_555 1_555
N24 N18 1_555 1_555
C30 N24 1_555 1_555
C31 C29 1_555 1_555
C32 C31 1_555 1_555
H9 C32 1_555 1_555
C33 C32 1_555 1_555
H10 C33 1_555 1_555
C34 C30 1_555 1_555
C35 C34 1_555 1_555
H11 C35 1_555 1_555
C36 C31 1_555 1_555
H12 C36 1_555 1_555
C37 C1 1_555 1_555
H13 C37 1_555 1_555
O1 C37 1_555 1_555
C38 C37 1_555 1_555
C39 C2 1_555 1_555
H14 C39 1_555 1_555
O2 C39 1_555 1_555
C40 C39 1_555 1_555
C41 C3 1_555 1_555
H15 C41 1_555 1_555
O3 C41 1_555 1_555
C42 C41 1_555 1_555
C43 C4 1_555 1_555
H16 C43 1_555 1_555
O4 C43 1_555 1_555
C44 C43 1_555 1_555
C45 C5 1_555 1_555
H17 C45 1_555 1_555
O5 C45 1_555 1_555
C46 C45 1_555 1_555
C47 C6 1_555 1_555
H18 C47 1_555 1_555
O6 C47 1_555 1_555
C48 C47 1_555 1_555
C49 C7 1_555 1_555
H19 C49 1_555 1_555
O7 C49 1_555 1_555
C50 C49 1_555 1_555
C51 C8 1_555 1_555
H20 C51 1_555 1_555
O8 C51 1_555 1_555
C52 C51 1_555 1_555
C53 C9 1_555 1_555
H21 C53 1_555 1_555
O9 C53 1_555 1_555
C54 C53 1_555 1_555
C55 C10 1_555 1_555
O10 C55 1_555 1_555
C56 C55 1_555 1_555
C57 C11 1_555 1_555
H22 C57 1_555 1_555
O11 C57 1_555 1_555
C58 C57 1_555 1_555
C59 C12 1_555 1_555
O12 C59 1_555 1_555
C60 C59 1_555 1_555
Ag1C N11 1_555 1_555
Ag2C N10 1_555 1_555
Ag2E N14 1_555 1_555
Ag2D N16 1_555 1_555
Ag3E N13 1_555 1_555
Ag4E N7 1_555 1_555
N7D Ag4 1_555 1_555
N10C Ag2 1_555 1_555
N11C Ag1 1_555 1_555
N13D Ag3 1_555 1_555
N14D Ag2 1_555 1_555
N16E Ag2 1_555 1_555
N6 C4 1_555 1_555
N9 C6 1_555 1_555
C17 C18 1_555 1_555
C19 C20 1_555 1_555
C25 C26 1_555 1_555
C27 C28 1_555 1_555
C33 C34 1_555 1_555
C35 C36 1_555 1_555
N10C N11C 1_555 1_555
N13D N14D 1_555 1_555

#END
