
#######################################################################
#
#                 Cambridge Crystallographic Data Centre
#                                CCDC 
#
#######################################################################
#
# If this CIF has been generated from an entry in the Cambridge 
# Structural Database, then it will include bibliographic, chemical, 
# crystal, experimental, refinement or atomic coordinate data resulting 
# from the CCDC's data processing and validation procedures.
#
#######################################################################

data_WUXYUL
_chemical_name_common            'MOF-706 as-synthesized'
_chemical_formula_moiety         '(C22 H20 N2 Na4 O12)n,C1 H4 O1'
_chemical_name_systematic        
"catena-((\m-2,2'-(biphenyl-4,4'-diylbis(carbonylimino))disuccinato)-(\m-aqua)-aqua-tetra-sodium methanol solvate)"
_symmetry_cell_setting           monoclinic
_symmetry_space_group_name_H-M   'P 21'
_symmetry_Int_Tables_number      4
_space_group_name_Hall           'P 2yb'
loop_
_symmetry_equiv_pos_site_id
_symmetry_equiv_pos_as_xyz
1 x,y,z
2 -x,1/2+y,-z
_cell_length_a                   12.0790(15)
_cell_length_b                   5.2419(6)
_cell_length_c                   21.254(3)
_cell_angle_alpha                90
_cell_angle_beta                 103.886(6)
_cell_angle_gamma                90
_cell_volume                     1306.41
_exptl_crystal_colour            colorless
_exptl_crystal_description       Needle
_cell_formula_units_Z            2
loop_
_atom_site_label
_atom_site_type_symbol
_atom_site_fract_x
_atom_site_fract_y
_atom_site_fract_z
Na1 Na 0.4066(7) -0.330(4) 0.9684(4)
Na2 Na 0.6641(7) 0.714(4) -0.0687(4)
Na3 Na 0.8851(7) 1.151(4) 0.0242(4)
Na4 Na 0.8238(8) -0.187(4) 0.8146(4)
O1 O 0.7466(13) 0.459(5) 0.0317(8)
O2 O 0.5001(13) -0.029(5) 0.9255(8)
O3 O 0.7411(12) 0.878(5) 0.0364(7)
O4 O 0.9806(11) 1.306(5) -0.0528(7)
H1 H 0.9216 1.3606 -0.0913
H2 H 1.0215 1.1603 -0.0665
O5 O 0.9836(14) 0.353(5) 0.1205(9)
O6 O 0.5209(14) 0.396(5) 0.9206(8)
O7 O 0.7794(14) 0.473(5) 0.8731(7)
O8 O 0.7353(14) 0.063(5) 0.8775(7)
O9 O 0.6556(13) 0.720(5) 0.7347(7)
N1 N 0.8053(16) 0.411(5) 0.2351(9)
H3 H 0.8378 0.5372 0.2602
N2 N 0.6084(14) 0.306(5) 0.7432(8)
H4 H 0.5915 0.1583 0.7234
C1 C 0.641(2) 0.498(7) 0.7117(13)
C2 C 0.653(2) 0.452(6) 0.6436(12)
O10 O 1.0033(15) 0.165(6) 0.2171(8)
O11 O 0.8733(17) 0.192(6) 0.7605(9)
C3 C 0.760(2) 0.659(8) 0.0628(12)
C4 C 0.600(2) 0.333(6) 0.8104(10)
H5 H 0.5775 0.5128 0.8165
O12 O 0.689(2) 0.076(5) 0.2254(11)
C5 C 0.824(2) 0.403(6) 0.1700(11)
H6 H 0.7703 0.2750 0.1444
C6 C 0.509(2) 0.165(8) 0.8971(12)
C7 C 0.797(2) 0.667(7) 0.1360(9)
H7 H 0.7365 0.7498 0.1526
H8 H 0.8663 0.7750 0.1485
C8 C 0.505(2) 0.158(6) 0.8225(10)
H9 H 0.5163 -0.0188 0.8090
H10 H 0.4295 0.2183 0.7972
C9 C 0.682(2) 0.393(6) 0.5173(15)
C10 C 0.702(3) 0.363(4) 0.4515(12)
C11 C 0.730(2) 0.297(5) 0.3268(10)
C12 C 0.600(2) 0.253(7) 0.6064(14)
H11 H 0.5543 0.1355 0.6230
C13 C 0.714(2) 0.286(8) 0.8570(12)
C14 C 0.748(2) 0.259(7) 0.2586(12)
C15 C 0.730(2) 0.589(6) 0.5573(12)
H12 H 0.7769 0.7069 0.5416
C16 C 0.614(3) 0.227(7) 0.5439(14)
H13 H 0.5771 0.0903 0.5180
C17 C 0.716(2) 0.624(6) 0.6188(11)
H14 H 0.7490 0.7662 0.6438
C18 C 0.949(2) 0.320(6) 0.1684(14)
C19 C 0.621(3) 0.265(4) 0.407(2)
H15 H 0.5520 0.2161 0.4174
C20 C 0.633(3) 0.227(5) 0.3412(14)
H16 H 0.5726 0.1550 0.3090
C21 C 0.821(3) 0.406(9) 0.375(2)
H17 H 0.8901 0.4539 0.3643
C22 C 0.811(4) 0.441(9) 0.4369(16)
H18 H 0.8708 0.5128 0.4692
Na1_2 Na 0.4066(7) 0.670(4) 0.9684(4)
Na1A Na 0.5934(7) 0.170(4) 0.0316(4)
Na1A_2 Na 0.5934(7) 0.170(4) 1.0316(4)
Na1A_3 Na 0.5934(7) 1.170(4) 0.0316(4)
Na2_2 Na 0.6641(7) -0.286(4) 0.9313(4)
Na2_3 Na 0.6641(7) 0.714(4) 0.9313(4)
Na3_2 Na 0.8851(7) 0.151(4) 0.0242(4)
Na3A Na 1.1149(7) 1.651(4) -0.0242(4)
Na4_2 Na 0.8238(8) 0.813(4) 0.8146(4)
Na4A Na 1.1762(8) 0.313(4) 0.1854(4)
O1_2 O 0.7466(13) 1.459(5) 0.0317(8)
O1A O 0.2534(13) -0.041(5) 0.9683(8)
O2_2 O 0.5001(13) 0.971(5) -0.0745(8)
O2A O 0.4999(13) -0.529(5) 1.0745(8)
O3A O 0.2589(12) -0.622(5) 0.9636(7)
O4A O 1.0194(11) 0.806(5) 0.0528(7)
O5_2 O 0.9836(14) 1.353(5) 0.1205(9)
O5A O 1.0164(14) -0.147(5) 0.8795(9)
O6_2 O 0.5209(14) -0.604(5) 0.9206(8)
O6_3 O 0.5209(14) 0.396(5) -0.0794(8)
O6A O 0.4791(14) -0.104(5) 1.0794(8)
O7_2 O 0.7794(14) -0.527(5) 0.8731(7)
O7_3 O 0.7794(14) 0.473(5) -0.1269(7)
O8_2 O 0.7353(14) 1.063(5) -0.1225(7)
O9_2 O 0.6556(13) -0.280(5) 0.7347(7)
O10A O 0.9967(15) -0.335(6) 0.7829(8)
O13 O 0.950(2) -0.167(6) 0.3038(11)
H19 H 0.9887 -0.0812 0.2833
C23 C 0.995(6) -0.137(15) 0.370(3)
H20 H 1.0055 0.0449 0.3797
H21 H 1.0682 -0.2252 0.3823
H22 H 0.9419 -0.2097 0.3933
C24? C 0.729(4) 0.539(9) 0.3517(17)
H23? H 0.7365 0.6843 0.3264
C25? C 0.717(4) 0.565(9) 0.417(2)
H24? H 0.7203 0.7305 0.4352
C26? C 0.668(5) 0.119(9) 0.417(2)
H25? H 0.6356 -0.0148 0.4366
C27? C 0.685(4) 0.092(8) 0.3575(18)
H26? H 0.6671 -0.0654 0.3352
loop_
_geom_bond_atom_site_label_1
_geom_bond_atom_site_label_2
_geom_bond_site_symmetry_1
_geom_bond_site_symmetry_2
Na1 O2 1_555 1_555
Na2 O1 1_555 1_555
Na3 O3 1_555 1_555
Na4 O8 1_555 1_555
O1 C3 1_555 1_555
O2 C6 1_555 1_555
O3 Na2 1_555 1_555
O4 Na3 1_555 1_555
H1 O4 1_555 1_555
H2 O4 1_555 1_555
O5 C18 1_555 1_555
O6 C6 1_555 1_555
O7 C13 1_555 1_555
O8 C13 1_555 1_555
O9 C1 1_555 1_555
N1 H3 1_555 1_555
N2 H4 1_555 1_555
C1 N2 1_555 1_555
C2 C1 1_555 1_555
O10 C18 1_555 1_555
O11 Na4 1_555 1_555
C3 O3 1_555 1_555
C4 N2 1_555 1_555
H5 C4 1_555 1_555
O12 C14 1_555 1_555
C5 N1 1_555 1_555
H6 C5 1_555 1_555
C6 C8 1_555 1_555
C7 C3 1_555 1_555
H7 C7 1_555 1_555
H8 C7 1_555 1_555
C8 C4 1_555 1_555
H9 C8 1_555 1_555
H10 C8 1_555 1_555
C9 C10 1_555 1_555
C10 C19 1_555 1_555
C11 C14 1_555 1_555
C12 C2 1_555 1_555
H11 C12 1_555 1_555
C13 C4 1_555 1_555
C14 N1 1_555 1_555
C15 C9 1_555 1_555
H12 C15 1_555 1_555
C16 C9 1_555 1_555
H13 C16 1_555 1_555
C17 C2 1_555 1_555
H14 C17 1_555 1_555
C18 C5 1_555 1_555
C19 H15 1_555 1_555
C20 C11 1_555 1_555
H16 C20 1_555 1_555
C21 C11 1_555 1_555
H17 C21 1_555 1_555
C22 C10 1_555 1_555
H18 C22 1_555 1_555
O13 H19 1_555 1_555
C23 O13 1_555 1_555
H20 C23 1_555 1_555
H21 C23 1_555 1_555
H22 C23 1_555 1_555
Na1_2 O6 1_555 1_555
Na1A O1 1_555 1_555
Na1A_2 O2 1_555 1_555
Na1A_3 O3 1_555 1_555
Na2_2 O2 1_555 1_555
Na2_3 O6 1_555 1_555
Na3_2 O1 1_555 1_555
Na3A O4 1_555 1_555
Na4_2 O7 1_555 1_555
Na4A O5 1_555 1_555
O1_2 Na3 1_555 1_555
O1A Na1 1_555 1_555
O2_2 Na2 1_555 1_555
O2A Na1 1_555 1_555
O3A Na1 1_555 1_555
O4A Na3 1_555 1_555
O5_2 Na3 1_555 1_555
O5A Na4 1_555 1_555
O6_2 Na1 1_555 1_555
O6_3 Na2 1_555 1_555
O6A Na1 1_555 1_555
O7_2 Na4 1_555 1_555
O7_3 Na2 1_555 1_555
O8_2 Na2 1_555 1_555
O9_2 Na4 1_555 1_555
O10A Na4 1_555 1_555
O5 Na3_2 1_555 1_555
O6 Na1A_2 1_555 1_555
O7 Na2_3 1_555 1_555
O8 Na2_2 1_555 1_555
O9 Na4_2 1_555 1_555
O10 Na4A 1_555 1_555
C5 C7 1_555 1_555
C12 C16 1_555 1_555
C15 C17 1_555 1_555
C19 C20 1_555 1_555
C21 C22 1_555 1_555
Na1A O6_3 1_555 1_555
Na1A_2 O6A 1_555 1_555
Na1A_3 O1_2 1_555 1_555
Na1A_3 O2_2 1_555 1_555
Na2_2 O6_2 1_555 1_555
Na2_2 O7_2 1_555 1_555

#END
