
#######################################################################
#
#                 Cambridge Crystallographic Data Centre
#                                CCDC 
#
#######################################################################
#
# If this CIF has been generated from an entry in the Cambridge 
# Structural Database, then it will include bibliographic, chemical, 
# crystal, experimental, refinement or atomic coordinate data resulting 
# from the CCDC's data processing and validation procedures.
#
#######################################################################

data_LIBHAH
_chemical_name_common            PCN-53
_chemical_formula_moiety         '(C30 H12 Fe3 O16 S6)n'
_chemical_name_systematic        
"catena-(bis(\m~6~-benzo[1,2-b:3,4-b':6,5-b'']tristhiophene-2,5,8-tricarboxylato)-(\m~3~-oxo)-triaqua-di-iron(iii)-iron(ii) unknown solvate)"
_symmetry_cell_setting           cubic
_symmetry_space_group_name_H-M   'F d -3 m'
_symmetry_Int_Tables_number      227
_space_group_name_Hall           '-F 4vw 2vw 3'
loop_
_symmetry_equiv_pos_site_id
_symmetry_equiv_pos_as_xyz
1 x,y,z
2 -y,1/4+x,1/4+z
3 1/4-x,1/4-y,z
4 1/4+y,-x,1/4+z
5 1/4+x,-z,1/4+y
6 x,1/4-y,1/4-z
7 1/4+x,1/4+z,-y
8 1/4+z,1/4+y,-x
9 1/4-x,y,1/4-z
10 -z,1/4+y,1/4+x
11 z,x,y
12 y,z,x
13 1/4-y,1/4-z,x
14 z,1/4-x,1/4-y
15 1/4-y,z,1/4-x
16 1/4-z,1/4-x,y
17 1/4-z,x,1/4-y
18 y,1/4-z,1/4-x
19 1/4+y,1/4+x,-z
20 -y,-x,-z
21 -x,1/4+z,1/4+y
22 -x,-z,-y
23 1/4+z,-y,1/4+x
24 -z,-y,-x
25 x,1/2+y,1/2+z
26 -y,3/4+x,3/4+z
27 1/4-x,3/4-y,1/2+z
28 1/4+y,1/2-x,3/4+z
29 1/4+x,1/2-z,3/4+y
30 x,3/4-y,3/4-z
31 1/4+x,3/4+z,1/2-y
32 1/4+z,3/4+y,1/2-x
33 1/4-x,1/2+y,3/4-z
34 -z,3/4+y,3/4+x
35 z,1/2+x,1/2+y
36 y,1/2+z,1/2+x
37 1/4-y,3/4-z,1/2+x
38 z,3/4-x,3/4-y
39 1/4-y,1/2+z,3/4-x
40 1/4-z,3/4-x,1/2+y
41 1/4-z,1/2+x,3/4-y
42 y,3/4-z,3/4-x
43 1/4+y,3/4+x,1/2-z
44 -y,1/2-x,1/2-z
45 -x,3/4+z,3/4+y
46 -x,1/2-z,1/2-y
47 1/4+z,1/2-y,3/4+x
48 -z,1/2-y,1/2-x
49 1/2+x,y,1/2+z
50 1/2-y,1/4+x,3/4+z
51 3/4-x,1/4-y,1/2+z
52 3/4+y,-x,3/4+z
53 3/4+x,-z,3/4+y
54 1/2+x,1/4-y,3/4-z
55 3/4+x,1/4+z,1/2-y
56 3/4+z,1/4+y,1/2-x
57 3/4-x,y,3/4-z
58 1/2-z,1/4+y,3/4+x
59 1/2+z,x,1/2+y
60 1/2+y,z,1/2+x
61 3/4-y,1/4-z,1/2+x
62 1/2+z,1/4-x,3/4-y
63 3/4-y,z,3/4-x
64 3/4-z,1/4-x,1/2+y
65 3/4-z,x,3/4-y
66 1/2+y,1/4-z,3/4-x
67 3/4+y,1/4+x,1/2-z
68 1/2-y,-x,1/2-z
69 1/2-x,1/4+z,3/4+y
70 1/2-x,-z,1/2-y
71 3/4+z,-y,3/4+x
72 1/2-z,-y,1/2-x
73 1/2+x,1/2+y,z
74 1/2-y,3/4+x,1/4+z
75 3/4-x,3/4-y,z
76 3/4+y,1/2-x,1/4+z
77 3/4+x,1/2-z,1/4+y
78 1/2+x,3/4-y,1/4-z
79 3/4+x,3/4+z,-y
80 3/4+z,3/4+y,-x
81 3/4-x,1/2+y,1/4-z
82 1/2-z,3/4+y,1/4+x
83 1/2+z,1/2+x,y
84 1/2+y,1/2+z,x
85 3/4-y,3/4-z,x
86 1/2+z,3/4-x,1/4-y
87 3/4-y,1/2+z,1/4-x
88 3/4-z,3/4-x,y
89 3/4-z,1/2+x,1/4-y
90 1/2+y,3/4-z,1/4-x
91 3/4+y,3/4+x,-z
92 1/2-y,1/2-x,-z
93 1/2-x,3/4+z,1/4+y
94 1/2-x,1/2-z,-y
95 3/4+z,1/2-y,1/4+x
96 1/2-z,1/2-y,-x
97 -x,-y,-z
98 y,3/4-x,3/4-z
99 3/4+x,3/4+y,-z
100 3/4-y,x,3/4-z
101 3/4-x,z,3/4-y
102 -x,3/4+y,3/4+z
103 3/4-x,3/4-z,y
104 3/4-z,3/4-y,x
105 3/4+x,-y,3/4+z
106 z,3/4-y,3/4-x
107 -z,-x,-y
108 -y,-z,-x
109 3/4+y,3/4+z,-x
110 -z,3/4+x,3/4+y
111 3/4+y,-z,3/4+x
112 3/4+z,3/4+x,-y
113 3/4+z,-x,3/4+y
114 -y,3/4+z,3/4+x
115 3/4-y,3/4-x,z
116 y,x,z
117 x,3/4-z,3/4-y
118 x,z,y
119 3/4-z,y,3/4-x
120 z,y,x
121 -x,1/2-y,1/2-z
122 y,1/4-x,1/4-z
123 3/4+x,1/4+y,1/2-z
124 3/4-y,1/2+x,1/4-z
125 3/4-x,1/2+z,1/4-y
126 -x,1/4+y,1/4+z
127 3/4-x,1/4-z,1/2+y
128 3/4-z,1/4-y,1/2+x
129 3/4+x,1/2-y,1/4+z
130 z,1/4-y,1/4-x
131 -z,1/2-x,1/2-y
132 -y,1/2-z,1/2-x
133 3/4+y,1/4+z,1/2-x
134 -z,1/4+x,1/4+y
135 3/4+y,1/2-z,1/4+x
136 3/4+z,1/4+x,1/2-y
137 3/4+z,1/2-x,1/4+y
138 -y,1/4+z,1/4+x
139 3/4-y,1/4-x,1/2+z
140 y,1/2+x,1/2+z
141 x,1/4-z,1/4-y
142 x,1/2+z,1/2+y
143 3/4-z,1/2+y,1/4-x
144 z,1/2+y,1/2+x
145 1/2-x,-y,1/2-z
146 1/2+y,3/4-x,1/4-z
147 1/4+x,3/4+y,1/2-z
148 1/4-y,x,1/4-z
149 1/4-x,z,1/4-y
150 1/2-x,3/4+y,1/4+z
151 1/4-x,3/4-z,1/2+y
152 1/4-z,3/4-y,1/2+x
153 1/4+x,-y,1/4+z
154 1/2+z,3/4-y,1/4-x
155 1/2-z,-x,1/2-y
156 1/2-y,-z,1/2-x
157 1/4+y,3/4+z,1/2-x
158 1/2-z,3/4+x,1/4+y
159 1/4+y,-z,1/4+x
160 1/4+z,3/4+x,1/2-y
161 1/4+z,-x,1/4+y
162 1/2-y,3/4+z,1/4+x
163 1/4-y,3/4-x,1/2+z
164 1/2+y,x,1/2+z
165 1/2+x,3/4-z,1/4-y
166 1/2+x,z,1/2+y
167 1/4-z,y,1/4-x
168 1/2+z,y,1/2+x
169 1/2-x,1/2-y,-z
170 1/2+y,1/4-x,3/4-z
171 1/4+x,1/4+y,-z
172 1/4-y,1/2+x,3/4-z
173 1/4-x,1/2+z,3/4-y
174 1/2-x,1/4+y,3/4+z
175 1/4-x,1/4-z,y
176 1/4-z,1/4-y,x
177 1/4+x,1/2-y,3/4+z
178 1/2+z,1/4-y,3/4-x
179 1/2-z,1/2-x,-y
180 1/2-y,1/2-z,-x
181 1/4+y,1/4+z,-x
182 1/2-z,1/4+x,3/4+y
183 1/4+y,1/2-z,3/4+x
184 1/4+z,1/4+x,-y
185 1/4+z,1/2-x,3/4+y
186 1/2-y,1/4+z,3/4+x
187 1/4-y,1/4-x,z
188 1/2+y,1/2+x,z
189 1/2+x,1/4-z,3/4-y
190 1/2+x,1/2+z,y
191 1/4-z,1/2+y,3/4-x
192 1/2+z,1/2+y,x
_cell_length_a                   50.817(2)
_cell_length_b                   50.817(2)
_cell_length_c                   50.817(2)
_cell_angle_alpha                90
_cell_angle_beta                 90
_cell_angle_gamma                90
_cell_volume                     131228
_exptl_crystal_colour            red
_exptl_crystal_description       prism
_cell_formula_units_Z            48
loop_
_atom_site_label
_atom_site_type_symbol
_atom_site_fract_x
_atom_site_fract_y
_atom_site_fract_z
_atom_site_U_iso_or_equiv
_atom_site_thermal_displace_type
Fe1 Fe 0.8750 0.8750 0.039695(13) 0.0242 Uani
Fe2 Fe 0.850541(6) 0.899459(6) 0.100660(9) 0.0285 Uani
S1 S 0.70816(4) 0.87629(4) 0.08698(3) 0.0481 Uani
O1 O 0.83434(4) 0.87509(4) 0.03738(4) 0.0458 Uani
O2 O 0.82019(4) 0.88822(8) 0.07721(5) 0.0906 Uani
O3 O 0.66120(5) 0.87558(5) 0.12008(4) 0.0559 Uani
O4 O 0.8750 0.8750 0.08021(5) 0.0142 Uani
O5 O 0.8750 0.8750 -0.00322(9) 0.0636 Uani
O6 O 0.82504(6) 0.92496(6) 0.12187(8) 0.1007 Uani
C1 C 0.81735(5) 0.88058(7) 0.05402(6) 0.0511 Uani
C2 C 0.78890(6) 0.87794(7) 0.04544(6) 0.0533 Uani
C3 C 0.74933(6) 0.87562(7) 0.02015(6) 0.0547 Uani
C4 C 0.74223(6) 0.87586(8) 0.04682(6) 0.0564 Uani
C5 C 0.71545(6) 0.87559(7) 0.05395(6) 0.0552 Uani
C6 C 0.67386(6) 0.87653(9) 0.07614(6) 0.0486 Uani
C7 C 0.65314(5) 0.87590(8) 0.09686(5) 0.0450 Uani
C8 C 0.76866(15) 0.8793(2) 0.05944(16) 0.0630 Uani
H1 H 0.7701 0.8808 0.0778 0.0760 Uiso
S2 S 0.78204(4) 0.87666(6) 0.01052(4) 0.0548 Uani
S1ND S 0.66302(3) 0.87629(4) 0.04184(4) 0.0481 Uani
O1ND O 0.71262(4) 0.87509(4) -0.08434(4) 0.0458 Uani
O2ND O 0.67279(5) 0.88822(8) -0.07019(4) 0.0906 Uani
O3ND O 0.62992(4) 0.87558(5) 0.08880(5) 0.0559 Uani
C1ND C 0.69598(6) 0.88058(7) -0.06735(5) 0.0511 Uani
C2ND C 0.70456(6) 0.87794(7) -0.03890(6) 0.0533 Uani
C3ND C 0.72985(6) 0.87562(7) 0.00067(6) 0.0547 Uani
C4ND C 0.70318(6) 0.87586(8) 0.00777(6) 0.0564 Uani
C5ND C 0.69605(6) 0.87559(7) 0.03455(6) 0.0552 Uani
C8ND C 0.69056(16) 0.8793(2) -0.01866(15) 0.0630 Uani
H1ND H 0.6722 0.8808 -0.0201 0.0760 Uiso
S2ND S 0.73948(4) 0.87666(6) -0.03204(4) 0.0548 Uani
Fe2OA Fe 0.899459(6) 0.649340(9) -0.100541(6) 0.0285 Uani
S1OA S 0.87629(4) 0.66302(3) 0.04184(4) 0.0481 Uani
O1OA O 0.87509(4) 0.71262(4) -0.08434(4) 0.0458 Uani
O2OA O 0.88822(8) 0.67279(5) -0.07019(4) 0.0906 Uani
O3OA O 0.87558(5) 0.62992(4) 0.08880(5) 0.0559 Uani
O6OA O 0.92496(6) 0.62813(8) -0.07504(6) 0.1007 Uani
C1OA C 0.88058(7) 0.69598(6) -0.06735(5) 0.0511 Uani
C2OA C 0.87794(7) 0.70456(6) -0.03890(6) 0.0533 Uani
C3OA C 0.87562(7) 0.72985(6) 0.00067(6) 0.0547 Uani
C4OA C 0.87586(8) 0.70318(6) 0.00777(6) 0.0564 Uani
C5OA C 0.87559(7) 0.69605(6) 0.03455(6) 0.0552 Uani
C6OA C 0.87653(9) 0.67386(6) 0.07614(6) 0.0486 Uani
C7OA C 0.87590(8) 0.65314(5) 0.09686(5) 0.0450 Uani
C8OA C 0.8793(2) 0.69056(16) -0.01866(15) 0.0630 Uani
H1OA H 0.8808 0.6722 -0.0201 0.0760 Uiso
S2OA S 0.87666(6) 0.73948(4) -0.03204(4) 0.0548 Uani
S1KD S 0.87629(4) 0.70816(4) 0.08698(3) 0.0481 Uani
O1KD O 0.87509(4) 0.83434(4) 0.03738(4) 0.0458 Uani
O2KD O 0.88822(8) 0.82019(4) 0.07721(5) 0.0906 Uani
O3KD O 0.87558(5) 0.66120(5) 0.12008(4) 0.0559 Uani
C1KD C 0.88058(7) 0.81735(5) 0.05402(6) 0.0511 Uani
C2KD C 0.87794(7) 0.78890(6) 0.04544(6) 0.0533 Uani
C3KD C 0.87562(7) 0.74933(6) 0.02015(6) 0.0547 Uani
C4KD C 0.87586(8) 0.74223(6) 0.04682(6) 0.0564 Uani
C5KD C 0.87559(7) 0.71545(6) 0.05395(6) 0.0552 Uani
C8KD C 0.8793(2) 0.76866(15) 0.05944(16) 0.0630 Uani
H1KD H 0.8808 0.7701 0.0778 0.0760 Uiso
S2KD S 0.87666(6) 0.78204(4) 0.01052(4) 0.0548 Uani
Fe1OA Fe 0.8750 0.710305(13) -0.1250 0.0242 Uani
Fe1LB Fe 0.710305(13) 0.8750 -0.1250 0.0242 Uani
Fe2VB Fe 0.899459(6) 0.850541(6) 0.100660(9) 0.0285 Uani
Fe2ZB Fe 0.600541(6) 0.850660(9) 0.100541(6) 0.0285 Uani
Fe2AC Fe 0.850660(9) 0.649459(6) 0.149459(6) 0.0285 Uani
Fe2IC Fe 0.649340(9) 0.899459(6) -0.100541(6) 0.0285 Uani
Fe2NC Fe 0.649459(6) 0.850660(9) 0.149459(6) 0.0285 Uani
Fe2PC Fe 0.850660(9) 0.600541(6) 0.100541(6) 0.0285 Uani
O1VB O 0.91566(4) 0.87491(4) 0.03738(4) 0.0458 Uani
O1JD O 0.87491(4) 0.91566(4) 0.03738(4) 0.0458 Uani
O2XC O 0.92981(4) 0.67279(5) -0.11178(8) 0.0906 Uani
O2JD O 0.86178(8) 0.92981(4) 0.07721(5) 0.0906 Uani
O3NC O 0.83880(5) 0.87008(4) 0.12558(5) 0.0559 Uani
O3PC O 0.87008(4) 0.62442(5) -0.08880(5) 0.0559 Uani
O3CE O 0.87992(4) 0.91120(5) 0.12558(5) 0.0559 Uani
O3TF O 0.91120(5) 0.62442(5) -0.12992(4) 0.0559 Uani
O4OA O 0.8750 0.66979(5) -0.1250 0.0142 Uani
C9? C 0.77823(14) 0.87589(18) 0.02214(15) 0.0497 Uani
H2? H 0.7887 0.8745 0.0070 0.0600 Uiso
S3? S 0.76461(4) 0.87696(5) 0.07156(4) 0.0559 Uani
C10? C 0.69835(14) 0.87633(16) 0.07717(13) 0.0540 Uani
H3? H 0.7062 0.8757 0.0939 0.0650 Uiso
loop_
_atom_site_aniso_label
_atom_site_aniso_U_11
_atom_site_aniso_U_22
_atom_site_aniso_U_33
_atom_site_aniso_U_23
_atom_site_aniso_U_13
_atom_site_aniso_U_12
Fe1 0.0235(2) 0.0235(2) 0.0257(3) 0.000 0.000 -0.0025(2)
Fe2 0.02907(19) 0.02907(19) 0.0275(3) 0.00062(13) -0.00062(13) 0.00744(19)
S1 0.0394(9) 0.0812(12) 0.0236(7) 0.0036(7) 0.0042(6) -0.0084(8)
O1 0.0297(9) 0.0650(14) 0.0427(11) -0.0020(9) -0.0039(8) 0.0008(9)
O2 0.0318(12) 0.190(3) 0.0500(14) -0.0315(17) -0.0163(10) 0.0230(16)
O3 0.0582(14) 0.0684(15) 0.0410(12) -0.0033(10) 0.0220(10) -0.0321(11)
O4 0.0139(7) 0.0139(7) 0.0147(12) 0.000 0.000 -0.0043(10)
O5 0.0704(18) 0.0704(18) 0.050(2) 0.000 0.000 0.003(2)
O6 0.113(2) 0.113(2) 0.076(2) -0.0024(13) 0.0024(13) 0.060(2)
C1 0.0271(13) 0.084(2) 0.0422(16) -0.0044(15) -0.0121(12) 0.0041(14)
C2 0.0293(14) 0.093(3) 0.0376(15) 0.0023(15) -0.0086(11) 0.0032(14)
C3 0.0285(13) 0.094(3) 0.0416(16) -0.0026(16) 0.0055(12) -0.0021(14)
C4 0.0389(16) 0.097(3) 0.0334(14) 0.0032(16) -0.0133(12) 0.0015(16)
C5 0.0487(17) 0.090(3) 0.0269(13) 0.0036(14) 0.0037(12) -0.0041(16)
C6 0.0439(14) 0.058(3) 0.0439(14) 0.0104(13) 0.0111(18) -0.0104(13)
C7 0.0485(15) 0.038(2) 0.0485(15) 0.0037(11) 0.0226(19) -0.0037(11)
C8 0.033(4) 0.126(8) 0.030(4) -0.006(5) -0.008(3) 0.012(4)
S2 0.0250(8) 0.1107(16) 0.0287(9) -0.0030(11) -0.0025(7) 0.0028(8)
S1ND 0.0236 0.0812 0.0394 0.0084 0.0042 -0.0036
O1ND 0.0427 0.065 0.0297 -0.0008 -0.0039 0.002
O2ND 0.05 0.19 0.0318 -0.023 -0.0163 0.0315
O3ND 0.041 0.0684 0.0582 0.0321 0.022 0.0033
C1ND 0.0422 0.084 0.0271 -0.0041 -0.0121 0.0044
C2ND 0.0376 0.093 0.0293 -0.0032 -0.0086 -0.0023
C3ND 0.0416 0.094 0.0285 0.0021 0.0055 0.0026
C4ND 0.0334 0.097 0.0389 -0.0015 -0.0133 -0.0032
C5ND 0.0269 0.09 0.0487 0.0041 0.0037 -0.0036
C8ND 0.03 0.126 0.033 -0.012 -0.008 0.006
S2ND 0.0287 0.1107 0.025 -0.0028 -0.0025 0.003
Fe2OA 0.02907 0.0275 0.02907 -0.00062 -0.00744 -0.00062
S1OA 0.0812 0.0236 0.0394 0.0042 0.0084 -0.0036
O1OA 0.065 0.0427 0.0297 -0.0039 -0.0008 0.002
O2OA 0.19 0.05 0.0318 -0.0163 -0.023 0.0315
O3OA 0.0684 0.041 0.0582 0.022 0.0321 0.0033
O6OA 0.113 0.076 0.113 0.0024 -0.06 0.0024
C1OA 0.084 0.0422 0.0271 -0.0121 -0.0041 0.0044
C2OA 0.093 0.0376 0.0293 -0.0086 -0.0032 -0.0023
C3OA 0.094 0.0416 0.0285 0.0055 0.0021 0.0026
C4OA 0.097 0.0334 0.0389 -0.0133 -0.0015 -0.0032
C5OA 0.09 0.0269 0.0487 0.0037 0.0041 -0.0036
C6OA 0.058 0.0439 0.0439 0.0111 0.0104 -0.0104
C7OA 0.038 0.0485 0.0485 0.0226 0.0037 -0.0037
C8OA 0.126 0.03 0.033 -0.008 -0.012 0.006
S2OA 0.1107 0.0287 0.025 -0.0025 -0.0028 0.003
S1KD 0.0812 0.0394 0.0236 0.0042 0.0036 -0.0084
O1KD 0.065 0.0297 0.0427 -0.0039 -0.002 0.0008
O2KD 0.19 0.0318 0.05 -0.0163 -0.0315 0.023
O3KD 0.0684 0.0582 0.041 0.022 -0.0033 -0.0321
C1KD 0.084 0.0271 0.0422 -0.0121 -0.0044 0.0041
C2KD 0.093 0.0293 0.0376 -0.0086 0.0023 0.0032
C3KD 0.094 0.0285 0.0416 0.0055 -0.0026 -0.0021
C4KD 0.097 0.0389 0.0334 -0.0133 0.0032 0.0015
C5KD 0.09 0.0487 0.0269 0.0037 0.0036 -0.0041
C8KD 0.126 0.033 0.03 -0.008 -0.006 0.012
S2KD 0.1107 0.025 0.0287 -0.0025 -0.003 0.0028
Fe1OA 0.0235 0.0257 0.0235 0 0.0025 0
Fe1LB 0.0257 0.0235 0.0235 0.0025 0 0
Fe2VB 0.02907 0.02907 0.0275 -0.00062 0.00062 0.00744
Fe2ZB 0.02907 0.0275 0.02907 -0.00062 -0.00744 -0.00062
Fe2AC 0.0275 0.02907 0.02907 -0.00744 0.00062 0.00062
Fe2IC 0.0275 0.02907 0.02907 -0.00744 -0.00062 -0.00062
Fe2NC 0.02907 0.0275 0.02907 0.00062 -0.00744 0.00062
Fe2PC 0.0275 0.02907 0.02907 -0.00744 -0.00062 -0.00062
O1VB 0.0297 0.065 0.0427 0.002 0.0039 0.0008
O1JD 0.065 0.0297 0.0427 0.0039 0.002 0.0008
O2XC 0.0318 0.05 0.19 0.0315 -0.023 -0.0163
O2JD 0.19 0.0318 0.05 0.0163 0.0315 0.023
O3NC 0.0582 0.041 0.0684 -0.0033 0.0321 -0.022
O3PC 0.041 0.0684 0.0582 0.0321 0.022 0.0033
O3CE 0.041 0.0582 0.0684 -0.0321 0.0033 -0.022
O3TF 0.0582 0.0684 0.041 0.0033 0.022 0.0321
O4OA 0.0139 0.0147 0.0139 0 0.0043 0
C9? 0.029(3) 0.086(5) 0.034(4) -0.008(4) 0.003(3) -0.001(3)
S3? 0.0290(8) 0.1115(16) 0.0273(8) 0.0067(10) -0.0085(7) 0.0009(8)
C10? 0.042(4) 0.099(6) 0.021(3) 0.006(3) -0.008(3) -0.010(4)
loop_
_geom_bond_atom_site_label_1
_geom_bond_atom_site_label_2
_geom_bond_site_symmetry_1
_geom_bond_site_symmetry_2
Fe1 O1 1_555 1_555
Fe2 O2 1_555 1_555
S1 C5 1_555 1_555
O1 C1 1_555 1_555
O2 C1 1_555 1_555
O3 C7 1_555 1_555
O4 Fe1 1_555 1_555
O5 Fe1 1_555 1_555
O6 Fe2 1_555 1_555
C1 C2 1_555 1_555
C2 C8 1_555 1_555
C3 C4 1_555 1_555
C4 C5 1_555 1_555
C5 C5ND 1_555 1_555
C6 S1 1_555 1_555
C7 C6 1_555 1_555
C8 C4 1_555 1_555
H1 C8 1_555 1_555
S2 C2 1_555 1_555
S1ND C6 1_555 1_555
O1ND C1ND 1_555 1_555
O2ND C1ND 1_555 1_555
O3ND C7 1_555 1_555
C1ND C2ND 1_555 1_555
C2ND C8ND 1_555 1_555
C3ND C3 1_555 1_555
C4ND C3ND 1_555 1_555
C5ND S1ND 1_555 1_555
C8ND C4ND 1_555 1_555
H1ND C8ND 1_555 1_555
S2ND C2ND 1_555 1_555
Fe2OA O2OA 1_555 1_555
S1OA C5OA 1_555 1_555
O1OA C1OA 1_555 1_555
O2OA C1OA 1_555 1_555
O3OA C7OA 1_555 1_555
O6OA Fe2OA 1_555 1_555
C1OA C2OA 1_555 1_555
C2OA C8OA 1_555 1_555
C3OA C4OA 1_555 1_555
C4OA C5OA 1_555 1_555
C5OA C5KD 1_555 1_555
C6OA S1OA 1_555 1_555
C7OA C6OA 1_555 1_555
C8OA C4OA 1_555 1_555
H1OA C8OA 1_555 1_555
S2OA C2OA 1_555 1_555
S1KD C6OA 1_555 1_555
O1KD Fe1 1_555 1_555
O2KD C1KD 1_555 1_555
O3KD C7OA 1_555 1_555
C1KD O1KD 1_555 1_555
C2KD C1KD 1_555 1_555
C3KD C3OA 1_555 1_555
C4KD C3KD 1_555 1_555
C5KD S1KD 1_555 1_555
C8KD C2KD 1_555 1_555
H1KD C8KD 1_555 1_555
S2KD C2KD 1_555 1_555
Fe1OA O1OA 1_555 1_555
Fe1LB O1ND 1_555 1_555
Fe2VB O4 1_555 1_555
Fe2ZB O3ND 1_555 1_555
Fe2AC O3KD 1_555 1_555
Fe2IC O2ND 1_555 1_555
Fe2NC O3 1_555 1_555
Fe2PC O3OA 1_555 1_555
O1VB Fe1 1_555 1_555
O1JD Fe1 1_555 1_555
O2XC Fe2OA 1_555 1_555
O2JD Fe2 1_555 1_555
O3NC Fe2 1_555 1_555
O3PC Fe2OA 1_555 1_555
O3CE Fe2 1_555 1_555
O3TF Fe2OA 1_555 1_555
O4OA Fe2OA 1_555 1_555
Fe2 O4 1_555 1_555
C3 S2 1_555 1_555
C3ND S2ND 1_555 1_555
C4ND C5ND 1_555 1_555
C3OA S2OA 1_555 1_555
O2KD Fe2VB 1_555 1_555
C3KD S2KD 1_555 1_555
C4KD C5KD 1_555 1_555
C4KD C8KD 1_555 1_555
Fe1OA O4OA 1_555 1_555

#END
