
#######################################################################
#
#                 Cambridge Crystallographic Data Centre
#                                CCDC 
#
#######################################################################
#
# If this CIF has been generated from an entry in the Cambridge 
# Structural Database, then it will include bibliographic, chemical, 
# crystal, experimental, refinement or atomic coordinate data resulting 
# from the CCDC's data processing and validation procedures.
#
#######################################################################

data_HUCBAJ
_chemical_formula_moiety         
'(C28 H18 In1 Li1 O10 1-)n,3n(H2 O1),0.5n(H3 O1 1+),0.5n(Li1 1+)'
_chemical_name_systematic        
"catena-((\m~6~-1,1':4',1'':4'',1'''-quaterphenyl-3,5,3''',5'''-tetracarboxylato)-oxonium-indium(iii)-lithium hemi-lithium-hemi-oxonium trihydrate clathrate)"
_symmetry_cell_setting           monoclinic
_symmetry_space_group_name_H-M   'C 2/c'
_symmetry_Int_Tables_number      15
_space_group_name_Hall           '-C 2yc'
loop_
_symmetry_equiv_pos_site_id
_symmetry_equiv_pos_as_xyz
1 x,y,z
2 1/2+x,1/2+y,z
3 -x,y,1/2-z
4 1/2-x,1/2+y,1/2-z
5 -x,-y,-z
6 1/2-x,1/2-y,-z
7 x,-y,1/2+z
8 1/2+x,1/2-y,1/2+z
_cell_length_a                   36.5845(12)
_cell_length_b                   9.7589(3)
_cell_length_c                   19.6525(6)
_cell_angle_alpha                90
_cell_angle_beta                 103.558(2)
_cell_angle_gamma                90
_cell_volume                     6820.9
_exptl_crystal_colour            colorless
_exptl_crystal_description       slab
_cell_formula_units_Z            8
loop_
_atom_site_label
_atom_site_type_symbol
_atom_site_fract_x
_atom_site_fract_y
_atom_site_fract_z
In1 In 0.106475(14) -0.43823(5) 0.38804(3)
Li1 Li 0.0196(9) -0.436(3) 0.3093(19)
O1 O 0.11137(14) -0.1970(6) 0.3939(3)
O2 O 0.05970(17) -0.2989(6) 0.3610(3)
O3 O 0.05483(15) 0.4273(6) 0.3640(3)
O4 O 0.10985(17) 0.3300(6) 0.3904(3)
O5 O -0.39980(15) -0.0480(6) 0.0032(3)
O6 O -0.34438(15) -0.0568(6) -0.0217(3)
O7 O -0.40257(16) 0.0382(7) 0.2602(3)
O8 O -0.34832(17) 0.0678(6) 0.3343(3)
O9 O -0.0156(4) -0.426(2) 0.2857(9)
C1 C -0.3676(2) 0.0475(8) 0.2730(5)
C2 C -0.3645(2) -0.0446(8) 0.0233(4)
C3 C -0.3080(2) 0.0388(9) 0.2331(4)
H1 H -0.2952 0.0622 0.2796
C4 C -0.3468(2) 0.0292(8) 0.2165(4)
C5 C -0.3656(2) 0.0003(8) 0.1477(4)
H2 H -0.3923 -0.0046 0.1350
C6 C -0.3453(2) -0.0211(8) 0.0980(4)
C7 C -0.3066(2) -0.0143(8) 0.1163(4)
H3 H -0.2930 -0.0304 0.0814
C8 C -0.2869(2) 0.0150(8) 0.1836(4)
C9 C -0.1886(2) 0.1340(9) 0.2687(5)
H4 H -0.1769 0.2042 0.2998
C10 C -0.2270(2) 0.1271(10) 0.2486(5)
H5 H -0.2416 0.1927 0.2662
C11 C -0.2453(2) 0.0255(8) 0.2028(5)
C12 C -0.2231(2) -0.0678(9) 0.1781(4)
H6 H -0.2349 -0.1378 0.1470
C13 C -0.1845(2) -0.0618(10) 0.1975(5)
H7 H -0.1701 -0.1267 0.1790
C14 C -0.1662(2) 0.0385(9) 0.2439(5)
C15 C -0.0672(2) 0.1723(8) 0.2998(6)
H8 H -0.0551 0.2587 0.3081
C16 C -0.1054(2) 0.1656(8) 0.2767(5)
H9 H -0.1192 0.2487 0.2671
C17 C -0.1251(2) 0.0439(9) 0.2667(5)
C18 C -0.1038(2) -0.0753(9) 0.2792(5)
H10 H -0.1161 -0.1617 0.2729
C19 C -0.0655(3) -0.0697(9) 0.3003(6)
H11 H -0.0517 -0.1531 0.3079
C20 C -0.0460(2) 0.0519(9) 0.3110(6)
C21 C -0.0039(2) 0.0590(8) 0.3349(5)
C22 C 0.0159(2) 0.1837(9) 0.3466(5)
H12 H 0.0024 0.2675 0.3421
C23 C 0.0550(2) 0.1857(9) 0.3647(5)
C24 C 0.0756(2) 0.0632(8) 0.3744(4)
H13 H 0.1023 0.0647 0.3876
C25 C 0.0566(2) -0.0583(9) 0.3646(5)
C26 C 0.0178(2) -0.0588(9) 0.3446(6)
H14 H 0.0053 -0.1446 0.3371
C27 C 0.0746(3) 0.3203(8) 0.3741(4)
C28 C 0.0775(2) -0.1901(8) 0.3732(4)
In1_2 In 0.106475(14) 0.56177(5) 0.38804(3)
In1G In -0.393525(14) -0.06177(5) -0.11196(3)
In1A In -0.393525(14) 0.06177(5) 0.38804(3)
Li1_2 Li 0.0196(9) 0.564(3) 0.3093(19)
Li1B Li -0.0196(9) -0.436(3) 0.1907(19)
O3_2 O 0.05483(15) -0.5727(6) 0.3640(3)
O4_2 O 0.10985(17) -0.6700(6) 0.3904(3)
O5G O 0.10020(15) -0.4520(6) 0.5032(3)
O6G O 0.15562(15) -0.4432(6) 0.4783(3)
O7A O 0.09743(16) -0.4618(7) 0.2602(3)
O8A O 0.15168(17) -0.4322(6) 0.3343(3)
O9B O 0.0156(4) -0.426(2) 0.2143(9)
O10? O 0.4725(4) 0.0698(13) 0.3347(8)
loop_
_geom_bond_atom_site_label_1
_geom_bond_atom_site_label_2
_geom_bond_site_symmetry_1
_geom_bond_site_symmetry_2
In1 O1 1_555 1_555
Li1 O2 1_555 1_555
O1 C28 1_555 1_555
O2 In1 1_555 1_555
O3 C27 1_555 1_555
O4 C27 1_555 1_555
O5 C2 1_555 1_555
O6 C2 1_555 1_555
O7 C1 1_555 1_555
O8 C1 1_555 1_555
O9 Li1 1_555 1_555
C1 C4 1_555 1_555
C2 C6 1_555 1_555
C3 H1 1_555 1_555
C4 C3 1_555 1_555
C5 C4 1_555 1_555
H2 C5 1_555 1_555
C6 C5 1_555 1_555
C7 C6 1_555 1_555
H3 C7 1_555 1_555
C8 C3 1_555 1_555
C9 H4 1_555 1_555
C10 C9 1_555 1_555
H5 C10 1_555 1_555
C11 C8 1_555 1_555
C12 C11 1_555 1_555
H6 C12 1_555 1_555
C13 C12 1_555 1_555
H7 C13 1_555 1_555
C14 C9 1_555 1_555
C15 H8 1_555 1_555
C16 C15 1_555 1_555
H9 C16 1_555 1_555
C17 C14 1_555 1_555
C18 C17 1_555 1_555
H10 C18 1_555 1_555
C19 C18 1_555 1_555
H11 C19 1_555 1_555
C20 C15 1_555 1_555
C21 C20 1_555 1_555
C22 C21 1_555 1_555
H12 C22 1_555 1_555
C23 C22 1_555 1_555
C24 C23 1_555 1_555
H13 C24 1_555 1_555
C25 C24 1_555 1_555
C26 C21 1_555 1_555
H14 C26 1_555 1_555
C27 C23 1_555 1_555
C28 O2 1_555 1_555
In1_2 O3 1_555 1_555
In1G O5 1_555 1_555
In1A O7 1_555 1_555
Li1_2 O3 1_555 1_555
Li1B O9 1_555 1_555
O3_2 In1 1_555 1_555
O4_2 In1 1_555 1_555
O5G In1 1_555 1_555
O6G In1 1_555 1_555
O7A In1 1_555 1_555
O8A In1 1_555 1_555
O9B Li1 1_555 1_555
Li1 O3_2 1_555 1_555
O4 In1_2 1_555 1_555
O6 In1G 1_555 1_555
O8 In1A 1_555 1_555
C7 C8 1_555 1_555
C10 C11 1_555 1_555
C13 C14 1_555 1_555
C16 C17 1_555 1_555
C19 C20 1_555 1_555
C25 C26 1_555 1_555
C25 C28 1_555 1_555
Li1B O9B 1_555 1_555

#END
