
#######################################################################
#
#                 Cambridge Crystallographic Data Centre
#                                CCDC 
#
#######################################################################
#
# If this CIF has been generated from an entry in the Cambridge 
# Structural Database, then it will include bibliographic, chemical, 
# crystal, experimental, refinement or atomic coordinate data resulting 
# from the CCDC's data processing and validation procedures.
#
#######################################################################

data_QEVNEL
_chemical_formula_moiety         '(C32 H24 N2 O8 Rh2)n,1.95n(N1 O1)'
_chemical_name_systematic        
"catena-(tetrakis(\m~2~-Benzoato-O,O')-(\m~2~-pyrazine-N,N')-di-rhodium(ii) nitrogen oxide clathrate)"
_symmetry_cell_setting           triclinic
_symmetry_space_group_name_H-M   'P -1'
_symmetry_Int_Tables_number      2
_space_group_name_Hall           '-P 1'
loop_
_symmetry_equiv_pos_site_id
_symmetry_equiv_pos_as_xyz
1 x,y,z
2 -x,-y,-z
_cell_length_a                   9.567(2)
_cell_length_b                   10.156(2)
_cell_length_c                   10.593(3)
_cell_angle_alpha                73.463(5)
_cell_angle_beta                 64.613(4)
_cell_angle_gamma                63.279(4)
_cell_volume                     825.15
_exptl_crystal_colour            red
_exptl_crystal_description       plate
_cell_formula_units_Z            1
_exptl_crystal_preparation       'magnetic properties'
loop_
_atom_site_label
_atom_site_type_symbol
_atom_site_fract_x
_atom_site_fract_y
_atom_site_fract_z
C1 C 0.5499(10) 0.6238(8) 0.2404(8)
C2 C 0.5698(10) 0.7037(9) 0.0968(9)
C3 C 0.6743(10) 0.7814(9) 0.0361(9)
H1 H 0.7365 0.7816 0.0859
C4 C 0.6892(11) 0.8588(9) -0.0961(9)
H2 H 0.7612 0.9122 -0.1364
C5 C 0.6012(11) 0.8594(9) -0.1696(9)
H3 H 0.6114 0.9132 -0.2604
C6 C 0.4984(11) 0.7817(9) -0.1109(9)
H4 H 0.4385 0.7805 -0.1624
C7 C 0.4804(11) 0.7047(9) 0.0224(9)
H5 H 0.4069 0.6527 0.0626
C8 C 0.6770(9) 0.2332(8) 0.4208(8)
C9 C 0.7786(10) 0.0839(8) 0.3774(8)
C10 C 0.9501(9) 0.0237(8) 0.3497(8)
H6 H 1.0013 0.0793 0.3602
C11 C 1.0451(10) -0.1152(8) 0.3074(8)
H7 H 1.1617 -0.1560 0.2904
C12 C 0.9732(10) -0.1967(9) 0.2893(8)
H8 H 1.0406 -0.2916 0.2568
C13 C 0.8040(10) -0.1397(8) 0.3185(8)
H9 H 0.7542 -0.1962 0.3075
C14 C 0.7048(10) -0.0003(8) 0.3641(8)
H10 H 0.5874 0.0376 0.3862
C15 C 1.0045(8) 0.4325(7) 0.4066(7)
H11 H 1.0118 0.3821 0.3396
C16 C 1.1479(9) 0.4235(7) 0.4139(7)
H12 H 1.2524 0.3687 0.3499
N2 N 0.8535(7) 0.5113(6) 0.4925(6)
O2 O 0.6574(6) 0.6019(6) 0.2932(6)
O3 O 0.4262(6) 0.5844(5) 0.3013(5)
O4 O 0.7527(6) 0.3029(5) 0.4327(5)
O5 O 0.5213(6) 0.2857(5) 0.4399(5)
Rh1 Rh 0.62280(7) 0.50805(6) 0.49600(7)
C1A C 0.4501(10) 0.3762(8) 0.7596(8)
C2A C 0.4302(10) 0.2963(9) 0.9032(9)
C3A C 0.3257(10) 0.2186(9) 0.9639(9)
H1A H 0.2635 0.2184 0.9141
C4A C 0.3108(11) 0.1412(9) 1.0961(9)
H2A H 0.2388 0.0878 1.1364
C5A C 0.3988(11) 0.1406(9) 1.1696(9)
H3A H 0.3886 0.0868 1.2604
C6A C 0.5016(11) 0.2183(9) 1.1109(9)
H4A H 0.5615 0.2195 1.1624
C7A C 0.5196(11) 0.2953(9) 0.9776(9)
H5A H 0.5931 0.3473 0.9374
C8A C 0.3230(9) 0.7668(8) 0.5792(8)
C9A C 0.2214(10) 0.9161(8) 0.6226(8)
C10A C 0.0499(9) 0.9763(8) 0.6503(8)
H6A H -0.0013 0.9207 0.6398
C11A C -0.0451(10) 1.1152(8) 0.6926(8)
H7A H -0.1617 1.1560 0.7096
C12A C 0.0268(10) 1.1967(9) 0.7107(8)
H8A H -0.0406 1.2916 0.7432
C13A C 0.1960(10) 1.1397(8) 0.6815(8)
H9A H 0.2458 1.1962 0.6925
C14A C 0.2952(10) 1.0003(8) 0.6359(8)
H10A H 0.4126 0.9624 0.6138
C15A C 0.9955(8) 0.5675(7) 0.5934(7)
H11A H 0.9882 0.6179 0.6604
C16A C 0.8521(9) 0.5765(7) 0.5861(7)
H12A H 0.7476 0.6313 0.6501
N2A N 1.1465(7) 0.4887(6) 0.5075(6)
O2A O 0.3426(6) 0.3981(6) 0.7068(6)
O2A_2 O 1.3426(6) 0.3981(6) 0.7068(6)
O3A O 0.5738(6) 0.4156(5) 0.6987(5)
O3_2 O 1.4262(6) 0.5844(5) 0.3013(5)
O4A O 0.2473(6) 0.6971(5) 0.5673(5)
O4A_2 O 1.2473(6) 0.6971(5) 0.5673(5)
O5A O 0.4787(6) 0.7143(5) 0.5601(5)
O5_2 O 1.5213(6) 0.2857(5) 0.4399(5)
Rh1A Rh 1.37720(7) 0.49195(6) 0.50400(7)
Rh1A_2 Rh 0.37720(7) 0.49195(6) 0.50400(7)
Rh1_2 Rh 1.62280(7) 0.50805(6) 0.49600(7)
N3 N 0.906(4) 0.349(4) 0.065(3)
O6 O 0.933(3) 0.450(3) -0.026(3)
N1? N 0.896(7) 0.072(6) 0.039(6)
O1? O 0.972(7) -0.043(6) -0.015(5)
loop_
_geom_bond_atom_site_label_1
_geom_bond_atom_site_label_2
_geom_bond_site_symmetry_1
_geom_bond_site_symmetry_2
C1 C2 1_555 1_555
C2 C3 1_555 1_555
C3 H1 1_555 1_555
C4 C3 1_555 1_555
H2 C4 1_555 1_555
C5 C4 1_555 1_555
H3 C5 1_555 1_555
C6 C5 1_555 1_555
H4 C6 1_555 1_555
C7 C2 1_555 1_555
H5 C7 1_555 1_555
C8 C9 1_555 1_555
C9 C10 1_555 1_555
C10 H6 1_555 1_555
C11 C10 1_555 1_555
H7 C11 1_555 1_555
C12 C11 1_555 1_555
H8 C12 1_555 1_555
C13 C12 1_555 1_555
H9 C13 1_555 1_555
C14 C9 1_555 1_555
H10 C14 1_555 1_555
C15 H11 1_555 1_555
C16 C15 1_555 1_555
H12 C16 1_555 1_555
N2 C15 1_555 1_555
N3 O6 1_555 1_555
O2 C1 1_555 1_555
O3 C1 1_555 1_555
O4 C8 1_555 1_555
O5 C8 1_555 1_555
Rh1 N2 1_555 1_555
C1A C2A 1_555 1_555
C2A C3A 1_555 1_555
C3A H1A 1_555 1_555
C4A C3A 1_555 1_555
H2A C4A 1_555 1_555
C5A C4A 1_555 1_555
H3A C5A 1_555 1_555
C6A C5A 1_555 1_555
H4A C6A 1_555 1_555
C7A C2A 1_555 1_555
H5A C7A 1_555 1_555
C8A C9A 1_555 1_555
C9A C10A 1_555 1_555
C10A H6A 1_555 1_555
C11A C10A 1_555 1_555
H7A C11A 1_555 1_555
C12A C11A 1_555 1_555
H8A C12A 1_555 1_555
C13A C12A 1_555 1_555
H9A C13A 1_555 1_555
C14A C9A 1_555 1_555
H10A C14A 1_555 1_555
C15A H11A 1_555 1_555
C16A N2 1_555 1_555
H12A C16A 1_555 1_555
N2A C16 1_555 1_555
O2A C1A 1_555 1_555
O2A_2 Rh1A 1_555 1_555
O3A Rh1 1_555 1_555
O3_2 Rh1A 1_555 1_555
O4A C8A 1_555 1_555
O4A_2 Rh1A 1_555 1_555
O5A Rh1 1_555 1_555
O5_2 Rh1A 1_555 1_555
Rh1A N2A 1_555 1_555
Rh1A_2 O3 1_555 1_555
Rh1_2 Rh1A 1_555 1_555
C6 C7 1_555 1_555
C13 C14 1_555 1_555
O2 Rh1 1_555 1_555
O4 Rh1 1_555 1_555
O5 Rh1A_2 1_555 1_555
Rh1 Rh1A_2 1_555 1_555
C1A O3A 1_555 1_555
C6A C7A 1_555 1_555
C8A O5A 1_555 1_555
C13A C14A 1_555 1_555
C15A C16A 1_555 1_555
C15A N2A 1_555 1_555
O2A Rh1A_2 1_555 1_555
O4A Rh1A_2 1_555 1_555

#END
