
#######################################################################
#
#                 Cambridge Crystallographic Data Centre
#                                CCDC 
#
#######################################################################
#
# If this CIF has been generated from an entry in the Cambridge 
# Structural Database, then it will include bibliographic, chemical, 
# crystal, experimental, refinement or atomic coordinate data resulting 
# from the CCDC's data processing and validation procedures.
#
#######################################################################

data_QEBKOZ
_chemical_formula_moiety         '(C81 H52 Cu2 O18)n,18n(C3 H7 N1 O1),5n(H2 O1)'
_chemical_name_systematic        
"catena-((\m~8~-5',5'',5''',5''''-Methanetetrayl-tetrakis(4''-carboxy-1,1':3',1''-terphenyl-4-carboxylato))-di-aqua-di-copper N,N-dimethylformamide solvate pentahydrate)"
_symmetry_cell_setting           orthorhombic
_symmetry_space_group_name_H-M   'P b a n'
_symmetry_Int_Tables_number      50
_space_group_name_Hall           '-P 2ab 2b'
loop_
_symmetry_equiv_pos_site_id
_symmetry_equiv_pos_as_xyz
1 x,y,z
2 1/2-x,1/2-y,z
3 1/2-x,y,-z
4 x,1/2-y,-z
5 -x,-y,-z
6 1/2+x,1/2+y,-z
7 1/2+x,-y,z
8 -x,1/2+y,z
_cell_length_a                   28.532(3)
_cell_length_b                   33.426(3)
_cell_length_c                   16.0881(14)
_cell_angle_alpha                90
_cell_angle_beta                 90
_cell_angle_gamma                90
_cell_volume                     15343.4
_cell_formula_units_Z            4
loop_
_atom_site_label
_atom_site_type_symbol
_atom_site_fract_x
_atom_site_fract_y
_atom_site_fract_z
O1 O 1.02730(18) 0.46426(13) -0.3911(3)
O2 O 0.95005(18) 0.46165(13) -0.4251(3)
C1 C 0.9851(4) 0.4529(2) -0.3810(5)
C2 C 1.07048(18) 0.23730(10) 0.0924(3)
H1 H 1.0766 0.2153 0.0588
C3 C 1.03193(15) 0.26151(14) 0.0762(2)
C4 C 1.02280(13) 0.29441(12) 0.1265(3)
H2 H 0.9970 0.3106 0.1157
C5 C 1.05221(18) 0.30310(11) 0.1930(3)
C6 C 1.09076(16) 0.27889(14) 0.2092(2)
H3 H 1.1104 0.2847 0.2537
C7 C 1.09989(14) 0.24599(13) 0.1589(3)
Cu1 Cu 1.04495(3) 0.50123(2) -0.47936(5)
C8 C 1.0436(2) 0.33906(11) 0.2481(2)
C9 C 0.99759(17) 0.35104(14) 0.2618(3)
H4 H 0.9730 0.3371 0.2372
C10 C 0.98830(14) 0.38380(15) 0.3124(3)
H5 H 0.9575 0.3918 0.3216
C11 C 1.0250(2) 0.40458(11) 0.3493(2)
C12 C 1.07103(17) 0.39260(14) 0.3356(3)
H6 H 1.0956 0.4065 0.3603
C13 C 1.08031(14) 0.35984(15) 0.2850(3)
H7 H 1.1111 0.3518 0.2758
C14 C 1.0172(4) 0.4415(2) 0.4072(4)
C15 C 0.96709(15) 0.28712(11) -0.0206(3)
C16 C 0.97631(13) 0.31238(14) -0.0872(3)
H8 H 1.0024 0.3079 -0.1206
C17 C 0.94651(17) 0.34428(12) -0.1040(2)
C18 C 0.90750(15) 0.35091(11) -0.0541(3)
H9 H 0.8876 0.3722 -0.0653
C19 C 0.89829(14) 0.32565(15) 0.0126(3)
C20 C 0.92808(17) 0.29376(13) 0.0293(2)
H10 H 0.9219 0.2769 0.0739
O3 O 0.97308(19) 0.45256(13) 0.4094(3)
C21 C 0.9556(2) 0.37180(12) -0.1771(2)
C22 C 1.00133(17) 0.38377(13) -0.1932(3)
H11 H 1.0257 0.3745 -0.1600
C23 C 1.01064(15) 0.40955(14) -0.2590(3)
H12 H 1.0413 0.4176 -0.2698
C24 C 0.9742(2) 0.42336(11) -0.3086(2)
C25 C 0.92842(17) 0.41139(14) -0.2925(3)
H13 H 0.9040 0.4206 -0.3257
C26 C 0.91912(15) 0.38561(14) -0.2267(3)
H14 H 0.8885 0.3776 -0.2159
C27 C 0.9990(3) 0.2500 0.0000
C28 C 1.1428(2) 0.2177(2) 0.1788(4)
C29 C 1.1846(3) 0.23412(18) 0.2073(5)
C30 C 1.2223(2) 0.2094(3) 0.2259(5)
C31 C 1.2182(3) 0.1682(3) 0.2160(5)
C32 C 1.1765(4) 0.15179(17) 0.1875(6)
C33 C 1.1387(3) 0.1765(2) 0.1689(5)
O4 O 1.05197(18) 0.45586(13) 0.4435(3)
C34 C 0.8563(2) 0.3346(2) 0.0711(5)
C35 C 0.8597(3) 0.3293(2) 0.1566(5)
C36 C 0.8219(4) 0.3388(3) 0.2075(3)
C37 C 0.7808(3) 0.3537(2) 0.1728(6)
C38 C 0.7775(2) 0.3590(2) 0.0873(6)
C39 C 0.8152(3) 0.3494(3) 0.0365(4)
O5 O 1.2610(7) 0.1232(5) 0.3080(11)
C40 C 0.7383(5) 0.3650(4) 0.2367(9)
C41 C 1.2635(5) 0.1418(4) 0.2380(9)
O6 O 1.2965(6) 0.1520(5) 0.1806(13)
O7 O 1.11895(17) 0.50068(14) -0.4439(3)
O8 O 0.7554(5) 0.3771(5) 0.3075(9)
O9 O 0.6990(5) 0.3546(5) 0.1984(9)
O1C O 1.02730(18) 0.03574(13) 0.3911(3)
O2C O 0.95005(18) 0.03835(13) 0.4251(3)
O2D O 1.04995(18) 0.53835(13) -0.5749(3)
O2G O 1.04995(18) -0.03835(13) 0.5749(3)
C1C C 0.9851(4) 0.0471(2) 0.3810(5)
C2C C 1.07048(18) 0.26270(10) -0.0924(3)
H1C H 1.0766 0.2847 -0.0588
C3C C 1.03193(15) 0.23849(14) -0.0762(2)
C4C C 1.02280(13) 0.20559(12) -0.1265(3)
H2C H 0.9970 0.1894 -0.1157
C5C C 1.05221(18) 0.19690(11) -0.1930(3)
C6C C 1.09076(16) 0.22111(14) -0.2092(2)
H3C H 1.1104 0.2153 -0.2537
C7C C 1.09989(14) 0.25401(13) -0.1589(3)
Cu1C Cu 1.04495(3) -0.00123(2) 0.47936(5)
Cu1D Cu 0.95505(3) 0.49877(2) -0.52064(5)
Cu1D_2 Cu 0.95505(3) 0.49877(2) 0.47936(5)
Cu1_2 Cu 1.04495(3) 0.50123(2) 0.52064(5)
Cu1G Cu 0.95505(3) 0.00123(2) -0.47936(5)
Cu1C_2 Cu 1.04495(3) -0.00123(2) -0.52064(5)
Cu1G_2 Cu 0.95505(3) 0.00123(2) 0.52064(5)
C8C C 1.0436(2) 0.16094(11) -0.2481(2)
C9C C 0.99759(17) 0.14896(14) -0.2618(3)
H4C H 0.9730 0.1629 -0.2372
C10C C 0.98830(14) 0.11620(15) -0.3124(3)
H5C H 0.9575 0.1082 -0.3216
C11C C 1.0250(2) 0.09542(11) -0.3493(2)
C12C C 1.07103(17) 0.10740(14) -0.3356(3)
H6C H 1.0956 0.0935 -0.3603
C13C C 1.08031(14) 0.14016(15) -0.2850(3)
H7C H 1.1111 0.1482 -0.2758
C14C C 1.0172(4) 0.0585(2) -0.4072(4)
C15C C 0.96709(15) 0.21288(11) 0.0206(3)
C16C C 0.97631(13) 0.18762(14) 0.0872(3)
H8C H 1.0024 0.1921 0.1206
C17C C 0.94651(17) 0.15572(12) 0.1040(2)
C18C C 0.90750(15) 0.14909(11) 0.0541(3)
H9C H 0.8876 0.1278 0.0653
C19C C 0.89829(14) 0.17435(15) -0.0126(3)
C20C C 0.92808(17) 0.20624(13) -0.0293(2)
H10C H 0.9219 0.2231 -0.0739
O3C O 0.97308(19) 0.04744(13) -0.4094(3)
O3D O 1.02692(19) 0.54744(13) -0.4094(3)
O3G O 1.02692(19) -0.04744(13) 0.4094(3)
C21C C 0.9556(2) 0.12820(12) 0.1771(2)
C22C C 1.00133(17) 0.11623(13) 0.1932(3)
H11C H 1.0257 0.1255 0.1600
C23C C 1.01064(15) 0.09045(14) 0.2590(3)
H12C H 1.0413 0.0824 0.2698
C24C C 0.9742(2) 0.07664(11) 0.3086(2)
C25C C 0.92842(17) 0.08861(14) 0.2925(3)
H13C H 0.9040 0.0794 0.3257
C26C C 0.91912(15) 0.11439(14) 0.2267(3)
H14C H 0.8885 0.1224 0.2159
C28C C 1.1428(2) 0.2823(2) -0.1788(4)
C29C C 1.1846(3) 0.26588(18) -0.2073(5)
C30C C 1.2223(2) 0.2906(3) -0.2259(5)
C31C C 1.2182(3) 0.3318(3) -0.2160(5)
C32C C 1.1765(4) 0.34821(17) -0.1875(6)
C33C C 1.1387(3) 0.3235(2) -0.1689(5)
O4C O 1.05197(18) 0.04414(13) -0.4435(3)
O4_2 O 1.05197(18) 0.45586(13) -0.5565(3)
O4C_2 O 1.05197(18) 0.04414(13) 0.5565(3)
C34C C 0.8563(2) 0.1654(2) -0.0711(5)
C35C C 0.8597(3) 0.1707(2) -0.1566(5)
C36C C 0.8219(4) 0.1612(3) -0.2075(3)
C37C C 0.7808(3) 0.1463(2) -0.1728(6)
C38C C 0.7775(2) 0.1410(2) -0.0873(6)
C39C C 0.8152(3) 0.1506(3) -0.0365(4)
O5C O 1.2610(7) 0.3768(5) -0.3080(11)
C40C C 0.7383(5) 0.1350(4) -0.2367(9)
C41C C 1.2635(5) 0.3582(4) -0.2380(9)
O6C O 1.2965(6) 0.3480(5) -0.1806(13)
O7C O 1.11895(17) -0.00068(14) 0.4439(3)
O8C O 0.7554(5) 0.1229(5) -0.3075(9)
O9C O 0.6990(5) 0.1454(5) -0.1984(9)
C42? C 1.1589(6) 0.2120(5) 0.2560(10)
C43? C 1.2006(7) 0.1914(6) 0.2793(12)
C44? C 1.2132(10) 0.1837(9) 0.1318(13)
C45? C 1.1705(7) 0.2062(6) 0.1083(10)
C46? C 0.8235(7) 0.3009(6) 0.0890(14)
C47? C 0.7873(7) 0.3128(6) 0.1480(13)
C48? C 0.8073(9) 0.3827(6) 0.1357(16)
C49? C 0.8344(7) 0.3727(6) 0.0658(12)
O10? O 1.2531(6) 0.1048(5) 0.2227(11)
O11? O 1.2991(5) 0.1597(4) 0.2649(9)
O12? O 0.7341(7) 0.3356(6) 0.2917(12)
O13? O 0.7070(6) 0.3884(6) 0.2075(10)
loop_
_geom_bond_atom_site_label_1
_geom_bond_atom_site_label_2
_geom_bond_site_symmetry_1
_geom_bond_site_symmetry_2
O1 C1 1_555 1_555
O2 C1 1_555 1_555
C1 C24 1_555 1_555
C2 H1 1_555 1_555
C3 C2 1_555 1_555
C4 C3 1_555 1_555
H2 C4 1_555 1_555
C5 C4 1_555 1_555
C6 C5 1_555 1_555
H3 C6 1_555 1_555
C7 C2 1_555 1_555
Cu1 O1 1_555 1_555
C8 C5 1_555 1_555
C9 C8 1_555 1_555
H4 C9 1_555 1_555
C10 C9 1_555 1_555
H5 C10 1_555 1_555
C11 C10 1_555 1_555
C12 C11 1_555 1_555
H6 C12 1_555 1_555
C13 C8 1_555 1_555
H7 C13 1_555 1_555
C14 C11 1_555 1_555
C15 C16 1_555 1_555
C16 H8 1_555 1_555
C17 C16 1_555 1_555
C18 C17 1_555 1_555
H9 C18 1_555 1_555
C19 C18 1_555 1_555
C20 C15 1_555 1_555
H10 C20 1_555 1_555
O3 C14 1_555 1_555
C21 C17 1_555 1_555
C22 C21 1_555 1_555
H11 C22 1_555 1_555
C23 C22 1_555 1_555
H12 C23 1_555 1_555
C24 C23 1_555 1_555
C25 C24 1_555 1_555
H13 C25 1_555 1_555
C26 C21 1_555 1_555
H14 C26 1_555 1_555
C27 C3 1_555 1_555
C28 C7 1_555 1_555
C29 C28 1_555 1_555
C30 C29 1_555 1_555
C31 C30 1_555 1_555
C32 C31 1_555 1_555
C33 C28 1_555 1_555
O4 C14 1_555 1_555
C34 C19 1_555 1_555
C35 C34 1_555 1_555
C36 C35 1_555 1_555
C37 C36 1_555 1_555
C38 C37 1_555 1_555
C39 C34 1_555 1_555
O5 C41 1_555 1_555
C40 C37 1_555 1_555
C41 C31 1_555 1_555
O6 C41 1_555 1_555
O7 Cu1 1_555 1_555
O8 C40 1_555 1_555
O9 C40 1_555 1_555
O1C C1C 1_555 1_555
O2C C1C 1_555 1_555
O2D Cu1 1_555 1_555
O2G Cu1C 1_555 1_555
C1C C24C 1_555 1_555
C2C H1C 1_555 1_555
C3C C27 1_555 1_555
C4C C3C 1_555 1_555
H2C C4C 1_555 1_555
C5C C4C 1_555 1_555
C6C C5C 1_555 1_555
H3C C6C 1_555 1_555
C7C C2C 1_555 1_555
Cu1C O1C 1_555 1_555
Cu1D O2 1_555 1_555
Cu1D_2 O3 1_555 1_555
Cu1_2 O4 1_555 1_555
Cu1G O3C 1_555 1_555
Cu1C_2 O4C 1_555 1_555
Cu1G_2 O2C 1_555 1_555
C8C C5C 1_555 1_555
C9C C8C 1_555 1_555
H4C C9C 1_555 1_555
C10C C9C 1_555 1_555
H5C C10C 1_555 1_555
C11C C10C 1_555 1_555
C12C C11C 1_555 1_555
H6C C12C 1_555 1_555
C13C C8C 1_555 1_555
H7C C13C 1_555 1_555
C14C C11C 1_555 1_555
C15C C27 1_555 1_555
C16C C15C 1_555 1_555
H8C C16C 1_555 1_555
C17C C16C 1_555 1_555
C18C C17C 1_555 1_555
H9C C18C 1_555 1_555
C19C C18C 1_555 1_555
C20C C15C 1_555 1_555
H10C C20C 1_555 1_555
O3C C14C 1_555 1_555
O3D Cu1 1_555 1_555
O3G Cu1C 1_555 1_555
C21C C17C 1_555 1_555
C22C C21C 1_555 1_555
H11C C22C 1_555 1_555
C23C C22C 1_555 1_555
H12C C23C 1_555 1_555
C24C C23C 1_555 1_555
C25C C24C 1_555 1_555
H13C C25C 1_555 1_555
C26C C21C 1_555 1_555
H14C C26C 1_555 1_555
C28C C7C 1_555 1_555
C29C C28C 1_555 1_555
C30C C29C 1_555 1_555
C31C C30C 1_555 1_555
C32C C31C 1_555 1_555
C33C C28C 1_555 1_555
O4C C14C 1_555 1_555
O4_2 Cu1 1_555 1_555
O4C_2 Cu1C 1_555 1_555
C34C C19C 1_555 1_555
C35C C34C 1_555 1_555
C36C C35C 1_555 1_555
C37C C36C 1_555 1_555
C38C C37C 1_555 1_555
C39C C34C 1_555 1_555
O5C C41C 1_555 1_555
C40C C37C 1_555 1_555
C41C C31C 1_555 1_555
O6C C41C 1_555 1_555
O7C Cu1C 1_555 1_555
O8C C40C 1_555 1_555
O9C C40C 1_555 1_555
C6 C7 1_555 1_555
C12 C13 1_555 1_555
C15 C27 1_555 1_555
C19 C20 1_555 1_555
C25 C26 1_555 1_555
C32 C33 1_555 1_555
C38 C39 1_555 1_555
C2C C3C 1_555 1_555
C6C C7C 1_555 1_555
C12C C13C 1_555 1_555
C19C C20C 1_555 1_555
C25C C26C 1_555 1_555
C32C C33C 1_555 1_555
C38C C39C 1_555 1_555

#END
