
#######################################################################
#
#                 Cambridge Crystallographic Data Centre
#                                CCDC 
#
#######################################################################
#
# If this CIF has been generated from an entry in the Cambridge 
# Structural Database, then it will include bibliographic, chemical, 
# crystal, experimental, refinement or atomic coordinate data resulting 
# from the CCDC's data processing and validation procedures.
#
#######################################################################

data_KAWTOT
_chemical_formula_moiety         '(C14 H10 Mg2 N2 O10)n'
_chemical_name_systematic        
catena-(bis(\m~4~-Pyridine-2,5-dicarboxylato)-diaqua-di-magnesium)
_symmetry_cell_setting           monoclinic
_symmetry_space_group_name_H-M   'P 21/c'
_symmetry_Int_Tables_number      14
_space_group_name_Hall           '-P 2ybc'
loop_
_symmetry_equiv_pos_site_id
_symmetry_equiv_pos_as_xyz
1 x,y,z
2 -x,1/2+y,1/2-z
3 -x,-y,-z
4 x,1/2-y,1/2+z
_cell_length_a                   8.7856(2)
_cell_length_b                   10.2316(2)
_cell_length_c                   8.55530(10)
_cell_angle_alpha                90
_cell_angle_beta                 97.1070(10)
_cell_angle_gamma                90
_cell_volume                     763.134
_exptl_crystal_colour            colorless
_exptl_crystal_description       block
_cell_formula_units_Z            2
loop_
_atom_site_label
_atom_site_type_symbol
_atom_site_fract_x
_atom_site_fract_y
_atom_site_fract_z
Mg1 Mg 0.86224(4) 0.56418(4) 0.20130(4)
O1 O 1.90143(10) 0.64683(9) 0.42707(10)
C1 C 1.21024(14) 0.55259(12) 0.14162(14)
O2 O 1.08814(11) 0.58329(11) 0.19094(12)
O3 O 1.22585(11) 0.50836(12) 0.00937(11)
C2 C 1.35640(13) 0.57803(12) 0.25038(14)
O4 O 0.89194(12) 0.37869(10) 0.29920(13)
C3 C 1.49652(13) 0.53487(12) 0.20916(13)
C4 C 1.35777(14) 0.65064(13) 0.38729(15)
N1 N 1.63161(11) 0.56896(10) 0.28682(11)
O5 O 1.79606(11) 0.75106(10) 0.61536(11)
C5 C 1.63144(13) 0.64393(12) 0.41566(13)
C6 C 1.49782(15) 0.68287(13) 0.47259(15)
C7 C 1.78864(13) 0.68513(12) 0.49286(14)
H1 H 1.5033 0.4810 0.1177
H2 H 1.2612 0.6782 0.4258
H3 H 1.5032 0.7289 0.5681
H4 H 0.9504 0.3761 0.3915
H5 H 0.9288 0.3126 0.2442
Mg1B Mg 1.13776(4) 0.43582(4) -0.20130(4)
Mg1_2 Mg 1.86224(4) 0.56418(4) 0.20130(4)
Mg1A Mg 0.13776(4) 0.06418(4) -0.70130(4)
Mg1B_2 Mg 0.13776(4) 0.43582(4) -0.20130(4)
Mg1C Mg 1.86224(4) 0.93582(4) 0.70130(4)
O1B O 0.09857(10) 0.35317(9) -0.42707(10)
O1_2 O 0.90143(10) 0.64683(9) 0.42707(10)
O1B_2 O 1.09857(10) 0.35317(9) -0.42707(10)
C1B C 0.78976(14) 0.44741(12) -0.14162(14)
O2B O 0.91186(11) 0.41671(11) -0.19094(12)
O3B O 0.77415(11) 0.49164(12) -0.00937(11)
C2B C 0.64360(13) 0.42197(12) -0.25038(14)
O4B O 1.10806(12) 0.62131(10) -0.29920(13)
C3B C 0.50348(13) 0.46513(12) -0.20916(13)
C4B C 0.64223(14) 0.34936(13) -0.38729(15)
N1B N 0.36839(11) 0.43104(10) -0.28682(11)
N1_2 N 0.63161(11) 0.56896(10) 0.28682(11)
N1B_2 N 1.36839(11) 0.43104(10) -0.28682(11)
O5B O 0.20394(11) 0.24894(10) -0.61536(11)
O5A O 1.20394(11) 0.25106(10) -0.11536(11)
O5C O 0.79606(11) 0.74894(10) 0.11536(11)
C5B C 0.36856(13) 0.35607(12) -0.41566(13)
C6B C 0.50218(15) 0.31713(13) -0.47259(15)
C7B C 0.21136(13) 0.31487(12) -0.49286(14)
H1B H 0.4967 0.5190 -0.1177
H2B H 0.7388 0.3218 -0.4258
H3B H 0.4968 0.2711 -0.5681
H4B H 1.0496 0.6239 -0.3915
H5B H 1.0712 0.6874 -0.2442
loop_
_geom_bond_atom_site_label_1
_geom_bond_atom_site_label_2
_geom_bond_site_symmetry_1
_geom_bond_site_symmetry_2
Mg1 O2 1_555 1_555
O1 C7 1_555 1_555
C1 O2 1_555 1_555
O3 C1 1_555 1_555
C2 C1 1_555 1_555
O4 Mg1 1_555 1_555
C3 C2 1_555 1_555
C4 C2 1_555 1_555
N1 C3 1_555 1_555
O5 C7 1_555 1_555
C5 N1 1_555 1_555
C6 C4 1_555 1_555
C7 C5 1_555 1_555
H1 C3 1_555 1_555
H2 C4 1_555 1_555
H3 C6 1_555 1_555
H4 O4 1_555 1_555
H5 O4 1_555 1_555
Mg1B O3 1_555 1_555
Mg1_2 O1 1_555 1_555
Mg1A O5B 1_555 1_555
Mg1B_2 O1B 1_555 1_555
Mg1C O5 1_555 1_555
O1B C7B 1_555 1_555
O1_2 Mg1 1_555 1_555
O1B_2 Mg1B 1_555 1_555
C1B O2B 1_555 1_555
O2B Mg1B 1_555 1_555
O3B Mg1 1_555 1_555
C2B C1B 1_555 1_555
O4B Mg1B 1_555 1_555
C3B C2B 1_555 1_555
C4B C2B 1_555 1_555
N1B Mg1B_2 1_555 1_555
N1_2 Mg1 1_555 1_555
N1B_2 Mg1B 1_555 1_555
O5B C7B 1_555 1_555
O5A Mg1B 1_555 1_555
O5C Mg1 1_555 1_555
C5B N1B 1_555 1_555
C6B C4B 1_555 1_555
C7B C5B 1_555 1_555
H1B C3B 1_555 1_555
H2B C4B 1_555 1_555
H3B C6B 1_555 1_555
H4B O4B 1_555 1_555
H5B O4B 1_555 1_555
N1 Mg1_2 1_555 1_555
C5 C6 1_555 1_555
C1B O3B 1_555 1_555
C3B N1B 1_555 1_555
C5B C6B 1_555 1_555

#END
