
#######################################################################
#
#                 Cambridge Crystallographic Data Centre
#                                CCDC 
#
#######################################################################
#
# If this CIF has been generated from an entry in the Cambridge 
# Structural Database, then it will include bibliographic, chemical, 
# crystal, experimental, refinement or atomic coordinate data resulting 
# from the CCDC's data processing and validation procedures.
#
#######################################################################

data_KANCOT
_chemical_formula_moiety         '(C32 H20 F2 N2 O9 Zn2)n'
_chemical_name_systematic        
catena-((\m~4~-Terephthalato)-(\m~2~-2,3-difluoro-1,4-bis(4-pyridyl)benzene-N,N')-(\m~2~-terephthalato)-aqua-di-zinc)
_symmetry_cell_setting           triclinic
_symmetry_space_group_name_H-M   'P -1'
_symmetry_Int_Tables_number      2
_space_group_name_Hall           '-P 1'
loop_
_symmetry_equiv_pos_site_id
_symmetry_equiv_pos_as_xyz
1 x,y,z
2 -x,-y,-z
_cell_length_a                   9.824(2)
_cell_length_b                   10.461(2)
_cell_length_c                   14.573(3)
_cell_angle_alpha                98.19(3)
_cell_angle_beta                 95.00(3)
_cell_angle_gamma                102.13(3)
_cell_volume                     1438.63
_exptl_crystal_colour            colorless
_exptl_crystal_description       block
_cell_formula_units_Z            2
loop_
_atom_site_label
_atom_site_type_symbol
_atom_site_fract_x
_atom_site_fract_y
_atom_site_fract_z
Zn1 Zn -0.45373(8) -0.26599(7) 0.61120(5)
Zn2 Zn -0.45353(8) -0.22723(7) 0.85335(6)
O1 O -0.6542(5) -0.3163(4) 0.6091(3)
O2 O -0.7123(5) -0.1440(5) 0.5521(4)
O3 O -1.2544(5) -0.1807(4) 0.8390(4)
O4 O -1.1857(6) -0.3489(5) 0.8952(3)
O5 O -0.3884(5) -0.0796(4) 0.6688(3)
O6 O -0.4925(5) -0.0710(4) 0.8000(3)
O7 O -0.3981(5) 0.5839(4) 0.6615(3)
O8 O -0.5105(5) 0.5862(4) 0.7897(3)
N1 N -0.3427(6) -0.2638(5) 0.5018(4)
N2 N 0.3816(6) -0.2359(5) -0.0685(4)
F1 F -0.2032(4) -0.0984(4) 0.1991(3)
F2 F -0.0439(4) -0.0952(4) 0.0652(3)
C1 C -0.8499(7) -0.2446(6) 0.6599(5)
C2 C -0.8486(7) -0.3126(6) 0.7350(5)
H1 H -0.7769 -0.3562 0.7456
C3 C -0.9516(7) -0.3172(6) 0.7948(5)
H2 H -0.9482 -0.3633 0.8447
C4 C -1.0603(7) -0.2526(6) 0.7798(5)
C5 C -1.0640(7) -0.1846(6) 0.7045(5)
H3 H -1.1357 -0.1408 0.6943
C6 C -0.9617(7) -0.1817(6) 0.6444(5)
H4 H -0.9667 -0.1378 0.5935
C7 C -0.7319(7) -0.2311(6) 0.6015(5)
C8 C -1.1744(7) -0.2635(6) 0.8435(5)
C9 C -0.4328(7) 0.1270(6) 0.7354(5)
C10 C -0.4845(7) 0.1997(6) 0.8071(5)
H5 H -0.5163 0.1600 0.8568
C11 C -0.4883(7) 0.3289(6) 0.8043(4)
H6 H -0.5229 0.3768 0.8521
C12 C -0.4403(7) 0.3897(6) 0.7295(4)
C13 C -0.3856(7) 0.3193(6) 0.6592(4)
H7 H -0.3504 0.3607 0.6110
C14 C -0.3832(7) 0.1871(6) 0.6607(5)
H8 H -0.3492 0.1390 0.6128
C15 C -0.4385(7) -0.0176(6) 0.7347(5)
C16 C -0.4490(6) 0.5308(6) 0.7273(4)
C17 C -0.3109(7) -0.1524(6) 0.4625(5)
H9 H -0.3418 -0.0780 0.4871
C18 C -0.2344(7) -0.1453(6) 0.3872(5)
H10 H -0.2147 -0.0676 0.3620
C19 C -0.1869(7) -0.2560(6) 0.3495(5)
C20 C -0.2206(7) -0.3697(6) 0.3903(4)
H11 H -0.1914 -0.4456 0.3669
C21 C -0.2972(7) -0.3695(6) 0.4654(5)
H12 H -0.3181 -0.4462 0.4917
C22 C -0.1003(7) -0.2543(6) 0.2698(4)
C23 C -0.1090(7) -0.1748(6) 0.2012(4)
C24 C -0.0247(7) -0.1744(6) 0.1295(4)
C25 C 0.0730(7) -0.2526(6) 0.1224(4)
C26 C 0.0810(7) -0.3348(6) 0.1897(4)
H13 H 0.1428 -0.3911 0.1860
C27 C -0.0032(7) -0.3331(6) 0.2625(4)
H14 H 0.0064 -0.3866 0.3073
C28 C 0.1709(7) -0.2481(6) 0.0491(4)
C29 C 0.2291(7) -0.1285(6) 0.0182(5)
H15 H 0.1980 -0.0520 0.0370
C30 C 0.3321(7) -0.1268(6) -0.0397(5)
H16 H 0.3695 -0.0480 -0.0600
C31 C 0.3272(7) -0.3486(7) -0.0392(5)
H17 H 0.3611 -0.4233 -0.0586
C32 C 0.2228(7) -0.3594(6) 0.0188(4)
H18 H 0.1874 -0.4400 0.0375
O9 O -0.3579(9) -0.2823(9) 0.9930(6)
Zn1_2 Zn -0.45373(8) 0.73401(7) 0.61120(5)
Zn2_2 Zn -1.45353(8) -0.22723(7) 0.85335(6)
Zn2_3 Zn -0.45353(8) 0.77277(7) 0.85335(6)
Zn2_4 Zn 0.54647(8) -0.22723(7) -0.14665(6)
O3_2 O -0.2544(5) -0.1807(4) 0.8390(4)
O7_2 O -0.3981(5) -0.4161(4) 0.6615(3)
O8_2 O -0.5105(5) -0.4138(4) 0.7897(3)
N2_2 N -0.6184(6) -0.2359(5) 0.9315(4)
loop_
_geom_bond_atom_site_label_1
_geom_bond_atom_site_label_2
_geom_bond_site_symmetry_1
_geom_bond_site_symmetry_2
Zn1 O1 1_555 1_555
Zn2 O6 1_555 1_555
O1 C7 1_555 1_555
O2 C7 1_555 1_555
O3 C8 1_555 1_555
O4 C8 1_555 1_555
O5 Zn1 1_555 1_555
O6 C15 1_555 1_555
O7 C16 1_555 1_555
O8 C16 1_555 1_555
N1 Zn1 1_555 1_555
N2 C30 1_555 1_555
F1 C23 1_555 1_555
F2 C24 1_555 1_555
C1 C2 1_555 1_555
C2 H1 1_555 1_555
C3 C2 1_555 1_555
H2 C3 1_555 1_555
C4 C3 1_555 1_555
C5 C4 1_555 1_555
H3 C5 1_555 1_555
C6 C1 1_555 1_555
H4 C6 1_555 1_555
C7 C1 1_555 1_555
C8 C4 1_555 1_555
C9 C10 1_555 1_555
C10 H5 1_555 1_555
C11 C10 1_555 1_555
H6 C11 1_555 1_555
C12 C11 1_555 1_555
C13 C12 1_555 1_555
H7 C13 1_555 1_555
C14 C9 1_555 1_555
H8 C14 1_555 1_555
C15 O5 1_555 1_555
C16 C12 1_555 1_555
C17 N1 1_555 1_555
H9 C17 1_555 1_555
C18 C17 1_555 1_555
H10 C18 1_555 1_555
C19 C18 1_555 1_555
C20 C19 1_555 1_555
H11 C20 1_555 1_555
C21 N1 1_555 1_555
H12 C21 1_555 1_555
C22 C19 1_555 1_555
C23 C22 1_555 1_555
C24 C23 1_555 1_555
C25 C24 1_555 1_555
C26 C25 1_555 1_555
H13 C26 1_555 1_555
C27 C22 1_555 1_555
H14 C27 1_555 1_555
C28 C25 1_555 1_555
C29 C28 1_555 1_555
H15 C29 1_555 1_555
C30 C29 1_555 1_555
H16 C30 1_555 1_555
C31 N2 1_555 1_555
H17 C31 1_555 1_555
C32 C28 1_555 1_555
H18 C32 1_555 1_555
O9 Zn2 1_555 1_555
Zn1_2 O7 1_555 1_555
Zn2_2 O3 1_555 1_555
Zn2_3 O8 1_555 1_555
Zn2_4 N2 1_555 1_555
O3_2 Zn2 1_555 1_555
O7_2 Zn1 1_555 1_555
O8_2 Zn2 1_555 1_555
N2_2 Zn2 1_555 1_555
C5 C6 1_555 1_555
C9 C15 1_555 1_555
C13 C14 1_555 1_555
C20 C21 1_555 1_555
C26 C27 1_555 1_555
C31 C32 1_555 1_555

#END
