
#######################################################################
#
#                 Cambridge Crystallographic Data Centre
#                                CCDC 
#
#######################################################################
#
# If this CIF has been generated from an entry in the Cambridge 
# Structural Database, then it will include bibliographic, chemical, 
# crystal, experimental, refinement or atomic coordinate data resulting 
# from the CCDC's data processing and validation procedures.
#
#######################################################################

data_HINVAD
_chemical_formula_moiety         '(C30 H30 Fe1 N24 2+)n,2n(Cl1 O4 1-)'
_chemical_name_systematic        
"catena-[tris(\m~2~-1,1'-(1,4-phenylenebis(methylene))bis(1H-tetrazole))-iron diperchlorate]"
_symmetry_cell_setting           hexagonal
_symmetry_space_group_name_H-M   'P 63/m'
_symmetry_Int_Tables_number      176
_space_group_name_Hall           '-P 6c'
loop_
_symmetry_equiv_pos_site_id
_symmetry_equiv_pos_as_xyz
1 x,y,z
2 -y,x-y,z
3 -x+y,-x,z
4 -x,-y,1/2+z
5 y,-x+y,1/2+z
6 x-y,x,1/2+z
7 -x,-y,-z
8 y,-x+y,-z
9 x-y,x,-z
10 x,y,1/2-z
11 -y,x-y,1/2-z
12 -x+y,-x,1/2-z
_cell_length_a                   10.3668(4)
_cell_length_b                   10.3668(4)
_cell_length_c                   23.1504(17)
_cell_angle_alpha                90
_cell_angle_beta                 90
_cell_angle_gamma                120
_cell_volume                     2154.66
_exptl_crystal_colour            pink
_exptl_crystal_description       block
_cell_formula_units_Z            2
loop_
_atom_site_label
_atom_site_type_symbol
_atom_site_fract_x
_atom_site_fract_y
_atom_site_fract_z
_atom_site_U_iso_or_equiv
_atom_site_thermal_displace_type
Fe1 Fe 1.0000 1.0000 0.5000 0.0151 Uani
N1 N 0.8258(5) 0.9580(5) 0.54963(16) 0.0186 Uani
C1 C 0.7613(6) 1.0385(6) 0.5590(2) 0.0209 Uani
H1 H 0.7844 1.1283 0.5395 0.0250 Uiso
N2 N 0.6594(4) 0.9739(5) 0.59977(17) 0.0210 Uani
N3 N 0.6568(5) 0.8463(5) 0.61711(19) 0.0321 Uani
N4 N 0.7581(5) 0.8383(5) 0.5861(2) 0.0294 Uani
C2 C 0.5540(6) 1.0156(6) 0.6242(2) 0.0260 Uani
H2 H 0.4522 0.9442 0.6105 0.0390 Uiso
H3 H 0.5800 1.1158 0.6100 0.0390 Uiso
C3 C 0.5557(6) 1.0165(6) 0.6896(2) 0.0206 Uani
C4 C 0.6823(7) 1.1181(6) 0.7199(2) 0.0344 Uani
H4 H 0.7689 1.1876 0.6995 0.0410 Uiso
C5 C 0.4316(6) 0.9172(6) 0.7198(2) 0.0271 Uani
H5 H 0.3448 0.8476 0.6995 0.0330 Uiso
N1I N 0.8258(5) 0.9580(5) 0.95037(16) 0.0186 Uani
C1I C 0.7613(6) 1.0385(6) 0.9410(2) 0.0209 Uani
H1I H 0.7844 1.1283 0.9605 0.0250 Uiso
N2I N 0.6594(4) 0.9739(5) 0.90023(17) 0.0210 Uani
N3I N 0.6568(5) 0.8463(5) 0.88289(19) 0.0321 Uani
N4I N 0.7581(5) 0.8383(5) 0.9139(2) 0.0294 Uani
C2I C 0.5540(6) 1.0156(6) 0.8758(2) 0.0260 Uani
H2I H 0.4522 0.9442 0.8895 0.0390 Uiso
H3I H 0.5800 1.1158 0.8900 0.0390 Uiso
C3I C 0.5557(6) 1.0165(6) 0.8104(2) 0.0206 Uani
C4I C 0.6823(7) 1.1181(6) 0.7801(2) 0.0344 Uani
H4I H 0.7689 1.1876 0.8005 0.0410 Uiso
C5I C 0.4316(6) 0.9172(6) 0.7802(2) 0.0271 Uani
H5I H 0.3448 0.8476 0.8005 0.0330 Uiso
N1A N 1.0420(5) 0.8678(7) 0.54963(16) 0.0186 Uani
C1A C 0.9615(6) 0.7228(8) 0.5590(2) 0.0209 Uani
H1A H 0.8717 0.6561 0.5395 0.0250 Uiso
N2A N 1.0261(5) 0.6855(6) 0.59977(17) 0.0210 Uani
N3A N 1.1537(5) 0.8105(7) 0.61711(19) 0.0321 Uani
N4A N 1.1617(5) 0.9198(7) 0.5861(2) 0.0294 Uani
C2A C 0.9844(6) 0.5384(8) 0.6242(2) 0.0260 Uani
H2A H 1.0558 0.5080 0.6105 0.0390 Uiso
H3A H 0.8842 0.4642 0.6100 0.0390 Uiso
C3A C 0.9835(6) 0.5392(8) 0.6896(2) 0.0206 Uani
C4A C 0.8819(6) 0.5642(9) 0.7199(2) 0.0344 Uani
H4A H 0.8124 0.5813 0.6995 0.0410 Uiso
C5A C 1.0828(6) 0.5144(8) 0.7198(2) 0.0271 Uani
H5A H 1.1524 0.4972 0.6995 0.0330 Uiso
N1J N 1.0420(5) 0.8678(7) 0.95037(16) 0.0186 Uani
C1J C 0.9615(6) 0.7228(8) 0.9410(2) 0.0209 Uani
H1J H 0.8717 0.6561 0.9605 0.0250 Uiso
N2J N 1.0261(5) 0.6855(6) 0.90023(17) 0.0210 Uani
N3J N 1.1537(5) 0.8105(7) 0.88289(19) 0.0321 Uani
N4J N 1.1617(5) 0.9198(7) 0.9139(2) 0.0294 Uani
C2J C 0.9844(6) 0.5384(8) 0.8758(2) 0.0260 Uani
H2J H 1.0558 0.5080 0.8895 0.0390 Uiso
H3J H 0.8842 0.4642 0.8900 0.0390 Uiso
C3J C 0.9835(6) 0.5392(8) 0.8104(2) 0.0206 Uani
C4J C 0.8819(6) 0.5642(9) 0.7801(2) 0.0344 Uani
H4J H 0.8124 0.5813 0.8005 0.0410 Uiso
C5J C 1.0828(6) 0.5144(8) 0.7802(2) 0.0271 Uani
H5J H 1.1524 0.4972 0.8005 0.0330 Uiso
N1B N 1.1322(7) 1.1742(5) 0.54963(16) 0.0186 Uani
C1B C 1.2772(8) 1.2387(6) 0.5590(2) 0.0209 Uani
H1B H 1.3439 1.2156 0.5395 0.0250 Uiso
N2B N 1.3145(6) 1.3406(4) 0.59977(17) 0.0210 Uani
N3B N 1.1895(7) 1.3432(5) 0.61711(19) 0.0321 Uani
N4B N 1.0802(7) 1.2419(5) 0.5861(2) 0.0294 Uani
C2B C 1.4616(8) 1.4460(6) 0.6242(2) 0.0260 Uani
H2B H 1.4920 1.5478 0.6105 0.0390 Uiso
H3B H 1.5358 1.4200 0.6100 0.0390 Uiso
C3B C 1.4608(8) 1.4443(6) 0.6896(2) 0.0206 Uani
C4B C 1.4358(9) 1.3177(7) 0.7199(2) 0.0344 Uani
H4B H 1.4187 1.2311 0.6995 0.0410 Uiso
C5B C 1.4856(8) 1.5684(6) 0.7198(2) 0.0271 Uani
H5B H 1.5028 1.6552 0.6995 0.0330 Uiso
N1K N 1.1322(7) 1.1742(5) 0.95037(16) 0.0186 Uani
C1K C 1.2772(8) 1.2387(6) 0.9410(2) 0.0209 Uani
H1K H 1.3439 1.2156 0.9605 0.0250 Uiso
N2K N 1.3145(6) 1.3406(4) 0.90023(17) 0.0210 Uani
N3K N 1.1895(7) 1.3432(5) 0.88289(19) 0.0321 Uani
N4K N 1.0802(7) 1.2419(5) 0.9139(2) 0.0294 Uani
C2K C 1.4616(8) 1.4460(6) 0.8758(2) 0.0260 Uani
H2K H 1.4920 1.5478 0.8895 0.0390 Uiso
H3K H 1.5358 1.4200 0.8900 0.0390 Uiso
C3K C 1.4608(8) 1.4443(6) 0.8104(2) 0.0206 Uani
C4K C 1.4358(9) 1.3177(7) 0.7801(2) 0.0344 Uani
H4K H 1.4187 1.2311 0.8005 0.0410 Uiso
C5K C 1.4856(8) 1.5684(6) 0.7802(2) 0.0271 Uani
H5K H 1.5028 1.6552 0.8005 0.0330 Uiso
Fe1C Fe 1.0000 1.0000 1.0000 0.0151 Uani
N1F N 1.1742(5) 1.0420(5) 0.45037(16) 0.0186 Uani
N1G N 0.9580(5) 1.1322(7) 0.45037(16) 0.0186 Uani
N1H N 0.8678(7) 0.8258(5) 0.45037(16) 0.0186 Uani
O1 O 0.8054(5) 0.3496(5) 0.50855(19) 0.0304 Uiso
Cl1 Cl 0.6667 0.3333 0.48744(13) 0.0204 Uiso
O2 O 0.6667 0.3333 0.4251(3) 0.0320 Uiso
O1A O 0.6504(5) 0.4558(7) 0.50855(19) 0.0304 Uiso
O1B O 0.5442(7) 0.1946(5) 0.50855(19) 0.0304 Uiso
O3? O 0.818(6) 0.359(6) 0.488(3) 0.0100 Uiso
Cl2? Cl 0.6667 0.3333 0.520(3) 0.0400 Uiso
O4? O 0.6667 0.3333 0.579(3) 0.0100 Uiso
loop_
_atom_site_aniso_label
_atom_site_aniso_U_11
_atom_site_aniso_U_22
_atom_site_aniso_U_33
_atom_site_aniso_U_23
_atom_site_aniso_U_13
_atom_site_aniso_U_12
Fe1 0.0156(7) 0.0156(7) 0.0141(9) 0.000 0.000 0.0078(3)
N1 0.021(3) 0.016(2) 0.017(2) -0.0005(18) -0.0014(19) 0.008(2)
C1 0.020(3) 0.019(3) 0.020(3) 0.004(2) -0.004(2) 0.007(3)
N2 0.022(3) 0.029(3) 0.015(2) 0.0060(19) 0.0045(19) 0.015(2)
N3 0.037(3) 0.029(3) 0.031(3) 0.011(2) 0.008(2) 0.017(2)
N4 0.031(3) 0.027(3) 0.035(3) 0.008(2) 0.011(2) 0.018(2)
C2 0.031(3) 0.038(4) 0.018(3) 0.000(2) 0.003(2) 0.024(3)
C3 0.025(3) 0.025(3) 0.015(3) -0.002(2) -0.001(2) 0.015(3)
C4 0.030(4) 0.030(3) 0.030(3) 0.007(3) 0.006(3) 0.005(3)
C5 0.020(3) 0.036(3) 0.020(3) -0.005(3) -0.002(2) 0.010(3)
N1I 0.021 0.016 0.017 0.0005 0.0014 0.008
C1I 0.02 0.019 0.02 -0.004 0.004 0.007
N2I 0.022 0.029 0.015 -0.006 -0.0045 0.015
N3I 0.037 0.029 0.031 -0.011 -0.008 0.017
N4I 0.031 0.027 0.035 -0.008 -0.011 0.018
C2I 0.031 0.038 0.018 0 -0.003 0.024
C3I 0.025 0.025 0.015 0.002 0.001 0.015
C4I 0.03 0.03 0.03 -0.007 -0.006 0.005
C5I 0.02 0.036 0.02 0.005 0.002 0.01
N1A 0.016 0.021 0.017 -0.0009 0.0005 0.008
C1A 0.019 0.025 0.02 -0.008 -0.004 0.012
N2A 0.029 0.021 0.015 -0.0015 -0.006 0.014
N3A 0.029 0.032 0.031 -0.003 -0.011 0.012
N4A 0.027 0.022 0.035 0.003 -0.008 0.009
C2A 0.038 0.021 0.018 0.003 0 0.014
C3A 0.025 0.02 0.015 0.001 0.002 0.01
C4A 0.03 0.05 0.03 -0.001 -0.007 0.025
C5A 0.036 0.036 0.02 0.003 0.005 0.026
N1J 0.016 0.021 0.017 0.0009 -0.0005 0.008
C1J 0.019 0.025 0.02 0.008 0.004 0.012
N2J 0.029 0.021 0.015 0.0015 0.006 0.014
N3J 0.029 0.032 0.031 0.003 0.011 0.012
N4J 0.027 0.022 0.035 -0.003 0.008 0.009
C2J 0.038 0.021 0.018 -0.003 0 0.014
C3J 0.025 0.02 0.015 -0.001 -0.002 0.01
C4J 0.03 0.05 0.03 0.001 0.007 0.025
C5J 0.036 0.036 0.02 -0.003 -0.005 0.026
N1B 0.021 0.021 0.017 0.0014 0.0009 0.013
C1B 0.025 0.02 0.02 0.004 0.008 0.013
N2B 0.021 0.022 0.015 -0.0045 0.0015 0.007
N3B 0.032 0.037 0.031 -0.008 0.003 0.02
N4B 0.022 0.031 0.035 -0.011 -0.003 0.013
C2B 0.021 0.031 0.018 -0.003 -0.003 0.007
C3B 0.02 0.025 0.015 0.001 -0.001 0.01
C4B 0.05 0.03 0.03 -0.006 0.001 0.025
C5B 0.036 0.02 0.02 0.002 -0.003 0.01
N1K 0.021 0.021 0.017 -0.0014 -0.0009 0.013
C1K 0.025 0.02 0.02 -0.004 -0.008 0.013
N2K 0.021 0.022 0.015 0.0045 -0.0015 0.007
N3K 0.032 0.037 0.031 0.008 -0.003 0.02
N4K 0.022 0.031 0.035 0.011 0.003 0.013
C2K 0.021 0.031 0.018 0.003 0.003 0.007
C3K 0.02 0.025 0.015 -0.001 0.001 0.01
C4K 0.05 0.03 0.03 0.006 -0.001 0.025
C5K 0.036 0.02 0.02 -0.002 0.003 0.01
Fe1C 0.0156 0.0156 0.0141 0 0 0.0078
N1F 0.021 0.016 0.017 -0.0005 -0.0014 0.008
N1G 0.016 0.021 0.017 -0.0009 0.0005 0.008
N1H 0.021 0.021 0.017 0.0014 0.0009 0.013
loop_
_geom_bond_atom_site_label_1
_geom_bond_atom_site_label_2
_geom_bond_site_symmetry_1
_geom_bond_site_symmetry_2
Fe1 N1 1_555 1_555
N1 C1 1_555 1_555
C1 H1 1_555 1_555
N2 C1 1_555 1_555
N3 N2 1_555 1_555
N4 N1 1_555 1_555
C2 N2 1_555 1_555
H2 C2 1_555 1_555
H3 C2 1_555 1_555
C3 C2 1_555 1_555
C4 C3 1_555 1_555
H4 C4 1_555 1_555
C5 C3 1_555 1_555
H5 C5 1_555 1_555
O1 Cl1 1_555 1_555
Cl1 O2 1_555 1_555
N1I C1I 1_555 1_555
C1I H1I 1_555 1_555
N2I C1I 1_555 1_555
N3I N2I 1_555 1_555
N4I N1I 1_555 1_555
C2I N2I 1_555 1_555
H2I C2I 1_555 1_555
H3I C2I 1_555 1_555
C3I C2I 1_555 1_555
C4I C4 1_555 1_555
H4I C4I 1_555 1_555
C5I C5 1_555 1_555
H5I C5I 1_555 1_555
N1A Fe1 1_555 1_555
C1A N1A 1_555 1_555
H1A C1A 1_555 1_555
N2A C1A 1_555 1_555
N3A N2A 1_555 1_555
N4A N1A 1_555 1_555
C2A N2A 1_555 1_555
H2A C2A 1_555 1_555
H3A C2A 1_555 1_555
C3A C2A 1_555 1_555
C4A C3A 1_555 1_555
H4A C4A 1_555 1_555
C5A C3A 1_555 1_555
H5A C5A 1_555 1_555
N1J C1J 1_555 1_555
C1J H1J 1_555 1_555
N2J C1J 1_555 1_555
N3J N2J 1_555 1_555
N4J N1J 1_555 1_555
C2J N2J 1_555 1_555
H2J C2J 1_555 1_555
H3J C2J 1_555 1_555
C3J C2J 1_555 1_555
C4J C4A 1_555 1_555
H4J C4J 1_555 1_555
C5J C5A 1_555 1_555
H5J C5J 1_555 1_555
N1B Fe1 1_555 1_555
C1B N1B 1_555 1_555
H1B C1B 1_555 1_555
N2B C1B 1_555 1_555
N3B N2B 1_555 1_555
N4B N1B 1_555 1_555
C2B N2B 1_555 1_555
H2B C2B 1_555 1_555
H3B C2B 1_555 1_555
C3B C2B 1_555 1_555
C4B C3B 1_555 1_555
H4B C4B 1_555 1_555
C5B C3B 1_555 1_555
H5B C5B 1_555 1_555
N1K C1K 1_555 1_555
C1K H1K 1_555 1_555
N2K C1K 1_555 1_555
N3K N2K 1_555 1_555
N4K N1K 1_555 1_555
C2K N2K 1_555 1_555
H2K C2K 1_555 1_555
H3K C2K 1_555 1_555
C3K C2K 1_555 1_555
C4K C4B 1_555 1_555
H4K C4K 1_555 1_555
C5K C5B 1_555 1_555
H5K C5K 1_555 1_555
Fe1C N1I 1_555 1_555
N1F Fe1 1_555 1_555
N1G Fe1 1_555 1_555
N1H Fe1 1_555 1_555
O1A Cl1 1_555 1_555
O1B Cl1 1_555 1_555
N3 N4 1_555 1_555
N3I N4I 1_555 1_555
C3I C4I 1_555 1_555
C3I C5I 1_555 1_555
N3A N4A 1_555 1_555
N1J Fe1C 1_555 1_555
N3J N4J 1_555 1_555
C3J C4J 1_555 1_555
C3J C5J 1_555 1_555
N3B N4B 1_555 1_555
N1K Fe1C 1_555 1_555
N3K N4K 1_555 1_555
C3K C4K 1_555 1_555
C3K C5K 1_555 1_555

#END
