
#######################################################################
#
#                 Cambridge Crystallographic Data Centre
#                                CCDC 
#
#######################################################################
#
# If this CIF has been generated from an entry in the Cambridge 
# Structural Database, then it will include bibliographic, chemical, 
# crystal, experimental, refinement or atomic coordinate data resulting 
# from the CCDC's data processing and validation procedures.
#
#######################################################################

data_TATPOV
_chemical_formula_moiety         '(C38 H22 O20 Zn4)n,2n(C4 H9 N1 O1)'
_chemical_name_systematic        
'catena-((\m~14~-1,2,4,5-tetrakis(5-isophthalyl)benzene)-tetra-aqua-tetra-zinc N,N-dimethylacetamide solvate)'
_symmetry_cell_setting           orthorhombic
_symmetry_space_group_name_H-M   'P n m a'
_symmetry_Int_Tables_number      62
_space_group_name_Hall           '-P 2ac 2n'
loop_
_symmetry_equiv_pos_site_id
_symmetry_equiv_pos_as_xyz
1 x,y,z
2 1/2-x,-y,1/2+z
3 -x,1/2+y,-z
4 1/2+x,1/2-y,1/2-z
5 -x,-y,-z
6 1/2+x,y,1/2-z
7 x,1/2-y,z
8 1/2-x,1/2+y,1/2+z
_cell_length_a                   25.9507(4)
_cell_length_b                   25.7680(4)
_cell_length_c                   10.5236(2)
_cell_angle_alpha                90
_cell_angle_beta                 90
_cell_angle_gamma                90
_cell_volume                     7037.11
_cell_formula_units_Z            4
loop_
_atom_site_label
_atom_site_type_symbol
_atom_site_fract_x
_atom_site_fract_y
_atom_site_fract_z
Zn1 Zn 0.868518(16) 0.578475(17) 0.56216(4)
Zn2 Zn 0.888770(16) 0.496110(15) -0.20121(4)
O1 O 0.86278(11) 0.43151(12) -0.0491(3)
O2 O 0.93601(10) 0.47297(10) -0.0640(2)
O3 O 0.87015(9) 0.45007(9) 0.6576(2)
O4 O 0.82296(9) 0.51454(9) 0.5737(2)
O5 O 1.06347(10) 0.45648(10) 0.2941(2)
O6 O 1.06551(9) 0.38190(10) 0.3927(2)
O7 O 0.66474(9) 0.45747(10) 0.3601(2)
O8 O 0.67104(9) 0.39293(8) 0.2176(2)
C1 C 0.83739(13) 0.46757(13) 0.5812(4)
C2 C 0.81159(13) 0.42956(12) 0.4945(3)
C3 C 0.83549(13) 0.38305(13) 0.4648(3)
H1 H 0.8685 0.3755 0.4992
C4 C 0.81145(12) 0.34718(12) 0.3848(3)
C5 C 0.76280(12) 0.35880(12) 0.3358(3)
H2 H 0.7460 0.3347 0.2814
C6 C 0.76355(13) 0.44088(13) 0.4427(3)
H3 H 0.7477 0.4733 0.4603
C7 C 0.90649(15) 0.44098(14) -0.0097(4)
C8 C 0.92600(13) 0.41401(13) 0.1088(3)
C9 C 0.97271(13) 0.42775(13) 0.1612(3)
H4 H 0.9914 0.4565 0.1284
C10 C 0.89711(13) 0.37405(13) 0.1618(3)
H5 H 0.8637 0.3667 0.1292
C11 C 1.04352(13) 0.41314(13) 0.3182(3)
C12 C 0.99244(12) 0.39905(12) 0.2633(3)
C13 C 0.96469(12) 0.35795(12) 0.3123(3)
H6 H 0.9785 0.3385 0.3810
C14 C 0.91652(12) 0.34447(12) 0.2624(3)
C15 C 0.88911(12) 0.29717(12) 0.3053(3)
C16 C 0.83826(12) 0.29736(12) 0.3534(3)
C17 C 0.81393(17) 0.2500 0.3752(4)
H7 H 0.7795 0.2500 0.4060
C18 C 0.91343(18) 0.2500 0.2846(4)
H8 H 0.9480 0.2500 0.2552
C19 C 0.73886(12) 0.40536(13) 0.3661(3)
O9 O 0.83679(13) 0.62487(14) 0.4344(3)
C20 C 0.68737(13) 0.41983(13) 0.3104(3)
O11 O 0.90750(13) 0.53542(13) 0.4209(3)
Zn1F Zn 0.868518(16) -0.078475(17) 0.56216(4)
Zn1D Zn 1.131482(16) 0.421525(17) 0.43784(4)
Zn1A Zn 0.631482(16) 0.421525(17) 0.06216(4)
Zn1G Zn 0.631482(16) 0.078475(17) 0.06216(4)
Zn1B Zn 1.131482(16) 0.078475(17) 0.43784(4)
Zn2F Zn 0.888770(16) 0.003890(15) -0.20121(4)
Zn2_2 Zn 0.888770(16) 0.496110(15) 0.79879(4)
Zn2D Zn 1.111230(16) 0.503890(15) 0.20121(4)
Zn2A Zn 0.611230(16) 0.503890(15) 0.29879(4)
Zn2F_2 Zn 0.888770(16) 0.003890(15) 0.79879(4)
Zn2G Zn 0.611230(16) -0.003890(15) 0.29879(4)
Zn2B Zn 1.111230(16) -0.003890(15) 0.20121(4)
O1F O 0.86278(11) 0.06849(12) -0.0491(3)
O2F O 0.93601(10) 0.02703(10) -0.0640(2)
O3F O 0.87015(9) 0.04993(9) 0.6576(2)
O3_2 O 0.87015(9) 0.45007(9) -0.3424(2)
O3F_2 O 0.87015(9) 0.04993(9) -0.3424(2)
O4F O 0.82296(9) -0.01454(9) 0.5737(2)
O5F O 1.06347(10) 0.04352(10) 0.2941(2)
O5D O 0.93653(10) 0.54352(10) -0.2941(2)
O5B O 0.93653(10) -0.04352(10) -0.2941(2)
O6F O 1.06551(9) 0.11810(10) 0.3927(2)
O6D O 0.93449(9) 0.61810(10) 0.6073(2)
O6B O 0.93449(9) -0.11810(10) 0.6073(2)
O7F O 0.66474(9) 0.04253(10) 0.3601(2)
O7A O 0.83526(9) 0.54253(10) -0.1399(2)
O7G O 0.83526(9) -0.04253(10) -0.1399(2)
O8F O 0.67104(9) 0.10707(8) 0.2176(2)
O8A O 0.82896(9) 0.60707(8) 0.7176(2)
O8G O 0.82896(9) -0.10707(8) 0.7176(2)
C1F C 0.83739(13) 0.03243(13) 0.5812(4)
C2F C 0.81159(13) 0.07044(12) 0.4945(3)
C3F C 0.83549(13) 0.11695(13) 0.4648(3)
H1F H 0.8685 0.1245 0.4992
C4F C 0.81145(12) 0.15282(12) 0.3848(3)
C5F C 0.76280(12) 0.14120(12) 0.3358(3)
H2F H 0.7460 0.1653 0.2814
C6F C 0.76355(13) 0.05912(13) 0.4427(3)
H3F H 0.7477 0.0267 0.4603
C7F C 0.90649(15) 0.05902(14) -0.0097(4)
C8F C 0.92600(13) 0.08599(13) 0.1088(3)
C9F C 0.97271(13) 0.07225(13) 0.1612(3)
H4F H 0.9914 0.0435 0.1284
C10F C 0.89711(13) 0.12595(13) 0.1618(3)
H5F H 0.8637 0.1333 0.1292
C11F C 1.04352(13) 0.08686(13) 0.3182(3)
C12F C 0.99244(12) 0.10095(12) 0.2633(3)
C13F C 0.96469(12) 0.14205(12) 0.3123(3)
H6F H 0.9785 0.1615 0.3810
C14F C 0.91652(12) 0.15553(12) 0.2624(3)
C15F C 0.88911(12) 0.20283(12) 0.3053(3)
C16F C 0.83826(12) 0.20264(12) 0.3534(3)
C19F C 0.73886(12) 0.09464(13) 0.3661(3)
O9F O 0.83679(13) -0.12487(14) 0.4344(3)
C20F C 0.68737(13) 0.08017(13) 0.3104(3)
O11F O 0.90750(13) -0.03542(13) 0.4209(3)
O10? O 0.7948(3) 0.6307(3) 0.3973(7)
O12? O 0.9277(3) 0.5510(2) 0.3305(6)
loop_
_geom_bond_atom_site_label_1
_geom_bond_atom_site_label_2
_geom_bond_site_symmetry_1
_geom_bond_site_symmetry_2
Zn1 O4 1_555 1_555
Zn2 O1 1_555 1_555
O1 C7 1_555 1_555
O2 Zn2 1_555 1_555
O3 C1 1_555 1_555
O4 C1 1_555 1_555
O5 C11 1_555 1_555
O6 C11 1_555 1_555
O7 C20 1_555 1_555
O8 C20 1_555 1_555
C1 C2 1_555 1_555
C2 C3 1_555 1_555
C3 H1 1_555 1_555
C4 C3 1_555 1_555
C5 C4 1_555 1_555
H2 C5 1_555 1_555
C6 C2 1_555 1_555
H3 C6 1_555 1_555
C7 O2 1_555 1_555
C8 C7 1_555 1_555
C9 C8 1_555 1_555
H4 C9 1_555 1_555
C10 C8 1_555 1_555
H5 C10 1_555 1_555
C11 C12 1_555 1_555
C12 C9 1_555 1_555
C13 C12 1_555 1_555
H6 C13 1_555 1_555
C14 C10 1_555 1_555
C15 C14 1_555 1_555
C16 C4 1_555 1_555
C17 C16 1_555 1_555
H7 C17 1_555 1_555
C18 C15 1_555 1_555
H8 C18 1_555 1_555
C19 C5 1_555 1_555
O9 Zn1 1_555 1_555
C20 C19 1_555 1_555
O11 Zn1 1_555 1_555
Zn1F O4F 1_555 1_555
Zn1D O6 1_555 1_555
Zn1A O8 1_555 1_555
Zn1G O8F 1_555 1_555
Zn1B O6F 1_555 1_555
Zn2F O1F 1_555 1_555
Zn2_2 O3 1_555 1_555
Zn2D O5 1_555 1_555
Zn2A O7 1_555 1_555
Zn2F_2 O3F 1_555 1_555
Zn2G O7F 1_555 1_555
Zn2B O5F 1_555 1_555
O1F C7F 1_555 1_555
O2F Zn2F 1_555 1_555
O3F C1F 1_555 1_555
O3_2 Zn2 1_555 1_555
O3F_2 Zn2F 1_555 1_555
O4F C1F 1_555 1_555
O5F C11F 1_555 1_555
O5D Zn2 1_555 1_555
O5B Zn2F 1_555 1_555
O6F C11F 1_555 1_555
O6D Zn1 1_555 1_555
O6B Zn1F 1_555 1_555
O7F C20F 1_555 1_555
O7A Zn2 1_555 1_555
O7G Zn2F 1_555 1_555
O8F C20F 1_555 1_555
O8A Zn1 1_555 1_555
O8G Zn1F 1_555 1_555
C1F C2F 1_555 1_555
C2F C3F 1_555 1_555
C3F H1F 1_555 1_555
C4F C3F 1_555 1_555
C5F C4F 1_555 1_555
H2F C5F 1_555 1_555
C6F C2F 1_555 1_555
H3F C6F 1_555 1_555
C7F O2F 1_555 1_555
C8F C7F 1_555 1_555
C9F C8F 1_555 1_555
H4F C9F 1_555 1_555
C10F C8F 1_555 1_555
H5F C10F 1_555 1_555
C11F C12F 1_555 1_555
C12F C9F 1_555 1_555
C13F C12F 1_555 1_555
H6F C13F 1_555 1_555
C14F C10F 1_555 1_555
C15F C18 1_555 1_555
C16F C17 1_555 1_555
C19F C5F 1_555 1_555
O9F Zn1F 1_555 1_555
C20F C19F 1_555 1_555
O11F Zn1F 1_555 1_555
C6 C19 1_555 1_555
C13 C14 1_555 1_555
C15 C16 1_555 1_555
C4F C16F 1_555 1_555
C6F C19F 1_555 1_555
C13F C14F 1_555 1_555
C14F C15F 1_555 1_555
C15F C16F 1_555 1_555

#END
