
#######################################################################
#
#                 Cambridge Crystallographic Data Centre
#                                CCDC 
#
#######################################################################
#
# If this CIF has been generated from an entry in the Cambridge 
# Structural Database, then it will include bibliographic, chemical, 
# crystal, experimental, refinement or atomic coordinate data resulting 
# from the CCDC's data processing and validation procedures.
#
#######################################################################

data_TIRQOB
_chemical_name_common            PCN-13
_chemical_formula_moiety         '(C48 H30 O16 Zn4)n,2n(C3 H7 N1 O1)'
_chemical_name_systematic        
"catena-[tris(\m~4~-9,10-Anthracenedicarboxylato-O,O',O'',O''')-(\m~4~-oxo)-triaqua-tetra-zinc dimethylformamide solvate]"
_symmetry_cell_setting           cubic
_symmetry_space_group_name_H-M   'I -4 3 d'
_symmetry_Int_Tables_number      220
_space_group_name_Hall           'I -4bd 2c 3'
loop_
_symmetry_equiv_pos_site_id
_symmetry_equiv_pos_as_xyz
1 x,y,z
2 1/2-x,-y,1/2+z
3 -x,1/2+y,1/2-z
4 1/2+x,1/2-y,-z
5 z,x,y
6 1/2+z,1/2-x,-y
7 1/2-z,-x,1/2+y
8 -z,1/2+x,1/2-y
9 y,z,x
10 -y,1/2+z,1/2-x
11 1/2+y,1/2-z,-x
12 1/2-y,-z,1/2+x
13 1/4+y,1/4+x,1/4+z
14 1/4-y,3/4-x,3/4+z
15 3/4+y,1/4-x,3/4-z
16 3/4-y,3/4+x,1/4-z
17 1/4+x,1/4+z,1/4+y
18 3/4-x,3/4+z,1/4-y
19 1/4-x,3/4-z,3/4+y
20 3/4+x,1/4-z,3/4-y
21 1/4+z,1/4+y,1/4+x
22 3/4+z,1/4-y,3/4-x
23 3/4-z,3/4+y,1/4-x
24 1/4-z,3/4-y,3/4+x
25 1/2+x,1/2+y,1/2+z
26 -x,1/2-y,z
27 1/2-x,y,-z
28 x,-y,1/2-z
29 1/2+z,1/2+x,1/2+y
30 z,-x,1/2-y
31 -z,1/2-x,y
32 1/2-z,x,-y
33 1/2+y,1/2+z,1/2+x
34 1/2-y,z,-x
35 y,-z,1/2-x
36 -y,1/2-z,x
37 3/4+y,3/4+x,3/4+z
38 3/4-y,1/4-x,1/4+z
39 1/4+y,3/4-x,1/4-z
40 1/4-y,1/4+x,3/4-z
41 3/4+x,3/4+z,3/4+y
42 1/4-x,1/4+z,3/4-y
43 3/4-x,1/4-z,1/4+y
44 1/4+x,3/4-z,1/4-y
45 3/4+z,3/4+y,3/4+x
46 1/4+z,3/4-y,1/4-x
47 1/4-z,1/4+y,3/4-x
48 3/4-z,1/4-y,1/4+x
_cell_length_a                   28.79(1)
_cell_length_b                   28.79(1)
_cell_length_c                   28.79(1)
_cell_angle_alpha                90
_cell_angle_beta                 90
_cell_angle_gamma                90
_cell_volume                     23863
_exptl_crystal_colour            'light brown'
_exptl_crystal_description       block
_cell_formula_units_Z            16
loop_
_atom_site_label
_atom_site_type_symbol
_atom_site_fract_x
_atom_site_fract_y
_atom_site_fract_z
_atom_site_U_iso_or_equiv
_atom_site_thermal_displace_type
C1 C 0.1020(3) -0.1342(3) -0.0409(3) 0.0490 Uani
C2 C 0.1210(3) -0.1715(3) -0.0676(3) 0.0527 Uani
C3 C 0.0994(5) -0.1400(4) 0.0098(3) 0.0890 Uani
H1 H 0.0910 -0.1150 0.0283 0.1070 Uiso
C4 C 0.1092(5) -0.1814(3) 0.0296(4) 0.1160 Uani
H2 H 0.1056 -0.1853 0.0615 0.1390 Uiso
C5 C 0.1319(4) -0.2138(3) -0.0428(4) 0.0857 Uani
H3 H 0.1443 -0.2391 -0.0586 0.1030 Uiso
C6 C 0.1240(6) -0.2164(4) 0.0034(4) 0.1453 Uani
H4 H 0.1294 -0.2447 0.0180 0.1750 Uiso
Zn1 Zn 0.00289(3) 0.00289(3) 0.00289(3) 0.0301 Uani
Zn2 Zn 0.10633(3) 0.02814(3) 0.02441(3) 0.0357 Uani
O1 O 0.04157(15) 0.04157(15) 0.04157(15) 0.0330 Uani
O2 O 0.0975(2) -0.01881(18) -0.03255(17) 0.0507 Uani
C7 C 0.0699(3) -0.0524(3) -0.0375(2) 0.0387 Uani
C8 C 0.1107(3) -0.1228(3) -0.1885(3) 0.0493 Uani
H5 H 0.1233 -0.1466 -0.2065 0.0590 Uiso
C9 C 0.0730(3) -0.0502(3) -0.1382(3) 0.0450 Uani
H6 H 0.0600 -0.0258 -0.1215 0.0540 Uiso
C10 C 0.1092(3) -0.1274(3) -0.1407(3) 0.0390 Uani
C11 C 0.0886(3) -0.0938(2) -0.0635(3) 0.0407 Uani
C12 C 0.0750(3) -0.0475(3) -0.1827(3) 0.0510 Uani
H7 H 0.0639 -0.0212 -0.1979 0.0610 Uiso
C13 C 0.0906(3) -0.0907(3) -0.1134(3) 0.0420 Uani
C14 C 0.0944(3) -0.0851(4) -0.2090(3) 0.0623 Uani
H8 H 0.0956 -0.0828 -0.2412 0.0750 Uiso
C15 C 0.1252(3) -0.1685(3) -0.1165(3) 0.0473 Uani
C16 C 0.1470(4) -0.2076(4) -0.1431(4) 0.0810 Uani
O3 O 0.12308(19) -0.22717(19) -0.17437(19) 0.0520 Uani
O4 O 0.1881(2) -0.2196(2) -0.1315(2) 0.0600 Uani
O5 O 0.03169(19) -0.05544(19) -0.0202(2) 0.0520 Uani
O6 O 0.1513(3) 0.0656(3) 0.0715(2) 0.0883 Uani
C1D C -0.0409(3) 0.1020(3) -0.1342(3) 0.0490 Uani
C1H C -0.1342(3) -0.0409(3) 0.1020(3) 0.0490 Uani
C2D C -0.0676(3) 0.1210(3) -0.1715(3) 0.0527 Uani
C2H C -0.1715(3) -0.0676(3) 0.1210(3) 0.0527 Uani
C3D C 0.0098(3) 0.0994(5) -0.1400(4) 0.0890 Uani
C3H C -0.1400(4) 0.0098(3) 0.0994(5) 0.0890 Uani
H1D H 0.0283 0.0910 -0.1150 0.1070 Uiso
H1H H -0.1150 0.0283 0.0910 0.1070 Uiso
C4D C 0.0296(4) 0.1092(5) -0.1814(3) 0.1160 Uani
C4H C -0.1814(3) 0.0296(4) 0.1092(5) 0.1160 Uani
H2D H 0.0615 0.1056 -0.1853 0.1390 Uiso
H2H H -0.1853 0.0615 0.1056 0.1390 Uiso
C5D C -0.0428(4) 0.1319(4) -0.2138(3) 0.0857 Uani
C5H C -0.2138(3) -0.0428(4) 0.1319(4) 0.0857 Uani
H3D H -0.0586 0.1443 -0.2391 0.1030 Uiso
H3H H -0.2391 -0.0586 0.1443 0.1030 Uiso
C6D C 0.0034(4) 0.1240(6) -0.2164(4) 0.1453 Uani
C6H C -0.2164(4) 0.0034(4) 0.1240(6) 0.1453 Uani
H4D H 0.0180 0.1294 -0.2447 0.1750 Uiso
H4H H -0.2447 0.0180 0.1294 0.1750 Uiso
Zn2H Zn 0.02814(3) 0.02441(3) 0.10633(3) 0.0357 Uani
Zn2D Zn 0.02441(3) 0.10633(3) 0.02814(3) 0.0357 Uani
Zn2R Zn 0.14367(3) -0.27441(3) -0.22186(3) 0.0357 Uani
Zn2W Zn 0.22559(3) -0.27814(3) -0.14367(3) 0.0357 Uani
Zn2N Zn -0.22186(3) 0.14367(3) -0.27441(3) 0.0357 Uani
Zn2S Zn -0.14367(3) 0.22559(3) -0.27814(3) 0.0357 Uani
Zn2V Zn -0.27441(3) -0.22186(3) 0.14367(3) 0.0357 Uani
Zn2O Zn -0.27814(3) -0.14367(3) 0.22559(3) 0.0357 Uani
O2D O -0.03255(17) 0.0975(2) -0.01881(18) 0.0507 Uani
O2H O -0.01881(18) -0.03255(17) 0.0975(2) 0.0507 Uani
C7D C -0.0375(2) 0.0699(3) -0.0524(3) 0.0387 Uani
C7H C -0.0524(3) -0.0375(2) 0.0699(3) 0.0387 Uani
C8D C -0.1885(3) 0.1107(3) -0.1228(3) 0.0493 Uani
C8H C -0.1228(3) -0.1885(3) 0.1107(3) 0.0493 Uani
H5D H -0.2065 0.1233 -0.1466 0.0590 Uiso
H5H H -0.1466 -0.2065 0.1233 0.0590 Uiso
C9D C -0.1382(3) 0.0730(3) -0.0502(3) 0.0450 Uani
C9H C -0.0502(3) -0.1382(3) 0.0730(3) 0.0450 Uani
H6D H -0.1215 0.0600 -0.0258 0.0540 Uiso
H6H H -0.0258 -0.1215 0.0600 0.0540 Uiso
C10D C -0.1407(3) 0.1092(3) -0.1274(3) 0.0390 Uani
C10H C -0.1274(3) -0.1407(3) 0.1092(3) 0.0390 Uani
C11D C -0.0635(3) 0.0886(3) -0.0938(2) 0.0407 Uani
C11H C -0.0938(2) -0.0635(3) 0.0886(3) 0.0407 Uani
C12D C -0.1827(3) 0.0750(3) -0.0475(3) 0.0510 Uani
C12H C -0.0475(3) -0.1827(3) 0.0750(3) 0.0510 Uani
H7D H -0.1979 0.0639 -0.0212 0.0610 Uiso
H7H H -0.0212 -0.1979 0.0639 0.0610 Uiso
C13D C -0.1134(3) 0.0906(3) -0.0907(3) 0.0420 Uani
C13H C -0.0907(3) -0.1134(3) 0.0906(3) 0.0420 Uani
C14D C -0.2090(3) 0.0944(3) -0.0851(4) 0.0623 Uani
C14H C -0.0851(4) -0.2090(3) 0.0944(3) 0.0623 Uani
H8D H -0.2412 0.0956 -0.0828 0.0750 Uiso
H8H H -0.0828 -0.2412 0.0956 0.0750 Uiso
C15D C -0.1165(3) 0.1252(3) -0.1685(3) 0.0473 Uani
C15H C -0.1685(3) -0.1165(3) 0.1252(3) 0.0473 Uani
C16D C -0.1431(4) 0.1470(4) -0.2076(4) 0.0810 Uani
C16H C -0.2076(4) -0.1431(4) 0.1470(4) 0.0810 Uani
O3D O -0.17437(19) 0.12308(19) -0.22717(19) 0.0520 Uani
O3H O -0.22717(19) -0.17437(19) 0.12308(19) 0.0520 Uani
O3OA O 0.12692(19) 0.07563(19) -0.02283(19) 0.0520 Uani
O3SA O 0.07563(19) -0.02283(19) 0.12692(19) 0.0520 Uani
O3KA O -0.02283(19) 0.12692(19) 0.07563(19) 0.0520 Uani
O4D O -0.1315(2) 0.1881(2) -0.2196(2) 0.0600 Uani
O4H O -0.2196(2) -0.1315(2) 0.1881(2) 0.0600 Uani
O4SA O 0.1185(2) -0.0304(2) 0.0619(2) 0.0600 Uani
O4KA O -0.0304(2) 0.0619(2) 0.1185(2) 0.0600 Uani
O4OA O 0.0619(2) 0.1185(2) -0.0304(2) 0.0600 Uani
O5D O -0.0202(2) 0.03169(19) -0.05544(19) 0.0520 Uani
O5H O -0.05544(19) -0.0202(2) 0.03169(19) 0.0520 Uani
O6H O 0.0656(3) 0.0715(2) 0.1513(3) 0.0883 Uani
O6D O 0.0715(2) 0.1513(3) 0.0656(3) 0.0883 Uani
loop_
_atom_site_aniso_label
_atom_site_aniso_U_11
_atom_site_aniso_U_22
_atom_site_aniso_U_33
_atom_site_aniso_U_23
_atom_site_aniso_U_13
_atom_site_aniso_U_12
C1 0.060(5) 0.045(5) 0.042(5) -0.009(4) 0.017(4) 0.014(4)
C2 0.080(6) 0.041(5) 0.037(4) -0.018(4) 0.013(4) 0.018(4)
C3 0.154(11) 0.059(6) 0.054(6) 0.000(5) 0.042(7) 0.038(7)
C4 0.247(16) 0.056(6) 0.045(6) 0.015(5) 0.068(8) 0.066(8)
C5 0.138(10) 0.047(6) 0.072(7) 0.004(5) 0.059(7) 0.030(6)
C6 0.31(2) 0.057(7) 0.069(7) 0.018(6) 0.076(11) 0.092(11)
Zn1 0.0301(3) 0.0301(3) 0.0301(3) 0.0007(4) 0.0007(4) 0.0007(4)
Zn2 0.0356(5) 0.0357(5) 0.0357(5) 0.0069(4) 0.0001(4) -0.0034(4)
O1 0.033(2) 0.033(2) 0.033(2) -0.002(2) -0.002(2) -0.002(2)
O2 0.071(4) 0.041(3) 0.040(3) -0.012(3) 0.024(3) -0.012(3)
C7 0.058(5) 0.034(4) 0.024(4) -0.002(3) 0.011(4) 0.009(4)
C8 0.037(4) 0.065(6) 0.046(5) -0.009(4) 0.009(4) 0.003(4)
C9 0.053(5) 0.032(4) 0.050(5) 0.002(4) -0.003(4) -0.002(4)
C10 0.043(4) 0.039(4) 0.035(4) -0.012(3) 0.000(3) -0.002(3)
C11 0.052(5) 0.030(4) 0.040(4) 0.000(3) 0.015(4) -0.004(4)
C12 0.044(5) 0.054(5) 0.055(6) 0.008(4) -0.012(4) 0.005(4)
C13 0.033(4) 0.053(5) 0.040(4) -0.005(4) 0.007(3) 0.000(3)
C14 0.056(6) 0.093(8) 0.038(5) 0.001(5) -0.017(4) -0.012(5)
C15 0.055(5) 0.044(5) 0.043(5) -0.012(4) 0.021(4) -0.009(4)
C16 0.096(9) 0.076(7) 0.071(7) -0.023(6) 0.042(7) 0.000(6)
O3 0.058(4) 0.051(3) 0.047(3) -0.031(3) 0.008(3) -0.002(3)
O4 0.046(3) 0.068(4) 0.066(4) -0.037(3) 0.012(3) 0.011(3)
O5 0.047(3) 0.038(3) 0.071(4) -0.009(3) 0.010(3) 0.012(3)
O6 0.100(6) 0.095(5) 0.070(4) -0.001(4) -0.053(4) 0.026(4)
C1D 0.042 0.06 0.045 0.014 -0.009 0.017
C1H 0.045 0.042 0.06 0.017 0.014 -0.009
C2D 0.037 0.08 0.041 0.018 -0.018 0.013
C2H 0.041 0.037 0.08 0.013 0.018 -0.018
C3D 0.054 0.154 0.059 0.038 0 0.042
C3H 0.059 0.054 0.154 0.042 0.038 0
C4D 0.045 0.247 0.056 0.066 0.015 0.068
C4H 0.056 0.045 0.247 0.068 0.066 0.015
C5D 0.072 0.138 0.047 0.03 0.004 0.059
C5H 0.047 0.072 0.138 0.059 0.03 0.004
C6D 0.069 0.31 0.057 0.092 0.018 0.076
C6H 0.057 0.069 0.31 0.076 0.092 0.018
Zn2H 0.0357 0.0357 0.0356 0.0001 -0.0034 0.0069
Zn2D 0.0357 0.0356 0.0357 -0.0034 0.0069 0.0001
Zn2R 0.0356 0.0357 0.0357 -0.0069 0.0034 0.0001
Zn2W 0.0357 0.0357 0.0356 0.0034 -0.0001 0.0069
Zn2N 0.0357 0.0356 0.0357 0.0001 -0.0069 0.0034
Zn2S 0.0356 0.0357 0.0357 0.0069 0.0034 -0.0001
Zn2V 0.0357 0.0357 0.0356 0.0034 0.0001 -0.0069
Zn2O 0.0357 0.0356 0.0357 -0.0001 0.0069 0.0034
O2D 0.04 0.071 0.041 -0.012 -0.012 0.024
O2H 0.041 0.04 0.071 0.024 -0.012 -0.012
C7D 0.024 0.058 0.034 0.009 -0.002 0.011
C7H 0.034 0.024 0.058 0.011 0.009 -0.002
C8D 0.046 0.037 0.065 0.003 -0.009 0.009
C8H 0.065 0.046 0.037 0.009 0.003 -0.009
C9D 0.05 0.053 0.032 -0.002 0.002 -0.003
C9H 0.032 0.05 0.053 -0.003 -0.002 0.002
C10D 0.035 0.043 0.039 -0.002 -0.012 0
C10H 0.039 0.035 0.043 0 -0.002 -0.012
C11D 0.04 0.052 0.03 -0.004 0 0.015
C11H 0.03 0.04 0.052 0.015 -0.004 0
C12D 0.055 0.044 0.054 0.005 0.008 -0.012
C12H 0.054 0.055 0.044 -0.012 0.005 0.008
C13D 0.04 0.033 0.053 0 -0.005 0.007
C13H 0.053 0.04 0.033 0.007 0 -0.005
C14D 0.038 0.056 0.093 -0.012 0.001 -0.017
C14H 0.093 0.038 0.056 -0.017 -0.012 0.001
C15D 0.043 0.055 0.044 -0.009 -0.012 0.021
C15H 0.044 0.043 0.055 0.021 -0.009 -0.012
C16D 0.071 0.096 0.076 0 -0.023 0.042
C16H 0.076 0.071 0.096 0.042 0 -0.023
O3D 0.047 0.058 0.051 -0.002 -0.031 0.008
O3H 0.051 0.047 0.058 0.008 -0.002 -0.031
O3OA 0.058 0.047 0.051 0.031 -0.002 -0.008
O3SA 0.047 0.051 0.058 -0.002 -0.008 0.031
O3KA 0.051 0.058 0.047 -0.008 0.031 -0.002
O4D 0.066 0.046 0.068 0.011 -0.037 0.012
O4H 0.068 0.066 0.046 0.012 0.011 -0.037
O4SA 0.066 0.068 0.046 0.011 -0.012 0.037
O4KA 0.068 0.046 0.066 -0.012 0.037 0.011
O4OA 0.046 0.066 0.068 0.037 0.011 -0.012
O5D 0.071 0.047 0.038 0.012 -0.009 0.01
O5H 0.038 0.071 0.047 0.01 0.012 -0.009
O6H 0.095 0.07 0.1 -0.053 0.026 -0.001
O6D 0.07 0.1 0.095 0.026 -0.001 -0.053
loop_
_geom_bond_atom_site_label_1
_geom_bond_atom_site_label_2
_geom_bond_site_symmetry_1
_geom_bond_site_symmetry_2
C1 C2 1_555 1_555
C2 C5 1_555 1_555
C3 C1 1_555 1_555
H1 C3 1_555 1_555
C4 C3 1_555 1_555
H2 C4 1_555 1_555
C5 H3 1_555 1_555
C6 C4 1_555 1_555
H4 C6 1_555 1_555
Zn1 O1 1_555 1_555
Zn2 O1 1_555 1_555
O1 Zn2H 1_555 1_555
O2 Zn2 1_555 1_555
C7 O2 1_555 1_555
C8 H5 1_555 1_555
C9 H6 1_555 1_555
C10 C8 1_555 1_555
C11 C1 1_555 1_555
C12 C9 1_555 1_555
H7 C12 1_555 1_555
C13 C9 1_555 1_555
C14 C8 1_555 1_555
H8 C14 1_555 1_555
C15 C2 1_555 1_555
C16 C15 1_555 1_555
O3 C16 1_555 1_555
O4 C16 1_555 1_555
O5 Zn1 1_555 1_555
O6 Zn2 1_555 1_555
C1D C2D 1_555 1_555
C1H C2H 1_555 1_555
C2D C5D 1_555 1_555
C2H C5H 1_555 1_555
C3D C1D 1_555 1_555
C3H C1H 1_555 1_555
H1D C3D 1_555 1_555
H1H C3H 1_555 1_555
C4D C3D 1_555 1_555
C4H C3H 1_555 1_555
H2D C4D 1_555 1_555
H2H C4H 1_555 1_555
C5D H3D 1_555 1_555
C5H H3H 1_555 1_555
C6D C4D 1_555 1_555
C6H C4H 1_555 1_555
H4D C6D 1_555 1_555
H4H C6H 1_555 1_555
Zn2H O2H 1_555 1_555
Zn2D O1 1_555 1_555
Zn2R O3 1_555 1_555
Zn2W O4 1_555 1_555
Zn2N O3D 1_555 1_555
Zn2S O4D 1_555 1_555
Zn2V O3H 1_555 1_555
Zn2O O4H 1_555 1_555
O2D Zn2D 1_555 1_555
O2H C7H 1_555 1_555
C7D O2D 1_555 1_555
C7H C11H 1_555 1_555
C8D H5D 1_555 1_555
C8H H5H 1_555 1_555
C9D H6D 1_555 1_555
C9H H6H 1_555 1_555
C10D C8D 1_555 1_555
C10H C8H 1_555 1_555
C11D C1D 1_555 1_555
C11H C1H 1_555 1_555
C12D C9D 1_555 1_555
C12H C9H 1_555 1_555
H7D C12D 1_555 1_555
H7H C12H 1_555 1_555
C13D C9D 1_555 1_555
C13H C9H 1_555 1_555
C14D C8D 1_555 1_555
C14H C8H 1_555 1_555
H8D C14D 1_555 1_555
H8H C14H 1_555 1_555
C15D C2D 1_555 1_555
C15H C2H 1_555 1_555
C16D C15D 1_555 1_555
C16H C15H 1_555 1_555
O3D C16D 1_555 1_555
O3H C16H 1_555 1_555
O3OA Zn2 1_555 1_555
O3SA Zn2H 1_555 1_555
O3KA Zn2D 1_555 1_555
O4D C16D 1_555 1_555
O4H C16H 1_555 1_555
O4SA Zn2 1_555 1_555
O4KA Zn2H 1_555 1_555
O4OA Zn2D 1_555 1_555
O5D Zn1 1_555 1_555
O5H Zn1 1_555 1_555
O6H Zn2H 1_555 1_555
O6D Zn2D 1_555 1_555
C5 C6 1_555 1_555
C7 C11 1_555 1_555
C7 O5 1_555 1_555
C10 C13 1_555 1_555
C10 C15 1_555 1_555
C11 C13 1_555 1_555
C12 C14 1_555 1_555
C5D C6D 1_555 1_555
C5H C6H 1_555 1_555
C7D C11D 1_555 1_555
C7D O5D 1_555 1_555
C7H O5H 1_555 1_555
C10D C13D 1_555 1_555
C10D C15D 1_555 1_555
C10H C13H 1_555 1_555
C10H C15H 1_555 1_555
C11D C13D 1_555 1_555
C11H C13H 1_555 1_555
C12D C14D 1_555 1_555
C12H C14H 1_555 1_555

#END
