
#######################################################################
#
#                 Cambridge Crystallographic Data Centre
#                                CCDC 
#
#######################################################################
#
# If this CIF has been generated from an entry in the Cambridge 
# Structural Database, then it will include bibliographic, chemical, 
# crystal, experimental, refinement or atomic coordinate data resulting 
# from the CCDC's data processing and validation procedures.
#
#######################################################################

data_MUDTAH
_chemical_name_common            PMOF-2(Zn)
_chemical_formula_moiety         '(C36 H18 O15 Zn3)n,n(C3 H7 N1 O1),n(H2 O1)'
_chemical_name_systematic        
'catena-((\m~12~-1,3,5-tris((3,5-Dicarboxylatophenyl)ethynyl)benzene)-triaqua-tri-zinc(ii) N,N-dimethylformamide solvate monohydrate)'
_symmetry_cell_setting           cubic
_symmetry_space_group_name_H-M   'F m -3 m'
_symmetry_Int_Tables_number      225
_space_group_name_Hall           '-F 4 2 3'
loop_
_symmetry_equiv_pos_site_id
_symmetry_equiv_pos_as_xyz
1 x,y,z
2 -x,-y,z
3 -x,y,-z
4 x,-y,-z
5 z,x,y
6 z,-x,-y
7 -z,-x,y
8 -z,x,-y
9 y,z,x
10 -y,z,-x
11 y,-z,-x
12 -y,-z,x
13 y,x,-z
14 -y,-x,-z
15 y,-x,z
16 -y,x,z
17 x,z,-y
18 -x,z,y
19 -x,-z,-y
20 x,-z,y
21 z,y,-x
22 z,-y,x
23 -z,y,x
24 -z,-y,-x
25 x,1/2+y,1/2+z
26 -x,1/2-y,1/2+z
27 -x,1/2+y,1/2-z
28 x,1/2-y,1/2-z
29 z,1/2+x,1/2+y
30 z,1/2-x,1/2-y
31 -z,1/2-x,1/2+y
32 -z,1/2+x,1/2-y
33 y,1/2+z,1/2+x
34 -y,1/2+z,1/2-x
35 y,1/2-z,1/2-x
36 -y,1/2-z,1/2+x
37 y,1/2+x,1/2-z
38 -y,1/2-x,1/2-z
39 y,1/2-x,1/2+z
40 -y,1/2+x,1/2+z
41 x,1/2+z,1/2-y
42 -x,1/2+z,1/2+y
43 -x,1/2-z,1/2-y
44 x,1/2-z,1/2+y
45 z,1/2+y,1/2-x
46 z,1/2-y,1/2+x
47 -z,1/2+y,1/2+x
48 -z,1/2-y,1/2-x
49 1/2+x,y,1/2+z
50 1/2-x,-y,1/2+z
51 1/2-x,y,1/2-z
52 1/2+x,-y,1/2-z
53 1/2+z,x,1/2+y
54 1/2+z,-x,1/2-y
55 1/2-z,-x,1/2+y
56 1/2-z,x,1/2-y
57 1/2+y,z,1/2+x
58 1/2-y,z,1/2-x
59 1/2+y,-z,1/2-x
60 1/2-y,-z,1/2+x
61 1/2+y,x,1/2-z
62 1/2-y,-x,1/2-z
63 1/2+y,-x,1/2+z
64 1/2-y,x,1/2+z
65 1/2+x,z,1/2-y
66 1/2-x,z,1/2+y
67 1/2-x,-z,1/2-y
68 1/2+x,-z,1/2+y
69 1/2+z,y,1/2-x
70 1/2+z,-y,1/2+x
71 1/2-z,y,1/2+x
72 1/2-z,-y,1/2-x
73 1/2+x,1/2+y,z
74 1/2-x,1/2-y,z
75 1/2-x,1/2+y,-z
76 1/2+x,1/2-y,-z
77 1/2+z,1/2+x,y
78 1/2+z,1/2-x,-y
79 1/2-z,1/2-x,y
80 1/2-z,1/2+x,-y
81 1/2+y,1/2+z,x
82 1/2-y,1/2+z,-x
83 1/2+y,1/2-z,-x
84 1/2-y,1/2-z,x
85 1/2+y,1/2+x,-z
86 1/2-y,1/2-x,-z
87 1/2+y,1/2-x,z
88 1/2-y,1/2+x,z
89 1/2+x,1/2+z,-y
90 1/2-x,1/2+z,y
91 1/2-x,1/2-z,-y
92 1/2+x,1/2-z,y
93 1/2+z,1/2+y,-x
94 1/2+z,1/2-y,x
95 1/2-z,1/2+y,x
96 1/2-z,1/2-y,-x
97 -x,-y,-z
98 x,y,-z
99 x,-y,z
100 -x,y,z
101 -z,-x,-y
102 -z,x,y
103 z,x,-y
104 z,-x,y
105 -y,-z,-x
106 y,-z,x
107 -y,z,x
108 y,z,-x
109 -y,-x,z
110 y,x,z
111 -y,x,-z
112 y,-x,-z
113 -x,-z,y
114 x,-z,-y
115 x,z,y
116 -x,z,-y
117 -z,-y,x
118 -z,y,-x
119 z,-y,-x
120 z,y,x
121 -x,1/2-y,1/2-z
122 x,1/2+y,1/2-z
123 x,1/2-y,1/2+z
124 -x,1/2+y,1/2+z
125 -z,1/2-x,1/2-y
126 -z,1/2+x,1/2+y
127 z,1/2+x,1/2-y
128 z,1/2-x,1/2+y
129 -y,1/2-z,1/2-x
130 y,1/2-z,1/2+x
131 -y,1/2+z,1/2+x
132 y,1/2+z,1/2-x
133 -y,1/2-x,1/2+z
134 y,1/2+x,1/2+z
135 -y,1/2+x,1/2-z
136 y,1/2-x,1/2-z
137 -x,1/2-z,1/2+y
138 x,1/2-z,1/2-y
139 x,1/2+z,1/2+y
140 -x,1/2+z,1/2-y
141 -z,1/2-y,1/2+x
142 -z,1/2+y,1/2-x
143 z,1/2-y,1/2-x
144 z,1/2+y,1/2+x
145 1/2-x,-y,1/2-z
146 1/2+x,y,1/2-z
147 1/2+x,-y,1/2+z
148 1/2-x,y,1/2+z
149 1/2-z,-x,1/2-y
150 1/2-z,x,1/2+y
151 1/2+z,x,1/2-y
152 1/2+z,-x,1/2+y
153 1/2-y,-z,1/2-x
154 1/2+y,-z,1/2+x
155 1/2-y,z,1/2+x
156 1/2+y,z,1/2-x
157 1/2-y,-x,1/2+z
158 1/2+y,x,1/2+z
159 1/2-y,x,1/2-z
160 1/2+y,-x,1/2-z
161 1/2-x,-z,1/2+y
162 1/2+x,-z,1/2-y
163 1/2+x,z,1/2+y
164 1/2-x,z,1/2-y
165 1/2-z,-y,1/2+x
166 1/2-z,y,1/2-x
167 1/2+z,-y,1/2-x
168 1/2+z,y,1/2+x
169 1/2-x,1/2-y,-z
170 1/2+x,1/2+y,-z
171 1/2+x,1/2-y,z
172 1/2-x,1/2+y,z
173 1/2-z,1/2-x,-y
174 1/2-z,1/2+x,y
175 1/2+z,1/2+x,-y
176 1/2+z,1/2-x,y
177 1/2-y,1/2-z,-x
178 1/2+y,1/2-z,x
179 1/2-y,1/2+z,x
180 1/2+y,1/2+z,-x
181 1/2-y,1/2-x,z
182 1/2+y,1/2+x,z
183 1/2-y,1/2+x,-z
184 1/2+y,1/2-x,-z
185 1/2-x,1/2-z,y
186 1/2+x,1/2-z,-y
187 1/2+x,1/2+z,y
188 1/2-x,1/2+z,-y
189 1/2-z,1/2-y,x
190 1/2-z,1/2+y,-x
191 1/2+z,1/2-y,-x
192 1/2+z,1/2+y,x
_cell_length_a                   42.854(5)
_cell_length_b                   42.854(5)
_cell_length_c                   42.854(5)
_cell_angle_alpha                90
_cell_angle_beta                 90
_cell_angle_gamma                90
_cell_volume                     78699.9
_exptl_crystal_colour            'pale brown'
_exptl_crystal_description       block
_cell_formula_units_Z            32
loop_
_atom_site_label
_atom_site_type_symbol
_atom_site_fract_x
_atom_site_fract_y
_atom_site_fract_z
_atom_site_U_iso_or_equiv
_atom_site_thermal_displace_type
Zn1 Zn 0.0000 0.871098(8) 0.371098(8) 0.0865 Uani
Zn2 Zn 0.0000 0.821355(8) 0.321355(8) 0.0884 Uani
O1 O 0.0000 0.90408(8) 0.40408(8) 0.1757 Uani
O2 O 0.0000 0.78863(7) 0.28863(7) 0.1507 Uani
O3 O 0.03258(6) 0.84197(6) 0.38774(7) 0.1324 Uani
O4 O 0.03265(6) 0.80531(7) 0.35079(6) 0.1296 Uani
C1 C 0.04216(8) 0.81728(9) 0.37565(9) 0.1153 Uani
C2 C 0.06824(9) 0.80116(9) 0.39227(9) 0.1220 Uani
C3 C 0.08249(8) 0.81536(12) 0.41751(8) 0.1103 Uani
H1 H 0.0750 0.8348 0.4250 0.1320 Uiso
C4 C 0.07824(10) 0.77210(11) 0.38198(11) 0.1480 Uani
H2 H 0.0677 0.7618 0.3655 0.1780 Uiso
C5 C 0.10382(13) 0.75846(16) 0.39618(13) 0.1633 Uani
C6 C 0.1137(2) 0.7279(2) 0.3863(2) 0.2290 Uani
C7 C 0.1218(2) 0.7023(3) 0.3782(2) 0.2690 Uani
C8 C 0.1358(2) 0.6754(2) 0.3642(2) 0.2360 Uani
C9 C 0.1232(2) 0.6620(2) 0.3380(2) 0.2463 Uani
H3 H 0.1052 0.6711 0.3289 0.2960 Uiso
Zn1GA Zn 0.128902(8) 0.871098(8) 0.5000 0.0865 Uani
Zn1KA Zn 0.128902(8) 0.5000 0.128902(8) 0.0865 Uani
Zn1R Zn 0.0000 0.628902(8) 0.128902(8) 0.0865 Uani
Zn1SA Zn 0.371098(8) 0.628902(8) 0.5000 0.0865 Uani
Zn1BA Zn 0.371098(8) 0.5000 0.371098(8) 0.0865 Uani
Zn2GA Zn 0.178645(8) 0.821355(8) 0.5000 0.0884 Uani
Zn2KA Zn 0.178645(8) 0.5000 0.178645(8) 0.0884 Uani
Zn2R Zn 0.0000 0.678645(8) 0.178645(8) 0.0884 Uani
Zn2SA Zn 0.321355(8) 0.678645(8) 0.5000 0.0884 Uani
Zn2BA Zn 0.321355(8) 0.5000 0.321355(8) 0.0884 Uani
O1GA O 0.09592(8) 0.90408(8) 0.5000 0.1757 Uani
O3OA O -0.03258(6) 0.88774(7) 0.34197(6) 0.1324 Uani
O3UC O -0.03258(6) 0.84197(6) 0.38774(7) 0.1324 Uani
O3HE O 0.03258(6) 0.88774(7) 0.34197(6) 0.1324 Uani
O3IF O 0.11226(7) 0.84197(6) 0.46742(6) 0.1324 Uani
O3AC O 0.11226(7) 0.53258(6) 0.15803(6) 0.1324 Uani
O3ID O 0.03258(6) 0.61226(7) 0.15803(6) 0.1324 Uani
O3FB O 0.34197(6) 0.61226(7) 0.46742(6) 0.1324 Uani
O3YF O 0.34197(6) 0.53258(6) 0.38774(7) 0.1324 Uani
O3GA O 0.15803(6) 0.88774(7) 0.46742(6) 0.1324 Uani
O3RB O 0.11226(7) 0.84197(6) 0.53258(6) 0.1324 Uani
O3ZD O 0.15803(6) 0.88774(7) 0.53258(6) 0.1324 Uani
O4OA O -0.03265(6) 0.85079(6) 0.30531(7) 0.1296 Uani
O4UC O -0.03265(6) 0.80531(7) 0.35079(6) 0.1296 Uani
O4HE O 0.03265(6) 0.85079(6) 0.30531(7) 0.1296 Uani
O4IF O 0.14921(6) 0.80531(7) 0.46735(6) 0.1296 Uani
O4AC O 0.14921(6) 0.53265(6) 0.19469(7) 0.1296 Uani
O4ID O 0.03265(6) 0.64921(6) 0.19469(7) 0.1296 Uani
O4FB O 0.30531(7) 0.64921(6) 0.46735(6) 0.1296 Uani
O4YF O 0.30531(7) 0.53265(6) 0.35079(6) 0.1296 Uani
C1IF C 0.12435(9) 0.81728(9) 0.45784(8) 0.1153 Uani
C1AC C 0.12435(9) 0.54216(8) 0.18272(9) 0.1153 Uani
C1ID C 0.04216(8) 0.62435(9) 0.18272(9) 0.1153 Uani
C1FB C 0.31728(9) 0.62435(9) 0.45784(8) 0.1153 Uani
C1YF C 0.31728(9) 0.54216(8) 0.37565(9) 0.1153 Uani
C2IF C 0.10773(9) 0.80116(9) 0.43176(9) 0.1220 Uani
C2AC C 0.10773(9) 0.56824(9) 0.19884(9) 0.1220 Uani
C2ID C 0.06824(9) 0.60773(9) 0.19884(9) 0.1220 Uani
C2FB C 0.30116(9) 0.60773(9) 0.43176(9) 0.1220 Uani
C2YF C 0.30116(9) 0.56824(9) 0.39227(9) 0.1220 Uani
C3AC C 0.08249(8) 0.58249(8) 0.18464(12) 0.1103 Uani
C3FB C 0.31536(12) 0.58249(8) 0.41751(8) 0.1103 Uani
H1AC H 0.0750 0.5750 0.1652 0.1320 Uiso
H1FB H 0.3348 0.5750 0.4250 0.1320 Uiso
C4IF C 0.11802(11) 0.77210(11) 0.42176(10) 0.1480 Uani
C4AC C 0.11802(11) 0.57824(10) 0.22790(11) 0.1480 Uani
C4ID C 0.07824(10) 0.61802(11) 0.22790(11) 0.1480 Uani
C4FB C 0.27210(11) 0.61802(11) 0.42176(10) 0.1480 Uani
C4YF C 0.27210(11) 0.57824(10) 0.38198(11) 0.1480 Uani
H2IF H 0.1345 0.7618 0.4323 0.1780 Uiso
H2AC H 0.1345 0.5677 0.2382 0.1780 Uiso
H2ID H 0.0677 0.6345 0.2382 0.1780 Uiso
H2FB H 0.2618 0.6345 0.4323 0.1780 Uiso
H2YF H 0.2618 0.5677 0.3655 0.1780 Uiso
C5AC C 0.10382(13) 0.60382(13) 0.24154(16) 0.1633 Uani
C5FB C 0.25846(16) 0.60382(13) 0.39618(13) 0.1633 Uani
C6AC C 0.1137(2) 0.6137(2) 0.2721(2) 0.2290 Uani
C6FB C 0.2279(2) 0.6137(2) 0.3863(2) 0.2290 Uani
C7AC C 0.1218(2) 0.6218(2) 0.2977(3) 0.2690 Uani
C7FB C 0.2023(3) 0.6218(2) 0.3782(2) 0.2690 Uani
C8AC C 0.1358(2) 0.6358(2) 0.3246(2) 0.2360 Uani
C8FB C 0.1754(2) 0.6358(2) 0.3642(2) 0.2360 Uani
C9FB C 0.1620(2) 0.6620(2) 0.3768(2) 0.2463 Uani
C9AC C 0.1620(2) 0.6232(2) 0.3380(2) 0.2463 Uani
H3FB H 0.1711 0.6711 0.3948 0.2960 Uiso
H3AC H 0.1711 0.6052 0.3289 0.2960 Uiso
loop_
_atom_site_aniso_label
_atom_site_aniso_U_11
_atom_site_aniso_U_22
_atom_site_aniso_U_33
_atom_site_aniso_U_23
_atom_site_aniso_U_13
_atom_site_aniso_U_12
Zn1 0.0770(4) 0.0913(3) 0.0913(3) -0.0308(3) 0.000 0.000
Zn2 0.0801(4) 0.0925(3) 0.0925(3) -0.0314(3) 0.000 0.000
O1 0.287(9) 0.120(2) 0.120(2) -0.044(3) 0.000 0.000
O2 0.192(6) 0.130(3) 0.130(3) -0.055(3) 0.000 0.000
O3 0.1194(16) 0.1267(18) 0.151(2) -0.0237(16) -0.0263(15) 0.0346(14)
O4 0.1110(15) 0.149(2) 0.1288(17) -0.0297(16) -0.0244(13) 0.0323(14)
C1 0.0958(19) 0.123(2) 0.127(2) -0.0125(19) -0.0086(16) 0.0171(16)
C2 0.111(2) 0.130(3) 0.125(2) -0.031(2) -0.0186(18) 0.0292(18)
C3 0.1114(17) 0.108(3) 0.1114(17) -0.0164(16) -0.005(2) 0.0164(16)
C4 0.140(3) 0.156(3) 0.148(3) -0.060(3) -0.049(3) 0.060(3)
C5 0.161(3) 0.168(5) 0.161(3) -0.082(4) -0.064(4) 0.082(4)
C6 0.235(6) 0.217(8) 0.235(6) -0.141(6) -0.138(7) 0.141(6)
C7 0.261(8) 0.285(11) 0.261(8) -0.184(9) -0.175(9) 0.184(9)
C8 0.244(7) 0.220(8) 0.244(7) -0.146(7) -0.158(8) 0.146(7)
C9 0.239(9) 0.250(8) 0.250(8) -0.165(9) -0.152(8) 0.152(8)
Zn1GA 0.0913 0.0913 0.077 0 0 0.0308
Zn1KA 0.0913 0.077 0.0913 0 -0.0308 0
Zn1R 0.077 0.0913 0.0913 -0.0308 0 0
Zn1SA 0.0913 0.0913 0.077 0 0 0.0308
Zn1BA 0.0913 0.077 0.0913 0 -0.0308 0
Zn2GA 0.0925 0.0925 0.0801 0 0 0.0314
Zn2KA 0.0925 0.0801 0.0925 0 -0.0314 0
Zn2R 0.0801 0.0925 0.0925 -0.0314 0 0
Zn2SA 0.0925 0.0925 0.0801 0 0 0.0314
Zn2BA 0.0925 0.0801 0.0925 0 -0.0314 0
O1GA 0.12 0.12 0.287 0 0 0.044
O3OA 0.1194 0.151 0.1267 -0.0237 -0.0346 0.0263
O3UC 0.1194 0.1267 0.151 -0.0237 0.0263 -0.0346
O3HE 0.1194 0.151 0.1267 -0.0237 0.0346 -0.0263
O3IF 0.151 0.1267 0.1194 -0.0346 -0.0263 0.0237
O3AC 0.151 0.1194 0.1267 -0.0346 -0.0237 0.0263
O3ID 0.1194 0.151 0.1267 -0.0237 -0.0346 0.0263
O3FB 0.1267 0.151 0.1194 -0.0263 -0.0346 0.0237
O3YF 0.1267 0.1194 0.151 -0.0263 -0.0237 0.0346
O3GA 0.1267 0.151 0.1194 0.0263 0.0346 0.0237
O3RB 0.151 0.1267 0.1194 0.0346 0.0263 0.0237
O3ZD 0.1267 0.151 0.1194 -0.0263 -0.0346 0.0237
O4OA 0.111 0.1288 0.149 -0.0297 -0.0323 0.0244
O4UC 0.111 0.149 0.1288 -0.0297 0.0244 -0.0323
O4HE 0.111 0.1288 0.149 -0.0297 0.0323 -0.0244
O4IF 0.1288 0.149 0.111 -0.0323 -0.0244 0.0297
O4AC 0.1288 0.111 0.149 -0.0323 -0.0297 0.0244
O4ID 0.111 0.1288 0.149 -0.0297 -0.0323 0.0244
O4FB 0.149 0.1288 0.111 -0.0244 -0.0323 0.0297
O4YF 0.149 0.111 0.1288 -0.0244 -0.0297 0.0323
C1IF 0.127 0.123 0.0958 -0.0171 -0.0086 0.0125
C1AC 0.127 0.0958 0.123 -0.0171 -0.0125 0.0086
C1ID 0.0958 0.127 0.123 -0.0125 -0.0171 0.0086
C1FB 0.123 0.127 0.0958 -0.0086 -0.0171 0.0125
C1YF 0.123 0.0958 0.127 -0.0086 -0.0125 0.0171
C2IF 0.125 0.13 0.111 -0.0292 -0.0186 0.031
C2AC 0.125 0.111 0.13 -0.0292 -0.031 0.0186
C2ID 0.111 0.125 0.13 -0.031 -0.0292 0.0186
C2FB 0.13 0.125 0.111 -0.0186 -0.0292 0.031
C2YF 0.13 0.111 0.125 -0.0186 -0.031 0.0292
C3AC 0.1114 0.1114 0.108 -0.0164 -0.0164 0.005
C3FB 0.108 0.1114 0.1114 -0.005 -0.0164 0.0164
C4IF 0.148 0.156 0.14 -0.06 -0.049 0.06
C4AC 0.148 0.14 0.156 -0.06 -0.06 0.049
C4ID 0.14 0.148 0.156 -0.06 -0.06 0.049
C4FB 0.156 0.148 0.14 -0.049 -0.06 0.06
C4YF 0.156 0.14 0.148 -0.049 -0.06 0.06
C5AC 0.161 0.161 0.168 -0.082 -0.082 0.064
C5FB 0.168 0.161 0.161 -0.064 -0.082 0.082
C6AC 0.235 0.235 0.217 -0.141 -0.141 0.138
C6FB 0.217 0.235 0.235 -0.138 -0.141 0.141
C7AC 0.261 0.261 0.285 -0.184 -0.184 0.175
C7FB 0.285 0.261 0.261 -0.175 -0.184 0.184
C8AC 0.244 0.244 0.22 -0.146 -0.146 0.158
C8FB 0.22 0.244 0.244 -0.158 -0.146 0.146
C9FB 0.25 0.25 0.239 -0.152 -0.152 0.165
C9AC 0.25 0.239 0.25 -0.152 -0.165 0.152
loop_
_geom_bond_atom_site_label_1
_geom_bond_atom_site_label_2
_geom_bond_site_symmetry_1
_geom_bond_site_symmetry_2
Zn1 O1 1_555 1_555
Zn2 O2 1_555 1_555
O3 Zn1 1_555 1_555
O4 Zn2 1_555 1_555
C1 O3 1_555 1_555
C2 C1 1_555 1_555
C3 C2 1_555 1_555
H1 C3 1_555 1_555
C4 C2 1_555 1_555
H2 C4 1_555 1_555
C5 C4 1_555 1_555
C6 C5 1_555 1_555
C7 C6 1_555 1_555
C8 C7 1_555 1_555
C9 C8 1_555 1_555
H3 C9 1_555 1_555
Zn1GA O1GA 1_555 1_555
Zn1KA O3AC 1_555 1_555
Zn1R O3ID 1_555 1_555
Zn1SA O3FB 1_555 1_555
Zn1BA O3YF 1_555 1_555
Zn2GA O4IF 1_555 1_555
Zn2KA O4AC 1_555 1_555
Zn2R O4ID 1_555 1_555
Zn2SA O4FB 1_555 1_555
Zn2BA O4YF 1_555 1_555
O3OA Zn1 1_555 1_555
O3UC Zn1 1_555 1_555
O3HE Zn1 1_555 1_555
O3IF Zn1GA 1_555 1_555
O3AC C1AC 1_555 1_555
O3ID C1ID 1_555 1_555
O3FB C1FB 1_555 1_555
O3YF C1YF 1_555 1_555
O3GA Zn1GA 1_555 1_555
O3RB Zn1GA 1_555 1_555
O3ZD Zn1GA 1_555 1_555
O4OA Zn2 1_555 1_555
O4UC Zn2 1_555 1_555
O4HE Zn2 1_555 1_555
O4IF C1IF 1_555 1_555
O4AC C1AC 1_555 1_555
O4ID C1ID 1_555 1_555
O4FB C1FB 1_555 1_555
O4YF C1YF 1_555 1_555
C1IF O3IF 1_555 1_555
C1AC C2AC 1_555 1_555
C1ID C2ID 1_555 1_555
C1FB C2FB 1_555 1_555
C1YF C2YF 1_555 1_555
C2IF C3 1_555 1_555
C2AC C3AC 1_555 1_555
C2ID C3AC 1_555 1_555
C2FB C3FB 1_555 1_555
C2YF C3FB 1_555 1_555
C3AC H1AC 1_555 1_555
C3FB H1FB 1_555 1_555
C4IF C5 1_555 1_555
C4AC C2AC 1_555 1_555
C4ID C2ID 1_555 1_555
C4FB C2FB 1_555 1_555
C4YF C2YF 1_555 1_555
H2IF C4IF 1_555 1_555
H2AC C4AC 1_555 1_555
H2ID C4ID 1_555 1_555
H2FB C4FB 1_555 1_555
H2YF C4YF 1_555 1_555
C5AC C4AC 1_555 1_555
C5FB C4FB 1_555 1_555
C6AC C5AC 1_555 1_555
C6FB C5FB 1_555 1_555
C7AC C6AC 1_555 1_555
C7FB C6FB 1_555 1_555
C8AC C9 1_555 1_555
C8FB C7FB 1_555 1_555
C9FB C8 1_555 1_555
C9AC C8AC 1_555 1_555
H3FB C9FB 1_555 1_555
H3AC C9AC 1_555 1_555
O4 C1 1_555 1_555
C1IF C2IF 1_555 1_555
C2IF C4IF 1_555 1_555
C4ID C5AC 1_555 1_555
C4YF C5FB 1_555 1_555
C7AC C8AC 1_555 1_555
C8FB C9FB 1_555 1_555
C8FB C9AC 1_555 1_555

#END
