
#######################################################################
#
#                 Cambridge Crystallographic Data Centre
#                                CCDC 
#
#######################################################################
#
# If this CIF has been generated from an entry in the Cambridge 
# Structural Database, then it will include bibliographic, chemical, 
# crystal, experimental, refinement or atomic coordinate data resulting 
# from the CCDC's data processing and validation procedures.
#
#######################################################################

data_AJOQOG
_chemical_formula_moiety         '(C54 H72 O25 Zn4)n,n(C3 H7 N1 O1)'
_chemical_name_systematic        
'catena-(tris(\m~4~-2,5-bis(4-methoxybutoxy)-1,4-benzenedicarboxylato)-(\m~4~-oxo)-tetra-zinc(ii) dimethylformamide solvate)'
_symmetry_cell_setting           cubic
_symmetry_space_group_name_H-M   'P m -3 m'
_symmetry_Int_Tables_number      221
_space_group_name_Hall           '-P 4 2 3'
loop_
_symmetry_equiv_pos_site_id
_symmetry_equiv_pos_as_xyz
1 x,y,z
2 -x,-y,z
3 -x,y,-z
4 x,-y,-z
5 z,x,y
6 z,-x,-y
7 -z,-x,y
8 -z,x,-y
9 y,z,x
10 -y,z,-x
11 y,-z,-x
12 -y,-z,x
13 y,x,-z
14 -y,-x,-z
15 y,-x,z
16 -y,x,z
17 x,z,-y
18 -x,z,y
19 -x,-z,-y
20 x,-z,y
21 z,y,-x
22 z,-y,x
23 -z,y,x
24 -z,-y,-x
25 -x,-y,-z
26 x,y,-z
27 x,-y,z
28 -x,y,z
29 -z,-x,-y
30 -z,x,y
31 z,x,-y
32 z,-x,y
33 -y,-z,-x
34 y,-z,x
35 -y,z,x
36 y,z,-x
37 -y,-x,z
38 y,x,z
39 -y,x,-z
40 y,-x,-z
41 -x,-z,y
42 x,-z,-y
43 x,z,y
44 -x,z,-y
45 -z,-y,x
46 -z,y,-x
47 z,-y,-x
48 z,y,x
_cell_length_a                   12.7990(3)
_cell_length_b                   12.7990(3)
_cell_length_c                   12.7990(3)
_cell_angle_alpha                90
_cell_angle_beta                 90
_cell_angle_gamma                90
_cell_volume                     2096.66
_exptl_crystal_colour            colorless
_exptl_crystal_description       cubic
_cell_formula_units_Z            1
loop_
_atom_site_label
_atom_site_type_symbol
_atom_site_fract_x
_atom_site_fract_y
_atom_site_fract_z
O1 O 0.0000 0.0000 0.0000
Zn1 Zn 0.08715(9) 0.08715(9) 0.08715(9)
C1 C 0.0000 0.3912(9) 0.0000
C2 C 0.0000 0.2764(10) 0.0000
C3 C 0.0854(12) 0.4465(12) 0.0000
O2 O 0.183(3) 0.402(2) 0.0000
O3 O 0.0617(5) 0.2334(7) 0.0617(5)
Zn1A Zn -0.08715(9) -0.08715(9) 0.08715(9)
Zn1B Zn -0.08715(9) 0.08715(9) -0.08715(9)
Zn1C Zn 0.08715(9) -0.08715(9) -0.08715(9)
Zn1L Zn 0.08715(9) 0.08715(9) -0.08715(9)
Zn1M Zn -0.08715(9) -0.08715(9) -0.08715(9)
Zn1N Zn 0.08715(9) -0.08715(9) 0.08715(9)
Zn1O Zn -0.08715(9) 0.08715(9) 0.08715(9)
Zn1_2 Zn -0.91285(9) 0.08715(9) 0.08715(9)
Zn1A_2 Zn -0.08715(9) 0.91285(9) 0.08715(9)
Zn1A_3 Zn 0.91285(9) -0.08715(9) 0.08715(9)
Zn1B_2 Zn 0.91285(9) 0.08715(9) -0.08715(9)
Zn1C_2 Zn -0.91285(9) -0.08715(9) -0.08715(9)
Zn1C_3 Zn 0.08715(9) 0.91285(9) -0.08715(9)
Zn1L_2 Zn -0.91285(9) 0.08715(9) -0.08715(9)
Zn1M_2 Zn -0.08715(9) 0.91285(9) -0.08715(9)
Zn1M_3 Zn 0.91285(9) -0.08715(9) -0.08715(9)
Zn1N_2 Zn -0.91285(9) -0.08715(9) 0.08715(9)
Zn1N_3 Zn 0.08715(9) 0.91285(9) 0.08715(9)
Zn1O_2 Zn 0.91285(9) 0.08715(9) 0.08715(9)
C1A C 0.0000 0.6088(9) 0.0000
C1H C 0.3912(9) 0.0000 0.0000
C1I C 0.6088(9) 0.0000 0.0000
C1I_2 C -0.3912(9) 0.0000 0.0000
C1H_2 C -0.6088(9) 0.0000 0.0000
C2A C 0.0000 0.7236(10) 0.0000
C2H C 0.2764(10) 0.0000 0.0000
C2I C 0.7236(10) 0.0000 0.0000
C2I_2 C -0.2764(10) 0.0000 0.0000
C2H_2 C -0.7236(10) 0.0000 0.0000
C3B C -0.0854(12) 0.4465(12) 0.0000
C3C C 0.0854(12) 0.5535(12) 0.0000
C3T C 0.0000 0.4465(12) -0.0854(12)
C3U C 0.0000 0.5535(12) 0.0854(12)
C3V C 0.0000 0.4465(12) 0.0854(12)
C3W C 0.0000 0.5535(12) -0.0854(12)
C3A C -0.0854(12) 0.5535(12) 0.0000
C3H C 0.4465(12) 0.0000 0.0854(12)
C3J C 0.4465(12) 0.0000 -0.0854(12)
C3K C 0.5535(12) 0.0000 0.0854(12)
C3N C 0.4465(12) -0.0854(12) 0.0000
C3O C 0.5535(12) 0.0854(12) 0.0000
C3L C 0.4465(12) 0.0854(12) 0.0000
C3M C 0.5535(12) -0.0854(12) 0.0000
C3I C 0.5535(12) 0.0000 -0.0854(12)
C3I_2 C -0.4465(12) 0.0000 -0.0854(12)
C3K_2 C -0.4465(12) 0.0000 0.0854(12)
C3J_2 C -0.5535(12) 0.0000 -0.0854(12)
C3M_2 C -0.4465(12) -0.0854(12) 0.0000
C3L_2 C -0.5535(12) 0.0854(12) 0.0000
C3O_2 C -0.4465(12) 0.0854(12) 0.0000
C3N_2 C -0.5535(12) -0.0854(12) 0.0000
C3H_2 C -0.5535(12) 0.0000 0.0854(12)
O2B O -0.183(3) 0.402(2) 0.0000
O2C O 0.183(3) 0.598(2) 0.0000
O2T O 0.0000 0.402(2) -0.183(3)
O2U O 0.0000 0.598(2) 0.183(3)
O2V O 0.0000 0.402(2) 0.183(3)
O2W O 0.0000 0.598(2) -0.183(3)
O2A O -0.183(3) 0.598(2) 0.0000
O2H O 0.402(2) 0.0000 0.183(3)
O2J O 0.402(2) 0.0000 -0.183(3)
O2K O 0.598(2) 0.0000 0.183(3)
O2N O 0.402(2) -0.183(3) 0.0000
O2O O 0.598(2) 0.183(3) 0.0000
O2L O 0.402(2) 0.183(3) 0.0000
O2M O 0.598(2) -0.183(3) 0.0000
O2I O 0.598(2) 0.0000 -0.183(3)
O2I_2 O -0.402(2) 0.0000 -0.183(3)
O2K_2 O -0.402(2) 0.0000 0.183(3)
O2J_2 O -0.598(2) 0.0000 -0.183(3)
O2M_2 O -0.402(2) -0.183(3) 0.0000
O2L_2 O -0.598(2) 0.183(3) 0.0000
O2O_2 O -0.402(2) 0.183(3) 0.0000
O2N_2 O -0.598(2) -0.183(3) 0.0000
O2H_2 O -0.598(2) 0.0000 0.183(3)
O3B O -0.0617(5) 0.2334(7) -0.0617(5)
O3C O 0.0617(5) 0.7666(7) -0.0617(5)
O3T O 0.0617(5) 0.2334(7) -0.0617(5)
O3U O 0.0617(5) 0.7666(7) 0.0617(5)
O3V O -0.0617(5) 0.2334(7) 0.0617(5)
O3W O -0.0617(5) 0.7666(7) -0.0617(5)
O3A O -0.0617(5) 0.7666(7) 0.0617(5)
O3H O 0.2334(7) 0.0617(5) 0.0617(5)
O3J O 0.2334(7) -0.0617(5) -0.0617(5)
O3K O 0.7666(7) -0.0617(5) 0.0617(5)
O3N O 0.2334(7) -0.0617(5) 0.0617(5)
O3O O 0.7666(7) 0.0617(5) 0.0617(5)
O3L O 0.2334(7) 0.0617(5) -0.0617(5)
O3M O 0.7666(7) -0.0617(5) -0.0617(5)
O3I O 0.7666(7) 0.0617(5) -0.0617(5)
O3I_2 O -0.2334(7) 0.0617(5) -0.0617(5)
O3K_2 O -0.2334(7) -0.0617(5) 0.0617(5)
O3J_2 O -0.7666(7) -0.0617(5) -0.0617(5)
O3M_2 O -0.2334(7) -0.0617(5) -0.0617(5)
O3L_2 O -0.7666(7) 0.0617(5) -0.0617(5)
O3O_2 O -0.2334(7) 0.0617(5) 0.0617(5)
O3N_2 O -0.7666(7) -0.0617(5) 0.0617(5)
O3H_2 O -0.7666(7) 0.0617(5) 0.0617(5)
O3C_2 O 0.0617(5) -0.2334(7) -0.0617(5)
O3A_2 O -0.0617(5) -0.2334(7) 0.0617(5)
O3G O -0.0617(5) 0.0617(5) -0.2334(7)
O3F O -0.0617(5) -0.0617(5) 0.2334(7)
O3E O 0.0617(5) -0.0617(5) -0.2334(7)
O3D O 0.0617(5) 0.0617(5) 0.2334(7)
O3S O 0.0617(5) -0.0617(5) 0.2334(7)
O3R O -0.0617(5) -0.0617(5) -0.2334(7)
O3Q O -0.0617(5) 0.0617(5) 0.2334(7)
O3P O 0.0617(5) 0.0617(5) -0.2334(7)
O3W_2 O -0.0617(5) -0.2334(7) -0.0617(5)
O3U_2 O 0.0617(5) -0.2334(7) 0.0617(5)
loop_
_geom_bond_atom_site_label_1
_geom_bond_atom_site_label_2
_geom_bond_site_symmetry_1
_geom_bond_site_symmetry_2
O1 Zn1 1_555 1_555
Zn1 O3 1_555 1_555
C1 C2 1_555 1_555
C2 O3 1_555 1_555
C3 C1 1_555 1_555
O2 C3 1_555 1_555
O3 O3T 1_555 1_555
Zn1A O1 1_555 1_555
Zn1B O1 1_555 1_555
Zn1C O1 1_555 1_555
Zn1L O1 1_555 1_555
Zn1M O1 1_555 1_555
Zn1N O1 1_555 1_555
Zn1O O1 1_555 1_555
Zn1_2 Zn1L_2 1_555 1_555
Zn1A_2 Zn1M_2 1_555 1_555
Zn1A_3 Zn1M_3 1_555 1_555
Zn1B_2 Zn1M_3 1_555 1_555
Zn1C_2 Zn1L_2 1_555 1_555
Zn1C_3 Zn1M_2 1_555 1_555
Zn1L_2 O3L_2 1_555 1_555
Zn1M_2 O3W 1_555 1_555
Zn1M_3 O3M 1_555 1_555
Zn1N_2 Zn1_2 1_555 1_555
Zn1N_3 Zn1A_2 1_555 1_555
Zn1O_2 Zn1A_3 1_555 1_555
C1A C2A 1_555 1_555
C1H C2H 1_555 1_555
C1I C2I 1_555 1_555
C1I_2 C2I_2 1_555 1_555
C1H_2 C2H_2 1_555 1_555
C2A O3C 1_555 1_555
C2H O3H 1_555 1_555
C2I O3K 1_555 1_555
C2I_2 O3I_2 1_555 1_555
C2H_2 O3J_2 1_555 1_555
C3B C1 1_555 1_555
C3C C3 1_555 1_555
C3T C1 1_555 1_555
C3U C1A 1_555 1_555
C3V C1 1_555 1_555
C3W C1A 1_555 1_555
C3A C1A 1_555 1_555
C3H C1H 1_555 1_555
C3J C1H 1_555 1_555
C3K C1I 1_555 1_555
C3N C1H 1_555 1_555
C3O C1I 1_555 1_555
C3L C1H 1_555 1_555
C3M C1I 1_555 1_555
C3I C1I 1_555 1_555
C3I_2 C1I_2 1_555 1_555
C3K_2 C1I_2 1_555 1_555
C3J_2 C1H_2 1_555 1_555
C3M_2 C1I_2 1_555 1_555
C3L_2 C1H_2 1_555 1_555
C3O_2 C1I_2 1_555 1_555
C3N_2 C1H_2 1_555 1_555
C3H_2 C1H_2 1_555 1_555
O2B C3B 1_555 1_555
O2C C3C 1_555 1_555
O2T C3T 1_555 1_555
O2U C3U 1_555 1_555
O2V C3V 1_555 1_555
O2W C3W 1_555 1_555
O2A C3A 1_555 1_555
O2H C3H 1_555 1_555
O2J C3J 1_555 1_555
O2K C3K 1_555 1_555
O2N C3N 1_555 1_555
O2O C3O 1_555 1_555
O2L C3L 1_555 1_555
O2M C3M 1_555 1_555
O2I C3I 1_555 1_555
O2I_2 C3I_2 1_555 1_555
O2K_2 C3K_2 1_555 1_555
O2J_2 C3J_2 1_555 1_555
O2M_2 C3M_2 1_555 1_555
O2L_2 C3L_2 1_555 1_555
O2O_2 C3O_2 1_555 1_555
O2N_2 C3N_2 1_555 1_555
O2H_2 C3H_2 1_555 1_555
O3B C2 1_555 1_555
O3C Zn1C_3 1_555 1_555
O3T C2 1_555 1_555
O3U Zn1N_3 1_555 1_555
O3V C2 1_555 1_555
O3W C2A 1_555 1_555
O3A Zn1A_2 1_555 1_555
O3H Zn1 1_555 1_555
O3J Zn1C 1_555 1_555
O3K Zn1A_3 1_555 1_555
O3N Zn1N 1_555 1_555
O3O Zn1O_2 1_555 1_555
O3L Zn1L 1_555 1_555
O3M C2I 1_555 1_555
O3I Zn1B_2 1_555 1_555
O3I_2 Zn1B 1_555 1_555
O3K_2 Zn1A 1_555 1_555
O3J_2 Zn1C_2 1_555 1_555
O3M_2 Zn1M 1_555 1_555
O3L_2 C2H_2 1_555 1_555
O3O_2 Zn1O 1_555 1_555
O3N_2 Zn1N_2 1_555 1_555
O3H_2 Zn1_2 1_555 1_555
O3C_2 Zn1C 1_555 1_555
O3A_2 Zn1A 1_555 1_555
O3G Zn1B 1_555 1_555
O3F Zn1A 1_555 1_555
O3E Zn1C 1_555 1_555
O3D Zn1 1_555 1_555
O3S Zn1N 1_555 1_555
O3R Zn1M 1_555 1_555
O3Q Zn1O 1_555 1_555
O3P Zn1L 1_555 1_555
O3W_2 Zn1M 1_555 1_555
O3U_2 Zn1N 1_555 1_555
Zn1 Zn1L 1_555 1_555
Zn1 Zn1N 1_555 1_555
Zn1 Zn1O 1_555 1_555
C3 C3T 1_555 1_555
C3 C3V 1_555 1_555
O3 O3V 1_555 1_555
Zn1A Zn1M 1_555 1_555
Zn1A Zn1N 1_555 1_555
Zn1A Zn1O 1_555 1_555
Zn1B Zn1L 1_555 1_555
Zn1B Zn1M 1_555 1_555
Zn1B Zn1O 1_555 1_555
Zn1B O3B 1_555 1_555
Zn1C Zn1L 1_555 1_555
Zn1C Zn1M 1_555 1_555
Zn1C Zn1N 1_555 1_555
Zn1L O3T 1_555 1_555
Zn1O O3V 1_555 1_555
Zn1B_2 Zn1O_2 1_555 1_555
Zn1C_2 Zn1N_2 1_555 1_555
Zn1C_3 Zn1N_3 1_555 1_555
C1A C3C 1_555 1_555
C2A O3U 1_555 1_555
C2A O3A 1_555 1_555
C2H O3J 1_555 1_555
C2H O3N 1_555 1_555
C2H O3L 1_555 1_555
C2I O3O 1_555 1_555
C2I O3I 1_555 1_555
C2I_2 O3K_2 1_555 1_555
C2I_2 O3M_2 1_555 1_555
C2I_2 O3O_2 1_555 1_555
C2H_2 O3N_2 1_555 1_555
C2H_2 O3H_2 1_555 1_555
C3B C3T 1_555 1_555
C3B C3V 1_555 1_555
C3B C3A 1_555 1_555
C3C C3U 1_555 1_555
C3C C3W 1_555 1_555
C3T C3W 1_555 1_555
C3U C3V 1_555 1_555
C3U C3A 1_555 1_555
C3W C3A 1_555 1_555
C3H C3K 1_555 1_555
C3H C3N 1_555 1_555
C3H C3L 1_555 1_555
C3J C3N 1_555 1_555
C3J C3L 1_555 1_555
C3J C3I 1_555 1_555
C3K C3O 1_555 1_555
C3K C3M 1_555 1_555
C3N C3M 1_555 1_555
C3O C3L 1_555 1_555
C3O C3I 1_555 1_555
C3M C3I 1_555 1_555
C3I_2 C3J_2 1_555 1_555
C3I_2 C3M_2 1_555 1_555
C3I_2 C3O_2 1_555 1_555
C3K_2 C3M_2 1_555 1_555
C3K_2 C3O_2 1_555 1_555
C3K_2 C3H_2 1_555 1_555
C3J_2 C3L_2 1_555 1_555
C3J_2 C3N_2 1_555 1_555
C3M_2 C3N_2 1_555 1_555
C3L_2 C3O_2 1_555 1_555
C3L_2 C3H_2 1_555 1_555
C3N_2 C3H_2 1_555 1_555
O3B O3T 1_555 1_555
O3B O3V 1_555 1_555
O3C O3U 1_555 1_555
O3C O3W 1_555 1_555
O3U O3A 1_555 1_555
O3W O3A 1_555 1_555
O3H O3N 1_555 1_555
O3H O3L 1_555 1_555
O3J O3N 1_555 1_555
O3J O3L 1_555 1_555
O3K O3O 1_555 1_555
O3K O3M 1_555 1_555
O3O O3I 1_555 1_555
O3M O3I 1_555 1_555
O3I_2 O3M_2 1_555 1_555
O3I_2 O3O_2 1_555 1_555
O3K_2 O3M_2 1_555 1_555
O3K_2 O3O_2 1_555 1_555
O3J_2 O3L_2 1_555 1_555
O3J_2 O3N_2 1_555 1_555
O3L_2 O3H_2 1_555 1_555
O3N_2 O3H_2 1_555 1_555
O3C_2 O3W_2 1_555 1_555
O3C_2 O3U_2 1_555 1_555
O3A_2 O3W_2 1_555 1_555
O3A_2 O3U_2 1_555 1_555
O3G O3R 1_555 1_555
O3G O3P 1_555 1_555
O3F O3S 1_555 1_555
O3F O3Q 1_555 1_555
O3E O3R 1_555 1_555
O3E O3P 1_555 1_555
O3D O3S 1_555 1_555
O3D O3Q 1_555 1_555

#END
