
#######################################################################
#
#                 Cambridge Crystallographic Data Centre
#                                CCDC 
#
#######################################################################
#
# If this CIF has been generated from an entry in the Cambridge 
# Structural Database, then it will include bibliographic, chemical, 
# crystal, experimental, refinement or atomic coordinate data resulting 
# from the CCDC's data processing and validation procedures.
#
#######################################################################

data_AJOQIA
_chemical_formula_moiety         '(C48 H60 O25 Zn4)n,n(C3 H7 N1 O1)'
_chemical_name_systematic        
'catena-(tris(\m~4~-2,5-bis(3-methoxypropoxy)-1,4-benzenedicarboxylato)-(\m~4~-oxo)-tetra-zinc(ii) dimethylformamide solvate)'
_symmetry_cell_setting           cubic
_symmetry_space_group_name_H-M   'P m -3 m'
_symmetry_Int_Tables_number      221
_space_group_name_Hall           '-P 4 2 3'
loop_
_symmetry_equiv_pos_site_id
_symmetry_equiv_pos_as_xyz
1 x,y,z
2 -x,-y,z
3 -x,y,-z
4 x,-y,-z
5 z,x,y
6 z,-x,-y
7 -z,-x,y
8 -z,x,-y
9 y,z,x
10 -y,z,-x
11 y,-z,-x
12 -y,-z,x
13 y,x,-z
14 -y,-x,-z
15 y,-x,z
16 -y,x,z
17 x,z,-y
18 -x,z,y
19 -x,-z,-y
20 x,-z,y
21 z,y,-x
22 z,-y,x
23 -z,y,x
24 -z,-y,-x
25 -x,-y,-z
26 x,y,-z
27 x,-y,z
28 -x,y,z
29 -z,-x,-y
30 -z,x,y
31 z,x,-y
32 z,-x,y
33 -y,-z,-x
34 y,-z,x
35 -y,z,x
36 y,z,-x
37 -y,-x,z
38 y,x,z
39 -y,x,-z
40 y,-x,-z
41 -x,-z,y
42 x,-z,-y
43 x,z,y
44 -x,z,-y
45 -z,-y,x
46 -z,y,-x
47 z,-y,-x
48 z,y,x
_cell_length_a                   12.8241(2)
_cell_length_b                   12.8241(2)
_cell_length_c                   12.8241(2)
_cell_angle_alpha                90
_cell_angle_beta                 90
_cell_angle_gamma                90
_cell_volume                     2109.02
_exptl_crystal_colour            colorless
_exptl_crystal_description       cubic
_cell_formula_units_Z            1
loop_
_atom_site_label
_atom_site_type_symbol
_atom_site_fract_x
_atom_site_fract_y
_atom_site_fract_z
O1 O 0.0000 0.0000 0.0000
Zn1 Zn 0.08716(11) 0.08716(11) 0.08716(11)
C1 C 0.0000 0.0000 0.3920(14)
O2 O 0.0770(15) 0.0449(12) 0.2314(9)
C2 C 0.0000 0.0000 0.2787(19)
C3 C 0.0836(12) 0.0000 0.4423(14)
O3 O 0.164(6) 0.0000 0.386(4)
Zn1A Zn -0.08716(11) -0.08716(11) 0.08716(11)
Zn1B Zn -0.08716(11) 0.08716(11) -0.08716(11)
Zn1C Zn 0.08716(11) -0.08716(11) -0.08716(11)
Zn1L Zn 0.08716(11) 0.08716(11) -0.08716(11)
Zn1M Zn -0.08716(11) -0.08716(11) -0.08716(11)
Zn1N Zn 0.08716(11) -0.08716(11) 0.08716(11)
Zn1O Zn -0.08716(11) 0.08716(11) 0.08716(11)
Zn1_2 Zn 0.08716(11) -0.91284(11) 0.08716(11)
Zn1A_2 Zn -0.08716(11) 0.91284(11) 0.08716(11)
Zn1B_2 Zn -0.08716(11) -0.91284(11) -0.08716(11)
Zn1B_3 Zn -0.08716(11) 0.08716(11) 0.91284(11)
Zn1C_2 Zn 0.08716(11) -0.08716(11) 0.91284(11)
Zn1C_3 Zn 0.08716(11) 0.91284(11) -0.08716(11)
Zn1L_2 Zn 0.08716(11) -0.91284(11) -0.08716(11)
Zn1L_3 Zn 0.08716(11) 0.08716(11) 0.91284(11)
Zn1M_2 Zn -0.08716(11) -0.08716(11) 0.91284(11)
Zn1M_3 Zn -0.08716(11) 0.91284(11) -0.08716(11)
Zn1N_2 Zn 0.08716(11) 0.91284(11) 0.08716(11)
Zn1O_2 Zn -0.08716(11) -0.91284(11) 0.08716(11)
C1B C 0.0000 0.0000 0.6080(14)
C1H C 0.0000 0.3920(14) 0.0000
C1J C 0.0000 0.6080(14) 0.0000
C1J_2 C 0.0000 -0.3920(14) 0.0000
C1H_2 C 0.0000 -0.6080(14) 0.0000
O2A O -0.0770(15) -0.0449(12) 0.2314(9)
O2B O -0.0770(15) 0.0449(12) 0.7686(9)
O2C O 0.0770(15) -0.0449(12) 0.7686(9)
O2L O 0.0449(12) 0.0770(15) 0.7686(9)
O2M O -0.0449(12) -0.0770(15) 0.7686(9)
O2N O 0.0449(12) -0.0770(15) 0.2314(9)
O2O O -0.0449(12) 0.0770(15) 0.2314(9)
O2X O -0.0770(15) -0.0449(12) 0.7686(9)
O2Y O 0.0770(15) 0.0449(12) 0.7686(9)
O2Z O 0.0770(15) -0.0449(12) 0.2314(9)
O2AA O -0.0770(15) 0.0449(12) 0.2314(9)
O2JA O -0.0449(12) -0.0770(15) 0.2314(9)
O2KA O 0.0449(12) 0.0770(15) 0.2314(9)
O2LA O -0.0449(12) 0.0770(15) 0.7686(9)
O2MA O 0.0449(12) -0.0770(15) 0.7686(9)
O2H O 0.0449(12) 0.2314(9) 0.0770(15)
O2I O -0.0449(12) 0.2314(9) -0.0770(15)
O2J O 0.0449(12) 0.7686(9) -0.0770(15)
O2K O -0.0449(12) 0.7686(9) 0.0770(15)
O2S O 0.0770(15) 0.7686(9) 0.0449(12)
O2R O -0.0770(15) 0.7686(9) -0.0449(12)
O2Q O -0.0770(15) 0.2314(9) 0.0449(12)
O2P O 0.0770(15) 0.2314(9) -0.0449(12)
O2FA O -0.0449(12) 0.7686(9) -0.0770(15)
O2GA O 0.0449(12) 0.7686(9) 0.0770(15)
O2HA O -0.0449(12) 0.2314(9) 0.0770(15)
O2IA O 0.0449(12) 0.2314(9) -0.0770(15)
O2QA O -0.0770(15) 0.2314(9) -0.0449(12)
O2PA O 0.0770(15) 0.2314(9) 0.0449(12)
O2OA O 0.0770(15) 0.7686(9) -0.0449(12)
O2NA O -0.0770(15) 0.7686(9) 0.0449(12)
O2J_2 O 0.0449(12) -0.2314(9) -0.0770(15)
O2K_2 O -0.0449(12) -0.2314(9) 0.0770(15)
O2H_2 O 0.0449(12) -0.7686(9) 0.0770(15)
O2I_2 O -0.0449(12) -0.7686(9) -0.0770(15)
O2P_2 O 0.0770(15) -0.7686(9) -0.0449(12)
O2Q_2 O -0.0770(15) -0.7686(9) 0.0449(12)
O2R_2 O -0.0770(15) -0.2314(9) -0.0449(12)
O2S_2 O 0.0770(15) -0.2314(9) 0.0449(12)
O2HA_2 O -0.0449(12) -0.7686(9) 0.0770(15)
O2IA_2 O 0.0449(12) -0.7686(9) -0.0770(15)
O2FA_2 O -0.0449(12) -0.2314(9) -0.0770(15)
O2GA_2 O 0.0449(12) -0.2314(9) 0.0770(15)
O2NA_2 O -0.0770(15) -0.2314(9) 0.0449(12)
O2OA_2 O 0.0770(15) -0.2314(9) -0.0449(12)
O2PA_2 O 0.0770(15) -0.7686(9) 0.0449(12)
O2QA_2 O -0.0770(15) -0.7686(9) -0.0449(12)
O2B_2 O -0.0770(15) 0.0449(12) -0.2314(9)
O2C_2 O 0.0770(15) -0.0449(12) -0.2314(9)
O2F O -0.2314(9) -0.0770(15) 0.0449(12)
O2G O -0.2314(9) 0.0770(15) -0.0449(12)
O2D O 0.2314(9) 0.0770(15) 0.0449(12)
O2E O 0.2314(9) -0.0770(15) -0.0449(12)
O2L_2 O 0.0449(12) 0.0770(15) -0.2314(9)
O2M_2 O -0.0449(12) -0.0770(15) -0.2314(9)
O2V O -0.2314(9) 0.0449(12) 0.0770(15)
O2W O -0.2314(9) -0.0449(12) -0.0770(15)
O2T O 0.2314(9) 0.0449(12) -0.0770(15)
O2U O 0.2314(9) -0.0449(12) 0.0770(15)
O2X_2 O -0.0770(15) -0.0449(12) -0.2314(9)
O2Y_2 O 0.0770(15) 0.0449(12) -0.2314(9)
O2DA O 0.2314(9) 0.0770(15) -0.0449(12)
O2EA O 0.2314(9) -0.0770(15) 0.0449(12)
O2BA O -0.2314(9) -0.0770(15) -0.0449(12)
O2CA O -0.2314(9) 0.0770(15) 0.0449(12)
O2LA_2 O -0.0449(12) 0.0770(15) -0.2314(9)
O2MA_2 O 0.0449(12) -0.0770(15) -0.2314(9)
O2TA O 0.2314(9) -0.0449(12) -0.0770(15)
O2UA O 0.2314(9) 0.0449(12) 0.0770(15)
O2RA O -0.2314(9) -0.0449(12) 0.0770(15)
O2SA O -0.2314(9) 0.0449(12) -0.0770(15)
C2B C 0.0000 0.0000 0.7213(19)
C2H C 0.0000 0.2787(19) 0.0000
C2J C 0.0000 0.7213(19) 0.0000
C2J_2 C 0.0000 -0.2787(19) 0.0000
C2H_2 C 0.0000 -0.7213(19) 0.0000
C3A C -0.0836(12) 0.0000 0.4423(14)
C3B C -0.0836(12) 0.0000 0.5577(14)
C3C C 0.0836(12) 0.0000 0.5577(14)
C3L C 0.0000 0.0836(12) 0.5577(14)
C3M C 0.0000 -0.0836(12) 0.5577(14)
C3N C 0.0000 -0.0836(12) 0.4423(14)
C3O C 0.0000 0.0836(12) 0.4423(14)
C3H C 0.0000 0.4423(14) 0.0836(12)
C3I C 0.0000 0.4423(14) -0.0836(12)
C3J C 0.0000 0.5577(14) -0.0836(12)
C3K C 0.0000 0.5577(14) 0.0836(12)
C3S C 0.0836(12) 0.5577(14) 0.0000
C3R C -0.0836(12) 0.5577(14) 0.0000
C3Q C -0.0836(12) 0.4423(14) 0.0000
C3P C 0.0836(12) 0.4423(14) 0.0000
C3J_2 C 0.0000 -0.4423(14) -0.0836(12)
C3K_2 C 0.0000 -0.4423(14) 0.0836(12)
C3H_2 C 0.0000 -0.5577(14) 0.0836(12)
C3I_2 C 0.0000 -0.5577(14) -0.0836(12)
C3P_2 C 0.0836(12) -0.5577(14) 0.0000
C3Q_2 C -0.0836(12) -0.5577(14) 0.0000
C3R_2 C -0.0836(12) -0.4423(14) 0.0000
C3S_2 C 0.0836(12) -0.4423(14) 0.0000
O3A O -0.164(6) 0.0000 0.386(4)
O3B O -0.164(6) 0.0000 0.614(4)
O3C O 0.164(6) 0.0000 0.614(4)
O3L O 0.0000 0.164(6) 0.614(4)
O3M O 0.0000 -0.164(6) 0.614(4)
O3N O 0.0000 -0.164(6) 0.386(4)
O3O O 0.0000 0.164(6) 0.386(4)
O3H O 0.0000 0.386(4) 0.164(6)
O3I O 0.0000 0.386(4) -0.164(6)
O3J O 0.0000 0.614(4) -0.164(6)
O3K O 0.0000 0.614(4) 0.164(6)
O3S O 0.164(6) 0.614(4) 0.0000
O3R O -0.164(6) 0.614(4) 0.0000
O3Q O -0.164(6) 0.386(4) 0.0000
O3P O 0.164(6) 0.386(4) 0.0000
O3J_2 O 0.0000 -0.386(4) -0.164(6)
O3K_2 O 0.0000 -0.386(4) 0.164(6)
O3H_2 O 0.0000 -0.614(4) 0.164(6)
O3I_2 O 0.0000 -0.614(4) -0.164(6)
O3P_2 O 0.164(6) -0.614(4) 0.0000
O3Q_2 O -0.164(6) -0.614(4) 0.0000
O3R_2 O -0.164(6) -0.386(4) 0.0000
O3S_2 O 0.164(6) -0.386(4) 0.0000
loop_
_geom_bond_atom_site_label_1
_geom_bond_atom_site_label_2
_geom_bond_site_symmetry_1
_geom_bond_site_symmetry_2
O1 Zn1 1_555 1_555
Zn1 O2 1_555 1_555
C1 C2 1_555 1_555
O2 C2 1_555 1_555
C2 O2A 1_555 1_555
C3 C1 1_555 1_555
O3 C3 1_555 1_555
Zn1A O1 1_555 1_555
Zn1B O1 1_555 1_555
Zn1C O1 1_555 1_555
Zn1L O1 1_555 1_555
Zn1M O1 1_555 1_555
Zn1N O1 1_555 1_555
Zn1O O1 1_555 1_555
Zn1_2 Zn1L_2 1_555 1_555
Zn1A_2 Zn1M_3 1_555 1_555
Zn1B_2 Zn1L_2 1_555 1_555
Zn1B_3 Zn1L_3 1_555 1_555
Zn1C_2 Zn1L_3 1_555 1_555
Zn1C_3 Zn1M_3 1_555 1_555
Zn1L_2 O2I_2 1_555 1_555
Zn1L_3 O2C 1_555 1_555
Zn1M_2 Zn1B_3 1_555 1_555
Zn1M_3 O2J 1_555 1_555
Zn1N_2 Zn1A_2 1_555 1_555
Zn1O_2 Zn1_2 1_555 1_555
C1B C2B 1_555 1_555
C1H C2H 1_555 1_555
C1J C2J 1_555 1_555
C1J_2 C2J_2 1_555 1_555
C1H_2 C2H_2 1_555 1_555
O2A Zn1A 1_555 1_555
O2B Zn1B_3 1_555 1_555
O2C Zn1C_2 1_555 1_555
O2L Zn1B_3 1_555 1_555
O2M Zn1C_2 1_555 1_555
O2N O2 1_555 1_555
O2O Zn1 1_555 1_555
O2X Zn1B_3 1_555 1_555
O2Y Zn1C_2 1_555 1_555
O2Z Zn1 1_555 1_555
O2AA C2 1_555 1_555
O2JA C2 1_555 1_555
O2KA Zn1 1_555 1_555
O2LA Zn1B_3 1_555 1_555
O2MA Zn1C_2 1_555 1_555
O2H Zn1 1_555 1_555
O2I Zn1B 1_555 1_555
O2J Zn1C_3 1_555 1_555
O2K Zn1A_2 1_555 1_555
O2S Zn1C_3 1_555 1_555
O2R Zn1A_2 1_555 1_555
O2Q Zn1B 1_555 1_555
O2P Zn1 1_555 1_555
O2FA Zn1C_3 1_555 1_555
O2GA Zn1A_2 1_555 1_555
O2HA Zn1 1_555 1_555
O2IA Zn1B 1_555 1_555
O2QA Zn1B 1_555 1_555
O2PA Zn1 1_555 1_555
O2OA Zn1C_3 1_555 1_555
O2NA Zn1A_2 1_555 1_555
O2J_2 Zn1C 1_555 1_555
O2K_2 Zn1A 1_555 1_555
O2H_2 Zn1_2 1_555 1_555
O2I_2 Zn1B_2 1_555 1_555
O2P_2 Zn1_2 1_555 1_555
O2Q_2 Zn1B_2 1_555 1_555
O2R_2 Zn1A 1_555 1_555
O2S_2 Zn1C 1_555 1_555
O2HA_2 Zn1_2 1_555 1_555
O2IA_2 Zn1B_2 1_555 1_555
O2FA_2 Zn1C 1_555 1_555
O2GA_2 Zn1A 1_555 1_555
O2NA_2 Zn1A 1_555 1_555
O2OA_2 Zn1C 1_555 1_555
O2PA_2 Zn1_2 1_555 1_555
O2QA_2 Zn1B_2 1_555 1_555
O2B_2 Zn1B 1_555 1_555
O2C_2 Zn1C 1_555 1_555
O2F Zn1A 1_555 1_555
O2G Zn1B 1_555 1_555
O2D Zn1 1_555 1_555
O2E Zn1C 1_555 1_555
O2L_2 Zn1B 1_555 1_555
O2M_2 Zn1C 1_555 1_555
O2V Zn1A 1_555 1_555
O2W Zn1B 1_555 1_555
O2T Zn1C 1_555 1_555
O2U Zn1 1_555 1_555
O2X_2 Zn1B 1_555 1_555
O2Y_2 Zn1C 1_555 1_555
O2DA Zn1 1_555 1_555
O2EA Zn1C 1_555 1_555
O2BA Zn1A 1_555 1_555
O2CA Zn1B 1_555 1_555
O2LA_2 Zn1B 1_555 1_555
O2MA_2 Zn1C 1_555 1_555
O2TA Zn1C 1_555 1_555
O2UA Zn1 1_555 1_555
O2RA Zn1A 1_555 1_555
O2SA Zn1B 1_555 1_555
C2B O2B 1_555 1_555
C2H O2H 1_555 1_555
C2J O2J 1_555 1_555
C2J_2 O2J_2 1_555 1_555
C2H_2 O2H_2 1_555 1_555
C3A C1 1_555 1_555
C3B C1B 1_555 1_555
C3C C3 1_555 1_555
C3L C1B 1_555 1_555
C3M C1B 1_555 1_555
C3N C1 1_555 1_555
C3O C1 1_555 1_555
C3H C1H 1_555 1_555
C3I C1H 1_555 1_555
C3J C1J 1_555 1_555
C3K C1J 1_555 1_555
C3S C1J 1_555 1_555
C3R C1J 1_555 1_555
C3Q C1H 1_555 1_555
C3P C1H 1_555 1_555
C3J_2 C1J_2 1_555 1_555
C3K_2 C1J_2 1_555 1_555
C3H_2 C1H_2 1_555 1_555
C3I_2 C1H_2 1_555 1_555
C3P_2 C1H_2 1_555 1_555
C3Q_2 C1H_2 1_555 1_555
C3R_2 C1J_2 1_555 1_555
C3S_2 C1J_2 1_555 1_555
O3A C3A 1_555 1_555
O3B C3B 1_555 1_555
O3C C3C 1_555 1_555
O3L C3L 1_555 1_555
O3M C3M 1_555 1_555
O3N C3N 1_555 1_555
O3O C3O 1_555 1_555
O3H C3H 1_555 1_555
O3I C3I 1_555 1_555
O3J C3J 1_555 1_555
O3K C3K 1_555 1_555
O3S C3S 1_555 1_555
O3R C3R 1_555 1_555
O3Q C3Q 1_555 1_555
O3P C3P 1_555 1_555
O3J_2 C3J_2 1_555 1_555
O3K_2 C3K_2 1_555 1_555
O3H_2 C3H_2 1_555 1_555
O3I_2 C3I_2 1_555 1_555
O3P_2 C3P_2 1_555 1_555
O3Q_2 C3Q_2 1_555 1_555
O3R_2 C3R_2 1_555 1_555
O3S_2 C3S_2 1_555 1_555
Zn1 Zn1L 1_555 1_555
Zn1 Zn1N 1_555 1_555
Zn1 Zn1O 1_555 1_555
O2 Zn1N 1_555 1_555
O2 O2O 1_555 1_555
O2 O2Z 1_555 1_555
O2 O2KA 1_555 1_555
C2 O2N 1_555 1_555
C2 O2O 1_555 1_555
C2 O2Z 1_555 1_555
C2 O2KA 1_555 1_555
C3 C3N 1_555 1_555
C3 C3O 1_555 1_555
Zn1A Zn1M 1_555 1_555
Zn1A Zn1N 1_555 1_555
Zn1A Zn1O 1_555 1_555
Zn1A O2N 1_555 1_555
Zn1A O2AA 1_555 1_555
Zn1A O2JA 1_555 1_555
Zn1B Zn1L 1_555 1_555
Zn1B Zn1M 1_555 1_555
Zn1B Zn1O 1_555 1_555
Zn1C Zn1L 1_555 1_555
Zn1C Zn1M 1_555 1_555
Zn1C Zn1N 1_555 1_555
Zn1L O2I 1_555 1_555
Zn1L O2P 1_555 1_555
Zn1L O2IA 1_555 1_555
Zn1L O2PA 1_555 1_555
Zn1L O2C_2 1_555 1_555
Zn1L O2D 1_555 1_555
Zn1L O2L_2 1_555 1_555
Zn1L O2T 1_555 1_555
Zn1L O2Y_2 1_555 1_555
Zn1L O2DA 1_555 1_555
Zn1L O2LA_2 1_555 1_555
Zn1L O2TA 1_555 1_555
Zn1M O2J_2 1_555 1_555
Zn1M O2R_2 1_555 1_555
Zn1M O2FA_2 1_555 1_555
Zn1M O2NA_2 1_555 1_555
Zn1M O2B_2 1_555 1_555
Zn1M O2F 1_555 1_555
Zn1M O2M_2 1_555 1_555
Zn1M O2W 1_555 1_555
Zn1M O2X_2 1_555 1_555
Zn1M O2BA 1_555 1_555
Zn1M O2MA_2 1_555 1_555
Zn1M O2SA 1_555 1_555
Zn1N O2N 1_555 1_555
Zn1N O2Z 1_555 1_555
Zn1N O2JA 1_555 1_555
Zn1N O2K_2 1_555 1_555
Zn1N O2S_2 1_555 1_555
Zn1N O2GA_2 1_555 1_555
Zn1N O2OA_2 1_555 1_555
Zn1N O2E 1_555 1_555
Zn1N O2U 1_555 1_555
Zn1N O2EA 1_555 1_555
Zn1N O2UA 1_555 1_555
Zn1O O2A 1_555 1_555
Zn1O O2O 1_555 1_555
Zn1O O2AA 1_555 1_555
Zn1O O2KA 1_555 1_555
Zn1O O2H 1_555 1_555
Zn1O O2Q 1_555 1_555
Zn1O O2HA 1_555 1_555
Zn1O O2QA 1_555 1_555
Zn1O O2G 1_555 1_555
Zn1O O2V 1_555 1_555
Zn1O O2CA 1_555 1_555
Zn1O O2RA 1_555 1_555
Zn1B_2 Zn1O_2 1_555 1_555
Zn1C_2 Zn1M_2 1_555 1_555
Zn1C_3 Zn1N_2 1_555 1_555
Zn1L_2 O2P_2 1_555 1_555
Zn1L_2 O2IA_2 1_555 1_555
Zn1L_2 O2PA_2 1_555 1_555
Zn1L_3 O2L 1_555 1_555
Zn1L_3 O2Y 1_555 1_555
Zn1L_3 O2LA 1_555 1_555
Zn1M_2 O2B 1_555 1_555
Zn1M_2 O2M 1_555 1_555
Zn1M_2 O2X 1_555 1_555
Zn1M_2 O2MA 1_555 1_555
Zn1M_3 O2R 1_555 1_555
Zn1M_3 O2FA 1_555 1_555
Zn1M_3 O2NA 1_555 1_555
Zn1N_2 O2K 1_555 1_555
Zn1N_2 O2S 1_555 1_555
Zn1N_2 O2GA 1_555 1_555
Zn1N_2 O2OA 1_555 1_555
Zn1O_2 O2H_2 1_555 1_555
Zn1O_2 O2Q_2 1_555 1_555
Zn1O_2 O2HA_2 1_555 1_555
Zn1O_2 O2QA_2 1_555 1_555
C1B C3C 1_555 1_555
O2A O2N 1_555 1_555
O2A O2O 1_555 1_555
O2A O2AA 1_555 1_555
O2A O2JA 1_555 1_555
O2B O2L 1_555 1_555
O2B O2M 1_555 1_555
O2B O2X 1_555 1_555
O2B O2LA 1_555 1_555
O2C O2L 1_555 1_555
O2C O2M 1_555 1_555
O2C O2Y 1_555 1_555
O2C O2MA 1_555 1_555
O2C C2B 1_555 1_555
O2L O2Y 1_555 1_555
O2L O2LA 1_555 1_555
O2L C2B 1_555 1_555
O2M O2X 1_555 1_555
O2M O2MA 1_555 1_555
O2M C2B 1_555 1_555
O2N O2Z 1_555 1_555
O2N O2JA 1_555 1_555
O2O O2AA 1_555 1_555
O2O O2KA 1_555 1_555
O2X O2LA 1_555 1_555
O2X O2MA 1_555 1_555
O2X C2B 1_555 1_555
O2Y O2LA 1_555 1_555
O2Y O2MA 1_555 1_555
O2Y C2B 1_555 1_555
O2Z O2JA 1_555 1_555
O2Z O2KA 1_555 1_555
O2AA O2JA 1_555 1_555
O2AA O2KA 1_555 1_555
O2LA C2B 1_555 1_555
O2MA C2B 1_555 1_555
O2H O2Q 1_555 1_555
O2H O2P 1_555 1_555
O2H O2HA 1_555 1_555
O2H O2PA 1_555 1_555
O2I O2Q 1_555 1_555
O2I O2P 1_555 1_555
O2I O2IA 1_555 1_555
O2I O2QA 1_555 1_555
O2I C2H 1_555 1_555
O2J O2S 1_555 1_555
O2J O2R 1_555 1_555
O2J O2FA 1_555 1_555
O2J O2OA 1_555 1_555
O2K O2S 1_555 1_555
O2K O2R 1_555 1_555
O2K O2GA 1_555 1_555
O2K O2NA 1_555 1_555
O2K C2J 1_555 1_555
O2S O2GA 1_555 1_555
O2S O2OA 1_555 1_555
O2S C2J 1_555 1_555
O2R O2FA 1_555 1_555
O2R O2NA 1_555 1_555
O2R C2J 1_555 1_555
O2Q O2HA 1_555 1_555
O2Q O2QA 1_555 1_555
O2Q C2H 1_555 1_555
O2P O2IA 1_555 1_555
O2P O2PA 1_555 1_555
O2P C2H 1_555 1_555
O2FA O2OA 1_555 1_555
O2FA O2NA 1_555 1_555
O2FA C2J 1_555 1_555
O2GA O2OA 1_555 1_555
O2GA O2NA 1_555 1_555
O2GA C2J 1_555 1_555
O2HA O2QA 1_555 1_555
O2HA O2PA 1_555 1_555
O2HA C2H 1_555 1_555
O2IA O2QA 1_555 1_555
O2IA O2PA 1_555 1_555
O2IA C2H 1_555 1_555
O2QA C2H 1_555 1_555
O2PA C2H 1_555 1_555
O2OA C2J 1_555 1_555
O2NA C2J 1_555 1_555
O2J_2 O2R_2 1_555 1_555
O2J_2 O2S_2 1_555 1_555
O2J_2 O2FA_2 1_555 1_555
O2J_2 O2OA_2 1_555 1_555
O2K_2 O2R_2 1_555 1_555
O2K_2 O2S_2 1_555 1_555
O2K_2 O2GA_2 1_555 1_555
O2K_2 O2NA_2 1_555 1_555
O2K_2 C2J_2 1_555 1_555
O2H_2 O2P_2 1_555 1_555
O2H_2 O2Q_2 1_555 1_555
O2H_2 O2HA_2 1_555 1_555
O2H_2 O2PA_2 1_555 1_555
O2I_2 O2P_2 1_555 1_555
O2I_2 O2Q_2 1_555 1_555
O2I_2 O2IA_2 1_555 1_555
O2I_2 O2QA_2 1_555 1_555
O2I_2 C2H_2 1_555 1_555
O2P_2 O2IA_2 1_555 1_555
O2P_2 O2PA_2 1_555 1_555
O2P_2 C2H_2 1_555 1_555
O2Q_2 O2HA_2 1_555 1_555
O2Q_2 O2QA_2 1_555 1_555
O2Q_2 C2H_2 1_555 1_555
O2R_2 O2FA_2 1_555 1_555
O2R_2 O2NA_2 1_555 1_555
O2R_2 C2J_2 1_555 1_555
O2S_2 O2GA_2 1_555 1_555
O2S_2 O2OA_2 1_555 1_555
O2S_2 C2J_2 1_555 1_555
O2HA_2 O2PA_2 1_555 1_555
O2HA_2 O2QA_2 1_555 1_555
O2HA_2 C2H_2 1_555 1_555
O2IA_2 O2PA_2 1_555 1_555
O2IA_2 O2QA_2 1_555 1_555
O2IA_2 C2H_2 1_555 1_555
O2FA_2 O2NA_2 1_555 1_555
O2FA_2 O2OA_2 1_555 1_555
O2FA_2 C2J_2 1_555 1_555
O2GA_2 O2NA_2 1_555 1_555
O2GA_2 O2OA_2 1_555 1_555
O2GA_2 C2J_2 1_555 1_555
O2NA_2 C2J_2 1_555 1_555
O2OA_2 C2J_2 1_555 1_555
O2PA_2 C2H_2 1_555 1_555
O2QA_2 C2H_2 1_555 1_555
O2B_2 O2L_2 1_555 1_555
O2B_2 O2M_2 1_555 1_555
O2B_2 O2X_2 1_555 1_555
O2B_2 O2LA_2 1_555 1_555
O2C_2 O2L_2 1_555 1_555
O2C_2 O2M_2 1_555 1_555
O2C_2 O2Y_2 1_555 1_555
O2C_2 O2MA_2 1_555 1_555
O2F O2V 1_555 1_555
O2F O2W 1_555 1_555
O2F O2BA 1_555 1_555
O2F O2RA 1_555 1_555
O2G O2V 1_555 1_555
O2G O2W 1_555 1_555
O2G O2CA 1_555 1_555
O2G O2SA 1_555 1_555
O2D O2T 1_555 1_555
O2D O2U 1_555 1_555
O2D O2DA 1_555 1_555
O2D O2UA 1_555 1_555
O2E O2T 1_555 1_555
O2E O2U 1_555 1_555
O2E O2EA 1_555 1_555
O2E O2TA 1_555 1_555
O2L_2 O2Y_2 1_555 1_555
O2L_2 O2LA_2 1_555 1_555
O2M_2 O2X_2 1_555 1_555
O2M_2 O2MA_2 1_555 1_555
O2V O2CA 1_555 1_555
O2V O2RA 1_555 1_555
O2W O2BA 1_555 1_555
O2W O2SA 1_555 1_555
O2T O2DA 1_555 1_555
O2T O2TA 1_555 1_555
O2U O2EA 1_555 1_555
O2U O2UA 1_555 1_555
O2X_2 O2LA_2 1_555 1_555
O2X_2 O2MA_2 1_555 1_555
O2Y_2 O2LA_2 1_555 1_555
O2Y_2 O2MA_2 1_555 1_555
O2DA O2TA 1_555 1_555
O2DA O2UA 1_555 1_555
O2EA O2TA 1_555 1_555
O2EA O2UA 1_555 1_555
O2BA O2RA 1_555 1_555
O2BA O2SA 1_555 1_555
O2CA O2RA 1_555 1_555
O2CA O2SA 1_555 1_555
C3A C3B 1_555 1_555
C3A C3N 1_555 1_555
C3A C3O 1_555 1_555
C3B C3L 1_555 1_555
C3B C3M 1_555 1_555
C3C C3L 1_555 1_555
C3C C3M 1_555 1_555
C3L C3O 1_555 1_555
C3M C3N 1_555 1_555
C3H C3K 1_555 1_555
C3H C3Q 1_555 1_555
C3H C3P 1_555 1_555
C3I C3J 1_555 1_555
C3I C3Q 1_555 1_555
C3I C3P 1_555 1_555
C3J C3S 1_555 1_555
C3J C3R 1_555 1_555
C3K C3S 1_555 1_555
C3K C3R 1_555 1_555
C3S C3P 1_555 1_555
C3R C3Q 1_555 1_555
C3J_2 C3I_2 1_555 1_555
C3J_2 C3R_2 1_555 1_555
C3J_2 C3S_2 1_555 1_555
C3K_2 C3H_2 1_555 1_555
C3K_2 C3R_2 1_555 1_555
C3K_2 C3S_2 1_555 1_555
C3H_2 C3P_2 1_555 1_555
C3H_2 C3Q_2 1_555 1_555
C3I_2 C3P_2 1_555 1_555
C3I_2 C3Q_2 1_555 1_555
C3P_2 C3S_2 1_555 1_555
C3Q_2 C3R_2 1_555 1_555

#END
