
#######################################################################
#
#                 Cambridge Crystallographic Data Centre
#                                CCDC 
#
#######################################################################
#
# If this CIF has been generated from an entry in the Cambridge 
# Structural Database, then it will include bibliographic, chemical, 
# crystal, experimental, refinement or atomic coordinate data resulting 
# from the CCDC's data processing and validation procedures.
#
#######################################################################

data_AJOQUM
_chemical_formula_moiety         '(C33 H30 O19 Zn4)n,n(C3 H7 N1 O1)'
_chemical_name_systematic        
'catena-(tris(\m~4~-2-(2-methoxyethoxy)-1,4-benzenedicarboxylato)-(\m~4~-oxo)-tetra-zinc(ii) dimethylformamide solvate)'
_symmetry_cell_setting           cubic
_symmetry_space_group_name_H-M   'P m -3 m'
_symmetry_Int_Tables_number      221
_space_group_name_Hall           '-P 4 2 3'
loop_
_symmetry_equiv_pos_site_id
_symmetry_equiv_pos_as_xyz
1 x,y,z
2 -x,-y,z
3 -x,y,-z
4 x,-y,-z
5 z,x,y
6 z,-x,-y
7 -z,-x,y
8 -z,x,-y
9 y,z,x
10 -y,z,-x
11 y,-z,-x
12 -y,-z,x
13 y,x,-z
14 -y,-x,-z
15 y,-x,z
16 -y,x,z
17 x,z,-y
18 -x,z,y
19 -x,-z,-y
20 x,-z,y
21 z,y,-x
22 z,-y,x
23 -z,y,x
24 -z,-y,-x
25 -x,-y,-z
26 x,y,-z
27 x,-y,z
28 -x,y,z
29 -z,-x,-y
30 -z,x,y
31 z,x,-y
32 z,-x,y
33 -y,-z,-x
34 y,-z,x
35 -y,z,x
36 y,z,-x
37 -y,-x,z
38 y,x,z
39 -y,x,-z
40 y,-x,-z
41 -x,-z,y
42 x,-z,-y
43 x,z,y
44 -x,z,-y
45 -z,-y,x
46 -z,y,-x
47 z,-y,-x
48 z,y,x
_cell_length_a                   12.7870(14)
_cell_length_b                   12.7870(14)
_cell_length_c                   12.7870(14)
_cell_angle_alpha                90
_cell_angle_beta                 90
_cell_angle_gamma                90
_cell_volume                     2090.77
_exptl_crystal_colour            colorless
_exptl_crystal_description       cubic
_cell_formula_units_Z            1
loop_
_atom_site_label
_atom_site_type_symbol
_atom_site_fract_x
_atom_site_fract_y
_atom_site_fract_z
O1 O 0.0000 0.0000 0.0000
Zn1 Zn 0.08691(14) 0.08691(14) 0.08691(14)
O2 O 0.0609(5) 0.2375(9) 0.0609(5)
C1 C 0.0000 0.2769(13) 0.0000
C2 C 0.0000 0.389(2) 0.0000
C3 C 0.0799(12) 0.4427(17) 0.0000
Zn1A Zn -0.08691(14) -0.08691(14) 0.08691(14)
Zn1B Zn -0.08691(14) 0.08691(14) -0.08691(14)
Zn1C Zn 0.08691(14) -0.08691(14) -0.08691(14)
Zn1L Zn 0.08691(14) 0.08691(14) -0.08691(14)
Zn1M Zn -0.08691(14) -0.08691(14) -0.08691(14)
Zn1N Zn 0.08691(14) -0.08691(14) 0.08691(14)
Zn1O Zn -0.08691(14) 0.08691(14) 0.08691(14)
Zn1C_2 Zn 0.08691(14) 0.91309(14) -0.08691(14)
Zn1M_2 Zn -0.08691(14) 0.91309(14) -0.08691(14)
Zn1N_2 Zn 0.08691(14) 0.91309(14) 0.08691(14)
Zn1A_2 Zn -0.08691(14) 0.91309(14) 0.08691(14)
Zn1B_2 Zn -0.08691(14) 0.08691(14) 0.91309(14)
Zn1M_3 Zn -0.08691(14) -0.08691(14) 0.91309(14)
Zn1L_2 Zn 0.08691(14) 0.08691(14) 0.91309(14)
Zn1C_3 Zn 0.08691(14) -0.08691(14) 0.91309(14)
Zn1A_3 Zn 0.91309(14) -0.08691(14) 0.08691(14)
Zn1M_4 Zn 0.91309(14) -0.08691(14) -0.08691(14)
Zn1O_2 Zn 0.91309(14) 0.08691(14) 0.08691(14)
Zn1B_3 Zn 0.91309(14) 0.08691(14) -0.08691(14)
O2V O -0.0609(5) 0.2375(9) 0.0609(5)
O2B O -0.0609(5) 0.2375(9) -0.0609(5)
O2T O 0.0609(5) 0.2375(9) -0.0609(5)
O2C O 0.0609(5) 0.7625(9) -0.0609(5)
O2W O -0.0609(5) 0.7625(9) -0.0609(5)
O2U O 0.0609(5) 0.7625(9) 0.0609(5)
O2A O -0.0609(5) 0.7625(9) 0.0609(5)
O2D O 0.0609(5) 0.0609(5) 0.2375(9)
O2S O 0.0609(5) -0.0609(5) 0.2375(9)
O2F O -0.0609(5) -0.0609(5) 0.2375(9)
O2Q O -0.0609(5) 0.0609(5) 0.2375(9)
O2G O -0.0609(5) 0.0609(5) 0.7625(9)
O2R O -0.0609(5) -0.0609(5) 0.7625(9)
O2P O 0.0609(5) 0.0609(5) 0.7625(9)
O2E O 0.0609(5) -0.0609(5) 0.7625(9)
O2H O 0.2375(9) 0.0609(5) 0.0609(5)
O2L O 0.2375(9) 0.0609(5) -0.0609(5)
O2J O 0.2375(9) -0.0609(5) -0.0609(5)
O2N O 0.2375(9) -0.0609(5) 0.0609(5)
O2K O 0.7625(9) -0.0609(5) 0.0609(5)
O2M O 0.7625(9) -0.0609(5) -0.0609(5)
O2O O 0.7625(9) 0.0609(5) 0.0609(5)
O2I O 0.7625(9) 0.0609(5) -0.0609(5)
O2A_2 O -0.0609(5) -0.2375(9) 0.0609(5)
O2K_2 O -0.2375(9) -0.0609(5) 0.0609(5)
O2G_2 O -0.0609(5) 0.0609(5) -0.2375(9)
O2I_2 O -0.2375(9) 0.0609(5) -0.0609(5)
O2C_2 O 0.0609(5) -0.2375(9) -0.0609(5)
O2E_2 O 0.0609(5) -0.0609(5) -0.2375(9)
O2P_2 O 0.0609(5) 0.0609(5) -0.2375(9)
O2M_2 O -0.2375(9) -0.0609(5) -0.0609(5)
O2R_2 O -0.0609(5) -0.0609(5) -0.2375(9)
O2W_2 O -0.0609(5) -0.2375(9) -0.0609(5)
O2U_2 O 0.0609(5) -0.2375(9) 0.0609(5)
O2O_2 O -0.2375(9) 0.0609(5) 0.0609(5)
C1A C 0.0000 0.7231(13) 0.0000
C1D C 0.0000 0.0000 0.2769(13)
C1E C 0.0000 0.0000 0.7231(13)
C1H C 0.2769(13) 0.0000 0.0000
C1I C 0.7231(13) 0.0000 0.0000
C2A C 0.0000 0.611(2) 0.0000
C2D C 0.0000 0.0000 0.389(2)
C2E C 0.0000 0.0000 0.611(2)
C2H C 0.389(2) 0.0000 0.0000
C2I C 0.611(2) 0.0000 0.0000
C3C C 0.0799(12) 0.5573(17) 0.0000
C3A C -0.0799(12) 0.5573(17) 0.0000
C3B C -0.0799(12) 0.4427(17) 0.0000
C3T C 0.0000 0.4427(17) -0.0799(12)
C3W C 0.0000 0.5573(17) -0.0799(12)
C3V C 0.0000 0.4427(17) 0.0799(12)
C3U C 0.0000 0.5573(17) 0.0799(12)
C3D C 0.0000 0.0799(12) 0.4427(17)
C3G C 0.0000 0.0799(12) 0.5573(17)
C3E C 0.0000 -0.0799(12) 0.5573(17)
C3F C 0.0000 -0.0799(12) 0.4427(17)
C3Q C -0.0799(12) 0.0000 0.4427(17)
C3R C -0.0799(12) 0.0000 0.5573(17)
C3S C 0.0799(12) 0.0000 0.4427(17)
C3P C 0.0799(12) 0.0000 0.5573(17)
C3H C 0.4427(17) 0.0000 0.0799(12)
C3K C 0.5573(17) 0.0000 0.0799(12)
C3I C 0.5573(17) 0.0000 -0.0799(12)
C3J C 0.4427(17) 0.0000 -0.0799(12)
C3N C 0.4427(17) -0.0799(12) 0.0000
C3M C 0.5573(17) -0.0799(12) 0.0000
C3L C 0.4427(17) 0.0799(12) 0.0000
C3O C 0.5573(17) 0.0799(12) 0.0000
loop_
_geom_bond_atom_site_label_1
_geom_bond_atom_site_label_2
_geom_bond_site_symmetry_1
_geom_bond_site_symmetry_2
O1 Zn1 1_555 1_555
Zn1 O2 1_555 1_555
O2 C1 1_555 1_555
C1 C2 1_555 1_555
C2 C3 1_555 1_555
C3 C3C 1_555 1_555
Zn1A O1 1_555 1_555
Zn1B O1 1_555 1_555
Zn1C O1 1_555 1_555
Zn1L O1 1_555 1_555
Zn1M O1 1_555 1_555
Zn1N O1 1_555 1_555
Zn1O O1 1_555 1_555
Zn1C_2 Zn1M_2 1_555 1_555
Zn1M_2 Zn1A_2 1_555 1_555
Zn1N_2 Zn1C_2 1_555 1_555
Zn1A_2 Zn1N_2 1_555 1_555
Zn1B_2 Zn1M_3 1_555 1_555
Zn1M_3 Zn1C_3 1_555 1_555
Zn1L_2 Zn1B_2 1_555 1_555
Zn1C_3 Zn1L_2 1_555 1_555
Zn1A_3 Zn1M_4 1_555 1_555
Zn1M_4 Zn1B_3 1_555 1_555
Zn1O_2 Zn1A_3 1_555 1_555
Zn1B_3 Zn1O_2 1_555 1_555
O2V O2 1_555 1_555
O2B C1 1_555 1_555
O2T O2 1_555 1_555
O2C Zn1C_2 1_555 1_555
O2W Zn1M_2 1_555 1_555
O2U Zn1N_2 1_555 1_555
O2A Zn1A_2 1_555 1_555
O2D Zn1 1_555 1_555
O2S Zn1N 1_555 1_555
O2F Zn1A 1_555 1_555
O2Q Zn1O 1_555 1_555
O2G Zn1B_2 1_555 1_555
O2R Zn1M_3 1_555 1_555
O2P Zn1L_2 1_555 1_555
O2E Zn1C_3 1_555 1_555
O2H Zn1 1_555 1_555
O2L Zn1L 1_555 1_555
O2J Zn1C 1_555 1_555
O2N Zn1N 1_555 1_555
O2K Zn1A_3 1_555 1_555
O2M Zn1M_4 1_555 1_555
O2O Zn1O_2 1_555 1_555
O2I Zn1B_3 1_555 1_555
O2A_2 Zn1A 1_555 1_555
O2K_2 Zn1A 1_555 1_555
O2G_2 Zn1B 1_555 1_555
O2I_2 Zn1B 1_555 1_555
O2C_2 Zn1C 1_555 1_555
O2E_2 Zn1C 1_555 1_555
O2P_2 Zn1L 1_555 1_555
O2M_2 Zn1M 1_555 1_555
O2R_2 Zn1M 1_555 1_555
O2W_2 Zn1M 1_555 1_555
O2U_2 Zn1N 1_555 1_555
O2O_2 Zn1O 1_555 1_555
C1A O2C 1_555 1_555
C1D O2D 1_555 1_555
C1E O2G 1_555 1_555
C1H O2H 1_555 1_555
C1I O2K 1_555 1_555
C2A C1A 1_555 1_555
C2D C1D 1_555 1_555
C2E C1E 1_555 1_555
C2H C1H 1_555 1_555
C2I C1I 1_555 1_555
C3C C2A 1_555 1_555
C3A C2A 1_555 1_555
C3B C2 1_555 1_555
C3T C2 1_555 1_555
C3W C2A 1_555 1_555
C3V C2 1_555 1_555
C3U C2A 1_555 1_555
C3D C2D 1_555 1_555
C3G C2E 1_555 1_555
C3E C2E 1_555 1_555
C3F C2D 1_555 1_555
C3Q C2D 1_555 1_555
C3R C2E 1_555 1_555
C3S C2D 1_555 1_555
C3P C2E 1_555 1_555
C3H C2H 1_555 1_555
C3K C2I 1_555 1_555
C3I C2I 1_555 1_555
C3J C2H 1_555 1_555
C3N C2H 1_555 1_555
C3M C2I 1_555 1_555
C3L C2H 1_555 1_555
C3O C2I 1_555 1_555
Zn1 Zn1L 1_555 1_555
Zn1 Zn1N 1_555 1_555
Zn1 Zn1O 1_555 1_555
C1 O2V 1_555 1_555
C1 O2T 1_555 1_555
C3 C3T 1_555 1_555
C3 C3V 1_555 1_555
Zn1A Zn1M 1_555 1_555
Zn1A Zn1N 1_555 1_555
Zn1A Zn1O 1_555 1_555
Zn1B Zn1L 1_555 1_555
Zn1B Zn1M 1_555 1_555
Zn1B Zn1O 1_555 1_555
Zn1B O2B 1_555 1_555
Zn1C Zn1L 1_555 1_555
Zn1C Zn1M 1_555 1_555
Zn1C Zn1N 1_555 1_555
Zn1L O2T 1_555 1_555
Zn1O O2V 1_555 1_555
O2V O2B 1_555 1_555
O2B O2T 1_555 1_555
O2C O2W 1_555 1_555
O2C O2U 1_555 1_555
O2W O2A 1_555 1_555
O2W C1A 1_555 1_555
O2U O2A 1_555 1_555
O2U C1A 1_555 1_555
O2A C1A 1_555 1_555
O2D O2S 1_555 1_555
O2D O2Q 1_555 1_555
O2S O2F 1_555 1_555
O2S C1D 1_555 1_555
O2F O2Q 1_555 1_555
O2F C1D 1_555 1_555
O2Q C1D 1_555 1_555
O2G O2R 1_555 1_555
O2G O2P 1_555 1_555
O2R O2E 1_555 1_555
O2R C1E 1_555 1_555
O2P O2E 1_555 1_555
O2P C1E 1_555 1_555
O2E C1E 1_555 1_555
O2H O2L 1_555 1_555
O2H O2N 1_555 1_555
O2L O2J 1_555 1_555
O2L C1H 1_555 1_555
O2J O2N 1_555 1_555
O2J C1H 1_555 1_555
O2N C1H 1_555 1_555
O2K O2M 1_555 1_555
O2K O2O 1_555 1_555
O2M O2I 1_555 1_555
O2M C1I 1_555 1_555
O2O O2I 1_555 1_555
O2O C1I 1_555 1_555
O2I C1I 1_555 1_555
O2A_2 O2W_2 1_555 1_555
O2A_2 O2U_2 1_555 1_555
O2K_2 O2M_2 1_555 1_555
O2K_2 O2O_2 1_555 1_555
O2G_2 O2P_2 1_555 1_555
O2G_2 O2R_2 1_555 1_555
O2I_2 O2M_2 1_555 1_555
O2I_2 O2O_2 1_555 1_555
O2C_2 O2W_2 1_555 1_555
O2C_2 O2U_2 1_555 1_555
O2E_2 O2P_2 1_555 1_555
O2E_2 O2R_2 1_555 1_555
C3C C3W 1_555 1_555
C3C C3U 1_555 1_555
C3A C3B 1_555 1_555
C3A C3W 1_555 1_555
C3A C3U 1_555 1_555
C3B C3T 1_555 1_555
C3B C3V 1_555 1_555
C3T C3W 1_555 1_555
C3V C3U 1_555 1_555
C3D C3G 1_555 1_555
C3D C3Q 1_555 1_555
C3D C3S 1_555 1_555
C3G C3R 1_555 1_555
C3G C3P 1_555 1_555
C3E C3F 1_555 1_555
C3E C3R 1_555 1_555
C3E C3P 1_555 1_555
C3F C3Q 1_555 1_555
C3F C3S 1_555 1_555
C3Q C3R 1_555 1_555
C3S C3P 1_555 1_555
C3H C3K 1_555 1_555
C3H C3N 1_555 1_555
C3H C3L 1_555 1_555
C3K C3M 1_555 1_555
C3K C3O 1_555 1_555
C3I C3J 1_555 1_555
C3I C3M 1_555 1_555
C3I C3O 1_555 1_555
C3J C3N 1_555 1_555
C3J C3L 1_555 1_555
C3N C3M 1_555 1_555
C3L C3O 1_555 1_555

#END
