
#######################################################################
#
#                 Cambridge Crystallographic Data Centre
#                                CCDC 
#
#######################################################################
#
# If this CIF has been generated from an entry in the Cambridge 
# Structural Database, then it will include bibliographic, chemical, 
# crystal, experimental, refinement or atomic coordinate data resulting 
# from the CCDC's data processing and validation procedures.
#
#######################################################################

data_AJOQEW
_chemical_formula_moiety         '(C42 H48 O25 Zn4)n,n(C3 H7 N1 O1)'
_chemical_name_systematic        
'catena-(tris(\m~4~-2,5-bis(2-methoxyethoxy)-1,4-benzenedicarboxylato)-(\m~4~-oxo)-tetra-zinc(ii) dimethylformamide solvate)'
_symmetry_cell_setting           cubic
_symmetry_space_group_name_H-M   'P m -3 m'
_symmetry_Int_Tables_number      221
_space_group_name_Hall           '-P 4 2 3'
loop_
_symmetry_equiv_pos_site_id
_symmetry_equiv_pos_as_xyz
1 x,y,z
2 -x,-y,z
3 -x,y,-z
4 x,-y,-z
5 z,x,y
6 z,-x,-y
7 -z,-x,y
8 -z,x,-y
9 y,z,x
10 -y,z,-x
11 y,-z,-x
12 -y,-z,x
13 y,x,-z
14 -y,-x,-z
15 y,-x,z
16 -y,x,z
17 x,z,-y
18 -x,z,y
19 -x,-z,-y
20 x,-z,y
21 z,y,-x
22 z,-y,x
23 -z,y,x
24 -z,-y,-x
25 -x,-y,-z
26 x,y,-z
27 x,-y,z
28 -x,y,z
29 -z,-x,-y
30 -z,x,y
31 z,x,-y
32 z,-x,y
33 -y,-z,-x
34 y,-z,x
35 -y,z,x
36 y,z,-x
37 -y,-x,z
38 y,x,z
39 -y,x,-z
40 y,-x,-z
41 -x,-z,y
42 x,-z,-y
43 x,z,y
44 -x,z,-y
45 -z,-y,x
46 -z,y,-x
47 z,-y,-x
48 z,y,x
_cell_length_a                   12.8336(3)
_cell_length_b                   12.8336(3)
_cell_length_c                   12.8336(3)
_cell_angle_alpha                90
_cell_angle_beta                 90
_cell_angle_gamma                90
_cell_volume                     2113.71
_exptl_crystal_colour            colorless
_exptl_crystal_description       cubic
_cell_formula_units_Z            1
loop_
_atom_site_label
_atom_site_type_symbol
_atom_site_fract_x
_atom_site_fract_y
_atom_site_fract_z
C1 C 0.0000 -0.6134(12) 0.0000
C2 C 0.0000 -0.7203(9) 0.0000
C3 C -0.0761(13) -0.5496(15) 0.0000
O1 O -0.171(4) -0.5850(18) 0.0000
O2 O 0.0619(6) -0.7655(5) -0.0619(5)
O3 O 0.0000 -1.0000 0.0000
Zn1 Zn 0.08669(9) -0.91331(9) -0.08669(9)
C3B C 0.0761(13) -0.5496(15) 0.0000
C3T C 0.0000 -0.5496(15) 0.0761(13)
C3V C 0.0000 -0.5496(15) -0.0761(13)
C3C C -0.0761(13) -0.4504(15) 0.0000
O2B O -0.0619(6) -0.7655(5) 0.0619(5)
O2T O -0.0619(5) -0.7655(5) -0.0619(6)
O2V O 0.0619(5) -0.7655(5) 0.0619(6)
O2J O 0.2345(5) -0.9381(5) -0.0619(6)
O2G O 0.0619(5) -0.9381(6) -0.2345(5)
Zn1B Zn -0.08669(9) -0.91331(9) 0.08669(9)
Zn1C Zn 0.08669(9) -1.08669(9) 0.08669(9)
Zn1A Zn -0.08669(9) -1.08669(9) -0.08669(9)
Zn1N Zn 0.08669(9) -1.08669(9) -0.08669(9)
Zn1O Zn -0.08669(9) -0.91331(9) -0.08669(9)
Zn1L Zn 0.08669(9) -0.91331(9) 0.08669(9)
Zn1M Zn -0.08669(9) -1.08669(9) 0.08669(9)
loop_
_geom_bond_atom_site_label_1
_geom_bond_atom_site_label_2
_geom_bond_site_symmetry_1
_geom_bond_site_symmetry_2
C1 C2 1_555 1_555
C2 O2 1_555 1_555
C3 C1 1_555 1_555
O1 C3 1_555 1_555
O2 Zn1 1_555 1_555
O3 Zn1 1_555 1_555
Zn1 O2J 1_555 1_555
C3B C1 1_555 1_555
C3T C1 1_555 1_555
C3V C1 1_555 1_555
C3C C3 1_555 1_555
O2B C2 1_555 1_555
O2T C2 1_555 1_555
O2V C2 1_555 1_555
O2G Zn1 1_555 1_555
Zn1B O3 1_555 1_555
Zn1C O3 1_555 1_555
Zn1A O3 1_555 1_555
Zn1N O3 1_555 1_555
Zn1O O3 1_555 1_555
Zn1L O3 1_555 1_555
Zn1M O3 1_555 1_555
C3 C3T 1_555 1_555
C3 C3V 1_555 1_555
O2 O2T 1_555 1_555
O2 O2V 1_555 1_555
Zn1 Zn1N 1_555 1_555
Zn1 Zn1O 1_555 1_555
Zn1 Zn1L 1_555 1_555
C3B C3T 1_555 1_555
C3B C3V 1_555 1_555
O2B O2T 1_555 1_555
O2B O2V 1_555 1_555
O2B Zn1B 1_555 1_555
O2T Zn1O 1_555 1_555
O2V Zn1L 1_555 1_555
Zn1B Zn1O 1_555 1_555
Zn1B Zn1L 1_555 1_555
Zn1B Zn1M 1_555 1_555
Zn1C Zn1N 1_555 1_555
Zn1C Zn1L 1_555 1_555
Zn1C Zn1M 1_555 1_555
Zn1A Zn1N 1_555 1_555
Zn1A Zn1O 1_555 1_555
Zn1A Zn1M 1_555 1_555

#END
