
#######################################################################
#
#                 Cambridge Crystallographic Data Centre
#                                CCDC 
#
#######################################################################
#
# If this CIF has been generated from an entry in the Cambridge 
# Structural Database, then it will include bibliographic, chemical, 
# crystal, experimental, refinement or atomic coordinate data resulting 
# from the CCDC's data processing and validation procedures.
#
#######################################################################

data_AJORAT
_chemical_formula_moiety         '(C34 H44 N2 O16 Zn2)n,n(C3 H7 N1 O1)'
_chemical_name_systematic        
'catena-(bis(\m~4~-2,5-bis(2-methoxyethoxy)-1,4-benzenedicarboxylato)-(\m~2~-1,4-diazabicyclo(2.2.2)octane)-di-zinc(ii) dimethylformamide solvate)'
_symmetry_cell_setting           monoclinic
_symmetry_space_group_name_H-M   'C 2/m'
_symmetry_Int_Tables_number      12
_space_group_name_Hall           '-C 2y'
loop_
_symmetry_equiv_pos_site_id
_symmetry_equiv_pos_as_xyz
1 x,y,z
2 -x,y,-z
3 1/2+x,1/2+y,z
4 1/2-x,1/2+y,-z
5 -x,-y,-z
6 x,-y,z
7 1/2-x,1/2-y,-z
8 1/2+x,1/2-y,z
_cell_length_a                   16.813(4)
_cell_length_b                   13.834(4)
_cell_length_c                   9.5802(15)
_cell_angle_alpha                90
_cell_angle_beta                 91.434(15)
_cell_angle_gamma                90
_cell_volume                     2227.57
_exptl_crystal_colour            colorless
_exptl_crystal_description       prism
_cell_formula_units_Z            2
loop_
_atom_site_label
_atom_site_type_symbol
_atom_site_fract_x
_atom_site_fract_y
_atom_site_fract_z
Zn1 Zn 0.49836(6) 0.0000 1.34764(9)
O1 O 0.4134(4) -0.1027(5) 1.3805(6)
O2 O 0.4173(4) -0.1035(5) 1.6148(7)
N1 N 0.4993(4) 0.0000 1.1324(7)
C1 C 0.3884(5) -0.1257(6) 1.4980(9)
C2 C 0.3163(6) -0.1909(7) 1.5003(9)
C3 C 0.5649(12) 0.0611(17) 1.0860(15)
C4 C 0.5679(10) 0.0587(18) 0.9230(17)
C5 C 0.492(2) 0.0990(15) 1.0792(17)
C6 C 0.2538(11) -0.1686(15) 1.593(2)
C7 C 0.3155(13) -0.2666(11) 1.4020(18)
Zn1A Zn 0.50164(6) 0.0000 0.65236(9)
Zn1A_2 Zn 0.50164(6) 0.0000 1.65236(9)
Zn1B Zn -0.00164(6) -0.5000 1.34764(9)
Zn1B_2 Zn -0.00164(6) 0.5000 1.34764(9)
Zn1C Zn 0.00164(6) -0.5000 1.65236(9)
Zn1C_2 Zn 0.00164(6) 0.5000 1.65236(9)
O1F O 0.0866(4) -0.3973(5) 1.6195(6)
O1E O 0.4134(4) 0.1027(5) 1.3805(6)
O1C O 0.0866(4) 0.3973(5) 1.6195(6)
O1D O 0.5866(4) 0.1027(5) 0.6195(6)
O1A O 0.5866(4) -0.1027(5) 0.6195(6)
O2F O 0.0827(4) -0.3965(5) 1.3852(7)
O2E O 0.4173(4) 0.1035(5) 1.6148(7)
O2C O 0.0827(4) 0.3965(5) 1.3852(7)
O2_2 O 0.4173(4) -0.1035(5) 0.6148(7)
O2A O 0.5827(4) -0.1035(5) 1.3852(7)
O2D O 0.5827(4) 0.1035(5) 1.3852(7)
O2E_2 O 0.4173(4) 0.1035(5) 0.6148(7)
N1A N 0.5007(4) 0.0000 0.8676(7)
C1F C 0.1116(5) -0.3743(6) 1.5020(9)
C1E C 0.3884(5) 0.1257(6) 1.4980(9)
C1C C 0.1116(5) 0.3743(6) 1.5020(9)
C2F C 0.1837(6) -0.3091(7) 1.4997(9)
C2E C 0.3163(6) 0.1909(7) 1.5003(9)
C2C C 0.1837(6) 0.3091(7) 1.4997(9)
C3A C 0.4351(12) 0.0611(17) 0.9140(15)
C3D C 0.4351(12) -0.0611(17) 0.9140(15)
C3E C 0.5649(12) -0.0611(17) 1.0860(15)
C4A C 0.4321(10) 0.0587(18) 1.0770(17)
C4D C 0.4321(10) -0.0587(18) 1.0770(17)
C4E C 0.5679(10) -0.0587(18) 0.9230(17)
C5A C 0.508(2) 0.0990(15) 0.9208(17)
C5D C 0.508(2) -0.0990(15) 0.9208(17)
C5E C 0.492(2) -0.0990(15) 1.0792(17)
C6F C 0.2462(11) -0.3314(15) 1.407(2)
C6E C 0.2538(11) 0.1686(15) 1.593(2)
C6C C 0.2462(11) 0.3314(15) 1.407(2)
C7F C 0.1845(13) -0.2334(11) 1.5980(18)
C7E C 0.3155(13) 0.2666(11) 1.4020(18)
C7C C 0.1845(13) 0.2334(11) 1.5980(18)
C8? C 0.6860(13) -0.2649(13) 0.400(2)
C9? C 0.7430(11) -0.1702(15) 0.599(2)
loop_
_geom_bond_atom_site_label_1
_geom_bond_atom_site_label_2
_geom_bond_site_symmetry_1
_geom_bond_site_symmetry_2
Zn1 O1 1_555 1_555
O1 C1 1_555 1_555
O2 C1 1_555 1_555
N1 Zn1 1_555 1_555
C1 C2 1_555 1_555
C2 C6 1_555 1_555
C3 N1 1_555 1_555
C4 C3 1_555 1_555
C5 N1 1_555 1_555
C6 C7F 1_555 1_555
C7 C2 1_555 1_555
Zn1A O1D 1_555 1_555
Zn1A_2 O2 1_555 1_555
Zn1B O2F 1_555 1_555
Zn1B_2 O2C 1_555 1_555
Zn1C O1F 1_555 1_555
Zn1C_2 O1C 1_555 1_555
O1F C1F 1_555 1_555
O1E Zn1 1_555 1_555
O1C C1C 1_555 1_555
O1A Zn1A 1_555 1_555
O2F C1F 1_555 1_555
O2E Zn1A_2 1_555 1_555
O2C C1C 1_555 1_555
O2_2 Zn1A 1_555 1_555
O2A Zn1 1_555 1_555
O2D Zn1 1_555 1_555
O2E_2 Zn1A 1_555 1_555
N1A C4 1_555 1_555
C1F C2F 1_555 1_555
C1E O1E 1_555 1_555
C1C C2C 1_555 1_555
C2F C6F 1_555 1_555
C2E C1E 1_555 1_555
C2C C6C 1_555 1_555
C3A N1A 1_555 1_555
C3D N1A 1_555 1_555
C3E N1 1_555 1_555
C4A N1 1_555 1_555
C4D N1 1_555 1_555
C4E C4 1_555 1_555
C5A C4 1_555 1_555
C5D N1A 1_555 1_555
C5E N1 1_555 1_555
C6F C7 1_555 1_555
C6E C2E 1_555 1_555
C6C C7E 1_555 1_555
C7F C2F 1_555 1_555
C7E C2E 1_555 1_555
C7C C2C 1_555 1_555
C3 C5 1_555 1_555
C3 C3E 1_555 1_555
C5 C4A 1_555 1_555
C5 C5A 1_555 1_555
Zn1A N1A 1_555 1_555
O2E C1E 1_555 1_555
N1A C4E 1_555 1_555
N1A C5A 1_555 1_555
C3A C3D 1_555 1_555
C3A C4A 1_555 1_555
C3A C5A 1_555 1_555
C3D C4D 1_555 1_555
C3D C5D 1_555 1_555
C3E C4E 1_555 1_555
C3E C5E 1_555 1_555
C4A C4D 1_555 1_555
C4D C5E 1_555 1_555
C4E C5D 1_555 1_555
C5D C5E 1_555 1_555
C6E C7C 1_555 1_555

#END
