
#######################################################################
#
#                 Cambridge Crystallographic Data Centre
#                                CCDC 
#
#######################################################################
#
# If this CIF has been generated from an entry in the Cambridge 
# Structural Database, then it will include bibliographic, chemical, 
# crystal, experimental, refinement or atomic coordinate data resulting 
# from the CCDC's data processing and validation procedures.
#
#######################################################################

data_AWEXUX
_chemical_name_common            TMU-23
_chemical_formula_moiety         '(C46 H30 N4 O12 Zn2)n,5n(C3 H7 N1 O1)'
_chemical_name_systematic        
"catena-[(\m-N-(4-(isonicotinoylamino)phenyl)isonicotinamide)-bis(\m-4,4'-oxydibenzoato)-di-zinc N,N-dimethylformamide solvate]"
_symmetry_cell_setting           monoclinic
_symmetry_space_group_name_H-M   'P 21/c'
_symmetry_Int_Tables_number      14
_space_group_name_Hall           '-P 2ybc'
loop_
_symmetry_equiv_pos_site_id
_symmetry_equiv_pos_as_xyz
1 x,y,z
2 -x,1/2+y,1/2-z
3 -x,-y,-z
4 x,1/2-y,1/2+z
_cell_length_a                   15.110
_cell_length_b                   24.110
_cell_length_c                   15.910
_cell_angle_alpha                90
_cell_angle_beta                 112.10
_cell_angle_gamma                90
_cell_volume                     5370.2
_exptl_crystal_colour            yellow
_exptl_crystal_description       prism
_cell_formula_units_Z            4
loop_
_atom_site_label
_atom_site_type_symbol
_atom_site_fract_x
_atom_site_fract_y
_atom_site_fract_z
_atom_site_U_iso_or_equiv
_atom_site_thermal_displace_type
Zn1 Zn 0.31172(3) 0.72637(2) 0.35899(2) 0.0445 Uani
Zn2 Zn 0.16336(3) 0.72591(2) 0.13459(2) 0.0442 Uani
O1 O 0.27855(19) 0.68379(11) 0.14062(17) 0.0561 Uani
O2 O 0.3681(2) 0.68358(13) 0.28828(17) 0.0622 Uani
O3 O 0.6481(2) 0.56357(12) 0.1368(2) 0.0659 Uani
O4 O 0.5819(2) 0.30274(12) 0.15386(19) 0.0610 Uani
O5 O 0.72187(19) 0.30528(11) 0.14066(19) 0.0537 Uani
O6 O 0.1054(2) 0.68434(13) 0.20554(18) 0.0625 Uani
O7 O 0.19212(19) 0.69182(11) 0.35343(18) 0.0569 Uani
O8 O -0.1651(2) 0.56278(13) 0.3667(2) 0.0697 Uani
O9 O -0.0754(3) 0.30433(13) 0.3550(2) 0.0700 Uani
O10 O -0.2192(2) 0.30165(12) 0.3583(2) 0.0609 Uani
O11 O 0.8865(4) 0.85039(16) 1.1845(2) 0.1061 Uani
N1 N 0.4033(2) 0.70851(13) 0.48730(17) 0.0465 Uani
N2 N 0.5970(3) 0.71894(17) 0.8260(2) 0.0670 Uani
H1 H 0.5376 0.7123 0.8198 0.0810 Uiso
N3 N 0.8604(3) 0.75888(16) 1.1806(2) 0.0652 Uani
H2 H 0.8788 0.7287 1.2137 0.0780 Uiso
N4 N 1.07682(19) 0.78960(13) 1.50307(17) 0.0454 Uani
C1 C 0.3535(2) 0.67312(13) 0.2073(2) 0.0443 Uani
C2 C 0.4332(2) 0.64585(13) 0.1889(2) 0.0462 Uani
C3 C 0.4228(3) 0.6336(2) 0.1006(3) 0.0694 Uani
H3 H 0.3657 0.6434 0.0516 0.0830 Uiso
C4 C 0.5177(3) 0.63231(18) 0.2591(3) 0.0593 Uani
H4 H 0.5260 0.6414 0.3197 0.0710 Uiso
C5 C 0.5901(3) 0.60569(18) 0.2421(3) 0.0655 Uani
H5 H 0.6483 0.5968 0.2904 0.0780 Uiso
C6 C 0.4962(4) 0.6070(2) 0.0841(3) 0.0759 Uani
H6 H 0.4900 0.5991 0.0236 0.0910 Uiso
C7 C 0.5765(3) 0.59226(16) 0.1544(3) 0.0561 Uani
C8 C 0.6440(2) 0.50675(16) 0.1397(3) 0.0529 Uani
C9 C 0.5726(3) 0.47718(17) 0.1560(3) 0.0614 Uani
H7 H 0.5219 0.4964 0.1648 0.0740 Uiso
C10 C 0.7172(3) 0.47786(17) 0.1258(3) 0.0575 Uani
H8 H 0.7657 0.4975 0.1138 0.0690 Uiso
C11 C 0.7192(2) 0.42095(15) 0.1294(3) 0.0527 Uani
H9 H 0.7697 0.4016 0.1203 0.0630 Uiso
C12 C 0.5758(3) 0.42030(17) 0.1593(3) 0.0568 Uani
H10 H 0.5273 0.4005 0.1710 0.0680 Uiso
C13 C 0.6491(2) 0.39116(15) 0.1459(2) 0.0478 Uani
C14 C 0.6492(3) 0.32955(15) 0.1474(2) 0.0480 Uani
C15 C 0.1185(2) 0.67768(13) 0.2872(2) 0.0449 Uani
C16 C 0.0408(2) 0.65008(13) 0.3078(2) 0.0450 Uani
C17 C 0.0476(3) 0.64397(19) 0.3969(3) 0.0642 Uani
H11 H 0.1008 0.6592 0.4450 0.0770 Uiso
C18 C -0.0389(3) 0.62910(16) 0.2377(2) 0.0551 Uani
H12 H -0.0455 0.6342 0.1765 0.0660 Uiso
C19 C -0.0220(4) 0.6161(2) 0.4160(3) 0.0735 Uani
H13 H -0.0174 0.6125 0.4770 0.0880 Uiso
C20 C -0.1088(3) 0.60086(17) 0.2572(3) 0.0619 Uani
H14 H -0.1634 0.5866 0.2096 0.0740 Uiso
C21 C -0.0981(3) 0.59361(15) 0.3466(3) 0.0573 Uani
C22 C -0.1561(3) 0.50581(16) 0.3635(3) 0.0572 Uani
C23 C -0.2301(3) 0.47473(17) 0.3730(3) 0.0608 Uani
H15 H -0.2821 0.4928 0.3814 0.0730 Uiso
C24 C -0.0806(3) 0.47905(18) 0.3514(3) 0.0635 Uani
H16 H -0.0303 0.5000 0.3451 0.0770 Uiso
C25 C -0.2267(3) 0.41754(16) 0.3700(3) 0.0583 Uani
H17 H -0.2769 0.3965 0.3763 0.0700 Uiso
C26 C -0.0786(3) 0.42157(17) 0.3487(3) 0.0591 Uani
H18 H -0.0267 0.4034 0.3403 0.0710 Uiso
C27 C -0.1519(3) 0.39028(15) 0.3580(2) 0.0512 Uani
C28 C -0.1466(3) 0.32875(16) 0.3565(2) 0.0540 Uani
C29 C 0.3769(2) 0.70853(16) 0.5581(2) 0.0491 Uani
H19 H 0.3106 0.7076 0.5474 0.0590 Uiso
C30 C 0.4964(3) 0.7063(3) 0.5033(3) 0.0792 Uani
H20 H 0.5160 0.7045 0.4532 0.0950 Uiso
C31 C 0.4422(3) 0.70991(18) 0.6469(2) 0.0534 Uani
H21 H 0.4207 0.7108 0.6959 0.0640 Uiso
C32 C 0.5644(3) 0.7067(3) 0.5888(3) 0.0839 Uani
H22 H 0.6301 0.7046 0.5975 0.1010 Uiso
C33 C 0.5376(3) 0.70994(19) 0.6635(2) 0.0580 Uani
C34 C 0.6169(3) 0.7187(2) 0.7537(3) 0.0756 Uani
C35 C 0.6656(3) 0.72943(18) 0.9154(3) 0.0621 Uani
C36 C 0.6741(4) 0.6933(2) 0.9851(3) 0.0775 Uani
H23 H 0.6353 0.6610 0.9730 0.0930 Uiso
C37 C 0.7199(4) 0.7762(2) 0.9338(3) 0.0682 Uani
H24 H 0.7121 0.8020 0.8865 0.0820 Uiso
C38 C 0.7870(3) 0.7871(2) 1.0207(3) 0.0641 Uani
H25 H 0.8262 0.8192 1.0318 0.0770 Uiso
C39 C 0.7382(4) 0.7033(2) 1.0721(3) 0.0789 Uani
H26 H 0.7432 0.6780 1.1193 0.0940 Uiso
C40 C 0.7954(3) 0.75029(19) 1.0908(2) 0.0591 Uani
C41 C 0.8974(3) 0.80527(18) 1.2219(3) 0.0613 Uani
C42 C 0.9593(3) 0.79925(17) 1.3212(2) 0.0549 Uani
C43 C 0.9229(3) 0.7828(2) 1.3859(3) 0.0764 Uani
H27 H 0.8570 0.7743 1.3682 0.0910 Uiso
C44 C 1.0552(3) 0.81011(19) 1.3499(2) 0.0615 Uani
H28 H 1.0827 0.8215 1.3079 0.0740 Uiso
C45 C 0.9826(3) 0.7790(2) 1.4748(3) 0.0704 Uani
H29 H 0.9567 0.7684 1.5184 0.0840 Uiso
C46 C 1.1113(2) 0.80428(17) 1.4408(2) 0.0539 Uani
H30 H 1.1780 0.8111 1.4597 0.0650 Uiso
O12 O 0.6987(3) 0.7292(2) 0.7565(3) 0.1219 Uani
Zn1A Zn 0.68828(3) 0.22637(2) 0.14101(2) 0.0445 Uani
Zn2A Zn -0.16336(3) 0.22591(2) 0.36541(2) 0.0442 Uani
Zn2C Zn 1.16336(3) 0.77409(2) 1.63459(2) 0.0442 Uani
O4A O 0.4181(2) 0.80274(12) 0.34614(19) 0.0610 Uani
O5A O 0.27813(19) 0.80528(11) 0.35934(19) 0.0537 Uani
O9A O 0.0754(3) 0.80433(13) 0.1450(2) 0.0700 Uani
O10A O 0.2192(2) 0.80165(12) 0.1417(2) 0.0609 Uani
N4C N 0.07682(19) 0.71040(13) 0.00307(17) 0.0454 Uani
loop_
_atom_site_aniso_label
_atom_site_aniso_U_11
_atom_site_aniso_U_22
_atom_site_aniso_U_33
_atom_site_aniso_U_23
_atom_site_aniso_U_13
_atom_site_aniso_U_12
Zn1 0.0375(3) 0.0659(3) 0.0269(2) -0.00894(12) 0.00860(18) -0.00322(13)
Zn2 0.0366(3) 0.0668(3) 0.0262(2) 0.00722(12) 0.00823(18) 0.00570(13)
O1 0.0471(13) 0.0756(15) 0.0401(12) 0.0032(10) 0.0100(11) 0.0200(11)
O2 0.0530(15) 0.0918(19) 0.0381(12) -0.0157(11) 0.0129(12) 0.0140(13)
O3 0.0479(14) 0.0675(15) 0.086(2) -0.0167(13) 0.0295(15) 0.0073(11)
O4 0.0574 0.0758 0.0539 -0.0041 0.0255 -0.0025
O5 0.0424 0.0636 0.0538 -0.0029 0.0167 0.0082
O6 0.0515(15) 0.0915(19) 0.0412(13) 0.0129(12) 0.0138(12) -0.0110(13)
O7 0.0455(13) 0.0746(15) 0.0464(13) -0.0086(11) 0.0124(11) -0.0179(11)
O8 0.0576(16) 0.0644(15) 0.093(2) 0.0149(14) 0.0349(16) -0.0091(12)
O9 0.077(2) 0.0730(17) 0.0687(18) 0.0086(14) 0.0375(17) -0.0007(15)
O10 0.0556(15) 0.0664(15) 0.0580(16) 0.0059(12) 0.0183(13) -0.0127(12)
O11 0.125(4) 0.091(2) 0.064(2) 0.0067(17) -0.008(2) -0.004(2)
N1 0.0355(13) 0.0742(16) 0.0268(12) -0.0035(11) 0.0083(11) -0.0034(12)
N2 0.0385(17) 0.119(3) 0.0322(15) -0.0086(15) 0.0003(15) 0.0075(16)
N3 0.061(2) 0.083(2) 0.0368(15) 0.0001(14) 0.0016(15) 0.0077(17)
N4 0.0315 0.0728 0.0275 -0.0035 0.0061 -0.0057
C1 0.0437(16) 0.0517(15) 0.0334(14) -0.0016(11) 0.0097(13) 0.0074(12)
C2 0.0470(17) 0.0518(15) 0.0349(14) -0.0045(11) 0.0098(13) 0.0112(12)
C3 0.060(2) 0.103(3) 0.0350(17) -0.0074(17) 0.0064(17) 0.032(2)
C4 0.0467(18) 0.084(2) 0.0373(17) -0.0137(15) 0.0044(15) 0.0141(17)
C5 0.0439(18) 0.084(2) 0.054(2) -0.0148(18) 0.0019(17) 0.0159(17)
C6 0.066(3) 0.113(3) 0.043(2) -0.016(2) 0.014(2) 0.031(2)
C7 0.0462(18) 0.0627(18) 0.057(2) -0.0112(15) 0.0166(17) 0.0106(14)
C8 0.0385(15) 0.0657(19) 0.0519(19) -0.0143(14) 0.0139(15) 0.0073(13)
C9 0.0437(17) 0.075(2) 0.069(2) -0.0163(18) 0.0252(18) 0.0098(15)
C10 0.0417(17) 0.069(2) 0.064(2) -0.0137(16) 0.0224(17) 0.0063(14)
C11 0.0380(15) 0.0668(19) 0.0535(19) -0.0104(15) 0.0175(15) 0.0083(13)
C12 0.0409(16) 0.075(2) 0.057(2) -0.0148(16) 0.0213(16) -0.0002(15)
C13 0.0372 0.0667 0.0349 -0.0083 0.0084 0.0071
C14 0.0439 0.0641 0.0325 -0.0057 0.0104 0.0045
C15 0.0439(16) 0.0495(14) 0.0377(14) 0.0026(11) 0.0111(13) -0.0045(11)
C16 0.0420(15) 0.0514(15) 0.0364(15) 0.0038(11) 0.0087(13) -0.0073(12)
C17 0.058(2) 0.088(3) 0.0379(17) 0.0014(16) 0.0080(17) -0.0251(19)
C18 0.0530(19) 0.069(2) 0.0352(16) 0.0039(13) 0.0073(15) -0.0129(15)
C19 0.072(3) 0.103(3) 0.0417(19) 0.0114(19) 0.017(2) -0.027(2)
C20 0.0495(19) 0.069(2) 0.054(2) 0.0030(16) 0.0045(17) -0.0157(16)
C21 0.0506(19) 0.0598(18) 0.059(2) 0.0120(15) 0.0179(17) -0.0102(15)
C22 0.0478(18) 0.064(2) 0.056(2) 0.0138(15) 0.0153(17) -0.0086(15)
C23 0.0499(19) 0.069(2) 0.066(2) 0.0123(17) 0.0245(18) -0.0083(16)
C24 0.0454(18) 0.070(2) 0.073(3) 0.0185(18) 0.0199(19) -0.0099(16)
C25 0.0525(19) 0.069(2) 0.054(2) 0.0080(16) 0.0206(17) -0.0157(16)
C26 0.0467(18) 0.071(2) 0.058(2) 0.0150(16) 0.0180(17) -0.0036(15)
C27 0.0471(18) 0.0643(19) 0.0357(15) 0.0084(13) 0.0081(14) -0.0111(14)
C28 0.058(2) 0.068(2) 0.0306(14) 0.0067(13) 0.0106(15) -0.0095(16)
C29 0.0354(15) 0.079(2) 0.0316(15) -0.0019(13) 0.0111(13) -0.0007(14)
C30 0.043(2) 0.160(5) 0.0367(19) -0.008(2) 0.0175(18) -0.005(3)
C31 0.0404(17) 0.089(2) 0.0310(15) -0.0027(14) 0.0135(14) 0.0025(16)
C32 0.0341(18) 0.173(5) 0.044(2) -0.016(3) 0.0139(18) -0.007(2)
C33 0.0421(18) 0.092(2) 0.0352(17) -0.0053(16) 0.0093(16) 0.0044(17)
C34 0.039(2) 0.137(4) 0.045(2) -0.013(2) 0.0092(19) 0.003(2)
C35 0.043(2) 0.102(3) 0.0323(17) -0.0077(15) 0.0039(17) 0.0068(17)
C36 0.071(3) 0.101(3) 0.042(2) -0.0043(19) 0.000(2) -0.011(2)
C37 0.056(2) 0.106(3) 0.0362(19) 0.0052(17) 0.0100(19) 0.0054(19)
C38 0.056(2) 0.090(3) 0.0390(18) -0.0008(17) 0.0095(18) -0.0004(19)
C39 0.078(3) 0.099(3) 0.041(2) 0.0062(19) 0.001(2) -0.009(3)
C40 0.0477(19) 0.087(3) 0.0336(16) -0.0043(16) 0.0049(15) 0.0101(18)
C41 0.053(2) 0.081(2) 0.0403(18) 0.0020(16) 0.0067(17) 0.0046(17)
C42 0.0480(19) 0.074(2) 0.0343(16) -0.0047(14) 0.0059(15) 0.0030(15)
C43 0.0330(18) 0.132(4) 0.053(2) 0.011(2) 0.0034(19) -0.013(2)
C44 0.0478(19) 0.103(3) 0.0332(16) 0.0037(16) 0.0145(16) 0.0012(18)
C45 0.038 0.125 0.049 0.009 0.0174 -0.0115
C46 0.0358 0.091 0.0328 0.0017 0.0104 -0.0045
O12 0.0393(18) 0.269(7) 0.053(2) -0.025(2) 0.0125(18) -0.020(2)
Zn1A 0.0375 0.0659 0.0269 0.00894 0.0086 0.00322
Zn2A 0.0366 0.0668 0.0262 -0.00722 0.00823 -0.0057
Zn2C 0.0366 0.0668 0.0262 -0.00722 0.00823 -0.0057
O4A 0.0574 0.0758 0.0539 0.0041 0.0255 0.0025
O5A 0.0424 0.0636 0.0538 0.0029 0.0167 -0.0082
O9A 0.077 0.073 0.0687 -0.0086 0.0375 0.0007
O10A 0.0556 0.0664 0.058 -0.0059 0.0183 0.0127
N4C 0.0315 0.0728 0.0275 0.0035 0.0061 0.0057
loop_
_geom_bond_atom_site_label_1
_geom_bond_atom_site_label_2
_geom_bond_site_symmetry_1
_geom_bond_site_symmetry_2
Zn1 O2 1_555 1_555
Zn2 O1 1_555 1_555
O1 C1 1_555 1_555
O2 C1 1_555 1_555
O3 C7 1_555 1_555
O4 C14 1_555 1_555
O5 C14 1_555 1_555
O6 Zn2 1_555 1_555
O7 Zn1 1_555 1_555
O8 C21 1_555 1_555
O9 C28 1_555 1_555
O10 C28 1_555 1_555
O11 C41 1_555 1_555
N1 Zn1 1_555 1_555
N2 H1 1_555 1_555
N3 H2 1_555 1_555
N4 C45 1_555 1_555
C1 C2 1_555 1_555
C2 C3 1_555 1_555
C3 H3 1_555 1_555
C4 C2 1_555 1_555
H4 C4 1_555 1_555
C5 C4 1_555 1_555
H5 C5 1_555 1_555
C6 C3 1_555 1_555
H6 C6 1_555 1_555
C7 C5 1_555 1_555
C8 O3 1_555 1_555
C9 C8 1_555 1_555
H7 C9 1_555 1_555
C10 C8 1_555 1_555
H8 C10 1_555 1_555
C11 C10 1_555 1_555
H9 C11 1_555 1_555
C12 C9 1_555 1_555
H10 C12 1_555 1_555
C13 C11 1_555 1_555
C14 C13 1_555 1_555
C15 O6 1_555 1_555
C16 C15 1_555 1_555
C17 C16 1_555 1_555
H11 C17 1_555 1_555
C18 C16 1_555 1_555
H12 C18 1_555 1_555
C19 C17 1_555 1_555
H13 C19 1_555 1_555
C20 C18 1_555 1_555
H14 C20 1_555 1_555
C21 C19 1_555 1_555
C22 O8 1_555 1_555
C23 C22 1_555 1_555
H15 C23 1_555 1_555
C24 C22 1_555 1_555
H16 C24 1_555 1_555
C25 C23 1_555 1_555
H17 C25 1_555 1_555
C26 C24 1_555 1_555
H18 C26 1_555 1_555
C27 C25 1_555 1_555
C28 C27 1_555 1_555
C29 N1 1_555 1_555
H19 C29 1_555 1_555
C30 N1 1_555 1_555
H20 C30 1_555 1_555
C31 C29 1_555 1_555
H21 C31 1_555 1_555
C32 C30 1_555 1_555
H22 C32 1_555 1_555
C33 C31 1_555 1_555
C34 N2 1_555 1_555
C35 N2 1_555 1_555
C36 C35 1_555 1_555
H23 C36 1_555 1_555
C37 C35 1_555 1_555
H24 C37 1_555 1_555
C38 C37 1_555 1_555
H25 C38 1_555 1_555
C39 C36 1_555 1_555
H26 C39 1_555 1_555
C40 N3 1_555 1_555
C41 N3 1_555 1_555
C42 C41 1_555 1_555
C43 C42 1_555 1_555
H27 C43 1_555 1_555
C44 C42 1_555 1_555
H28 C44 1_555 1_555
C45 C43 1_555 1_555
H29 C45 1_555 1_555
C46 N4 1_555 1_555
H30 C46 1_555 1_555
O12 C34 1_555 1_555
Zn1A O4 1_555 1_555
Zn2A O9 1_555 1_555
Zn2C N4 1_555 1_555
O4A Zn1 1_555 1_555
O5A Zn1 1_555 1_555
O9A Zn2 1_555 1_555
O10A Zn2 1_555 1_555
N4C Zn2 1_555 1_555
O5 Zn1A 1_555 1_555
O7 C15 1_555 1_555
O10 Zn2A 1_555 1_555
C6 C7 1_555 1_555
C12 C13 1_555 1_555
C20 C21 1_555 1_555
C26 C27 1_555 1_555
C32 C33 1_555 1_555
C33 C34 1_555 1_555
C38 C40 1_555 1_555
C39 C40 1_555 1_555
C44 C46 1_555 1_555

#END
