
#######################################################################
#
#                 Cambridge Crystallographic Data Centre
#                                CCDC 
#
#######################################################################
#
# If this CIF has been generated from an entry in the Cambridge 
# Structural Database, then it will include bibliographic, chemical, 
# crystal, experimental, refinement or atomic coordinate data resulting 
# from the CCDC's data processing and validation procedures.
#
#######################################################################

data_AWEXOR
_chemical_name_common            TMU-22
_chemical_formula_moiety         '(C92 H60 N8 O24 Zn4)n,6n(C3 H7 N1 O1)'
_chemical_name_systematic        
"catena-[bis(\m-N,N'-di(pyridin-4-yl)terephthalamide)-tetrakis(\m-4,4'-oxydibenzoato)-tetra-zinc N,N-dimethylformamide solvate]"
_symmetry_cell_setting           monoclinic
_symmetry_space_group_name_H-M   'P 21/n'
_symmetry_Int_Tables_number      14
_space_group_name_Hall           '-P 2yn'
loop_
_symmetry_equiv_pos_site_id
_symmetry_equiv_pos_as_xyz
1 x,y,z
2 1/2-x,1/2+y,1/2-z
3 -x,-y,-z
4 1/2+x,1/2-y,1/2+z
_cell_length_a                   14.680
_cell_length_b                   24.780
_cell_length_c                   16.270
_cell_angle_alpha                90
_cell_angle_beta                 113.27
_cell_angle_gamma                90
_cell_volume                     5437.09
_exptl_crystal_colour            yellow
_exptl_crystal_description       prism
_cell_formula_units_Z            2
loop_
_atom_site_label
_atom_site_type_symbol
_atom_site_fract_x
_atom_site_fract_y
_atom_site_fract_z
Zn1 Zn 0.08622(8) 0.03006(5) 0.36536(6)
Zn2 Zn -0.07387(8) 0.02317(5) 0.14326(7)
O1 O 0.4756(6) 0.0748(4) 0.7989(5)
O2 O -0.4595(5) -0.0318(4) -0.2704(5)
O3 O 0.0421(5) 0.0659(3) 0.1519(4)
O4 O 0.1428(5) 0.0700(3) 0.2968(4)
O5 O 0.3974(6) 0.2014(3) 0.1305(5)
O6 O 0.4511(5) 0.4546(3) 0.1374(4)
O7 O 0.3080(5) 0.4523(3) 0.1492(4)
O8 O -0.0395(5) 0.0659(3) 0.3522(4)
O9 O -0.1373(5) 0.0639(3) 0.2074(4)
O10 O -0.4053(5) 0.1945(3) 0.3604(4)
O11 O -0.3235(6) 0.4480(3) 0.3441(4)
O12 O -0.4720(5) 0.4477(3) 0.3455(4)
N1 N 0.1685(5) 0.0452(3) 0.4960(5)
N2 N 0.3251(6) 0.0390(4) 0.7731(5)
H1 H 0.2881 0.0277 0.8010
N3 N -0.3226(6) 0.0181(4) -0.2642(5)
H2 H -0.2938 0.0323 -0.2973
N4 N -0.1590(6) 0.0285(4) 0.0113(5)
C1 C 0.2693(8) 0.0440(6) 0.5324(7)
H3 H 0.3027 0.0423 0.4930
C2 C 0.3254(8) 0.0451(6) 0.6223(7)
H4 H 0.3957 0.0460 0.6446
C3 C 0.1256(7) 0.0471(4) 0.5535(6)
H5 H 0.0552 0.0486 0.5298
C4 C 0.1742(7) 0.0470(4) 0.6439(6)
H6 H 0.1384 0.0482 0.6814
C5 C 0.2769(8) 0.0450(5) 0.6804(6)
C6 C 0.4211(8) 0.0484(5) 0.8248(7)
C7 C 0.4592(8) 0.0241(5) 0.9164(7)
C8 C 0.4306(10) -0.0243(6) 0.9286(7)
H7 H 0.3813 -0.0420 0.8791
C9 C 0.5300(11) 0.0517(6) 0.9877(7)
H8 H 0.5511 0.0870 0.9807
C10 C -0.4344(8) 0.0394(5) -0.4511(6)
H9 H -0.3899 0.0668 -0.4174
C11 C -0.5218(8) -0.0429(5) -0.4559(6)
H10 H -0.5372 -0.0719 -0.4256
C12 C -0.4554(7) -0.0032(5) -0.4083(7)
C13 C -0.4145(7) -0.0061(5) -0.3078(6)
C14 C -0.2724(7) 0.0214(4) -0.1711(6)
C15 C -0.3100(8) 0.0043(7) -0.1092(7)
H11 H -0.3762 -0.0085 -0.1285
C16 C -0.1767(7) 0.0422(4) -0.1389(6)
H12 H -0.1484 0.0544 -0.1790
C17 C -0.1247(7) 0.0448(4) -0.0493(6)
H13 H -0.0595 0.0592 -0.0282
C18 C -0.2500(9) 0.0062(7) -0.0202(7)
H14 H -0.2737 -0.0090 0.0213
C19 C 0.1201(7) 0.0800(4) 0.2152(6)
C20 C 0.1954(7) 0.1105(4) 0.1911(6)
C21 C 0.1770(8) 0.1246(4) 0.1033(6)
H15 H 0.1177 0.1128 0.0562
C22 C 0.2855(7) 0.1279(4) 0.2597(6)
H16 H 0.2986 0.1197 0.3204
C23 C 0.2425(9) 0.1549(5) 0.0842(7)
H17 H 0.2280 0.1647 0.0238
C24 C 0.3533(8) 0.1561(4) 0.2393(7)
H18 H 0.4158 0.1651 0.2849
C25 C 0.3303(9) 0.1719(4) 0.1509(7)
C26 C 0.3887(8) 0.2569(4) 0.1352(6)
C27 C 0.4609(7) 0.2859(4) 0.1223(6)
H19 H 0.5114 0.2678 0.1105
C28 C 0.3126(8) 0.2817(4) 0.1505(6)
H20 H 0.2619 0.2610 0.1579
C29 C 0.4605(7) 0.3428(4) 0.1265(6)
H21 H 0.5115 0.3633 0.1193
C30 C 0.3120(7) 0.3392(4) 0.1551(6)
H22 H 0.2617 0.3572 0.1676
C31 C 0.3837(7) 0.3683(4) 0.1414(6)
C32 C 0.3802(8) 0.4285(4) 0.1443(5)
C33 C -0.1189(6) 0.0762(4) 0.2867(6)
C34 C -0.1962(7) 0.1057(4) 0.3065(6)
C35 C -0.1877(8) 0.1135(5) 0.3939(7)
H23 H -0.1322 0.0990 0.4420
C36 C -0.2769(7) 0.1285(4) 0.2364(6)
H24 H -0.2836 0.1238 0.1763
C37 C -0.2580(8) 0.1417(5) 0.4118(7)
H25 H -0.2521 0.1460 0.4717
C38 C -0.3460(8) 0.1574(5) 0.2543(6)
H26 H -0.4004 0.1731 0.2065
C39 C -0.3377(7) 0.1641(4) 0.3419(6)
C40 C -0.3976(8) 0.2512(4) 0.3563(6)
C41 C -0.3206(8) 0.2771(4) 0.3443(6)
H27 H -0.2676 0.2572 0.3394
C42 C -0.4746(7) 0.2788(4) 0.3653(6)
H28 H -0.5259 0.2599 0.3748
C43 C -0.3230(8) 0.3337(5) 0.3396(6)
H29 H -0.2713 0.3520 0.3298
C44 C -0.4756(8) 0.3363(4) 0.3602(6)
H30 H -0.5288 0.3562 0.3647
C45 C -0.3973(8) 0.3633(4) 0.3486(6)
C46 C -0.3976(9) 0.4225(4) 0.3448(6)
O1B O 0.5244(6) -0.0748(4) 1.2011(5)
N1B N 0.8315(5) -0.0452(3) 1.5040(5)
N2B N 0.6749(6) -0.0390(4) 1.2269(5)
H1B H 0.7119 -0.0277 1.1990
C1B C 0.7307(8) -0.0440(6) 1.4676(7)
H3B H 0.6973 -0.0423 1.5070
C2B C 0.6746(8) -0.0451(6) 1.3777(7)
H4B H 0.6043 -0.0460 1.3554
C3B C 0.8744(7) -0.0471(4) 1.4465(6)
H5B H 0.9448 -0.0486 1.4702
C4B C 0.8258(7) -0.0470(4) 1.3561(6)
H6B H 0.8616 -0.0482 1.3186
C5B C 0.7231(8) -0.0450(5) 1.3196(6)
C6B C 0.5789(8) -0.0484(5) 1.1752(7)
C7B C 0.5408(8) -0.0241(5) 1.0836(7)
C8B C 0.5694(10) 0.0243(6) 1.0714(7)
H7B H 0.6187 0.0420 1.1209
C9B C 0.4700(11) -0.0517(6) 1.0123(7)
H8B H 0.4489 -0.0870 1.0193
O2B O -0.5405(5) 0.0318(4) -0.7296(5)
N3B N -0.6774(6) -0.0181(4) -0.7358(5)
H2B H -0.7062 -0.0323 -0.7027
N4B N -0.8410(6) -0.0285(4) -1.0113(5)
C10B C -0.5656(8) -0.0394(5) -0.5489(6)
H9B H -0.6101 -0.0668 -0.5826
C11B C -0.4782(8) 0.0429(5) -0.5441(6)
H10B H -0.4628 0.0719 -0.5744
C12B C -0.5446(7) 0.0032(5) -0.5917(7)
C13B C -0.5855(7) 0.0061(5) -0.6922(6)
C14B C -0.7276(7) -0.0214(4) -0.8289(6)
C15B C -0.6900(8) -0.0043(7) -0.8908(7)
H11B H -0.6238 0.0085 -0.8715
C16B C -0.8233(7) -0.0422(4) -0.8611(6)
H12B H -0.8516 -0.0544 -0.8210
C17B C -0.8753(7) -0.0448(4) -0.9507(6)
H13B H -0.9405 -0.0592 -0.9718
C18B C -0.7500(9) -0.0062(7) -0.9798(7)
H14B H -0.7263 0.0090 -1.0213
Zn1B Zn -1.08622(8) -0.03006(5) -1.36536(6)
Zn2B Zn -0.92613(8) -0.02317(5) -1.14326(7)
O3B O -1.0421(5) -0.0659(3) -1.1519(4)
O4B O -1.1428(5) -0.0700(3) -1.2968(4)
O5B O -1.3974(6) -0.2014(3) -1.1305(5)
O6B O -1.4511(5) -0.4546(3) -1.1374(4)
O7B O -1.3080(5) -0.4523(3) -1.1492(4)
O8B O -0.9605(5) -0.0659(3) -1.3522(4)
O9B O -0.8627(5) -0.0639(3) -1.2074(4)
O10B O -0.5947(5) -0.1945(3) -1.3604(4)
O11B O -0.6765(6) -0.4480(3) -1.3441(4)
O12B O -0.5280(5) -0.4477(3) -1.3455(4)
C19B C -1.1201(7) -0.0800(4) -1.2152(6)
C20B C -1.1954(7) -0.1105(4) -1.1911(6)
C21B C -1.1770(8) -0.1246(4) -1.1033(6)
H15B H -1.1177 -0.1128 -1.0562
C22B C -1.2855(7) -0.1279(4) -1.2597(6)
H16B H -1.2986 -0.1197 -1.3204
C23B C -1.2425(9) -0.1549(5) -1.0842(7)
H17B H -1.2280 -0.1647 -1.0238
C24B C -1.3533(8) -0.1561(4) -1.2393(7)
H18B H -1.4158 -0.1651 -1.2849
C25B C -1.3303(9) -0.1719(4) -1.1509(7)
C26B C -1.3887(8) -0.2569(4) -1.1352(6)
C27B C -1.4609(7) -0.2859(4) -1.1223(6)
H19B H -1.5114 -0.2678 -1.1105
C28B C -1.3126(8) -0.2817(4) -1.1505(6)
H20B H -1.2619 -0.2610 -1.1579
C29B C -1.4605(7) -0.3428(4) -1.1265(6)
H21B H -1.5115 -0.3633 -1.1193
C30B C -1.3120(7) -0.3392(4) -1.1551(6)
H22B H -1.2617 -0.3572 -1.1676
C31B C -1.3837(7) -0.3683(4) -1.1414(6)
C32B C -1.3802(8) -0.4285(4) -1.1443(5)
C33B C -0.8811(6) -0.0762(4) -1.2867(6)
C34B C -0.8038(7) -0.1057(4) -1.3065(6)
C35B C -0.8123(8) -0.1135(5) -1.3939(7)
H23B H -0.8678 -0.0990 -1.4420
C36B C -0.7231(7) -0.1285(4) -1.2364(6)
H24B H -0.7164 -0.1238 -1.1763
C37B C -0.7420(8) -0.1417(5) -1.4118(7)
H25B H -0.7479 -0.1460 -1.4717
C38B C -0.6540(8) -0.1574(5) -1.2543(6)
H26B H -0.5996 -0.1731 -1.2065
C39B C -0.6623(7) -0.1641(4) -1.3419(6)
C40B C -0.6024(8) -0.2512(4) -1.3563(6)
C41B C -0.6794(8) -0.2771(4) -1.3443(6)
H27B H -0.7324 -0.2572 -1.3394
C42B C -0.5254(7) -0.2788(4) -1.3653(6)
H28B H -0.4741 -0.2599 -1.3748
C43B C -0.6770(8) -0.3337(5) -1.3396(6)
H29B H -0.7287 -0.3520 -1.3298
C44B C -0.5244(8) -0.3363(4) -1.3602(6)
H30B H -0.4712 -0.3562 -1.3647
C45B C -0.6027(8) -0.3633(4) -1.3486(6)
C46B C -0.6024(9) -0.4225(4) -1.3448(6)
Zn1A Zn 0.41378(8) 0.53006(5) 0.13464(6)
Zn1B_2 Zn 0.91378(8) -0.03006(5) 1.63464(6)
Zn1C Zn -1.41378(8) -0.53006(5) -1.13464(6)
Zn2A Zn -0.42613(8) 0.52317(5) 0.35674(7)
Zn2C Zn -0.57387(8) -0.52317(5) -1.35674(7)
O6A O 0.0489(5) -0.0454(3) 0.3626(4)
O6C O -1.0489(5) 0.0454(3) -1.3626(4)
O7A O 0.1920(5) -0.0477(3) 0.3508(4)
O7C O -1.1920(5) 0.0477(3) -1.3508(4)
O11A O -0.1765(6) -0.0520(3) 0.1559(4)
O11C O -0.8235(6) 0.0520(3) -1.1559(4)
O12A O -0.0280(5) -0.0523(3) 0.1545(4)
O12C O -0.9720(5) 0.0523(3) -1.1545(4)
N1B_2 N -1.1685(5) -0.0452(3) -1.4960(5)
loop_
_geom_bond_atom_site_label_1
_geom_bond_atom_site_label_2
_geom_bond_site_symmetry_1
_geom_bond_site_symmetry_2
Zn1 O4 1_555 1_555
Zn2 O3 1_555 1_555
O1 C6 1_555 1_555
O2 C13 1_555 1_555
O3 C19 1_555 1_555
O4 C19 1_555 1_555
O5 C25 1_555 1_555
O6 C32 1_555 1_555
O7 C32 1_555 1_555
O8 Zn1 1_555 1_555
O9 Zn2 1_555 1_555
O10 C39 1_555 1_555
O11 C46 1_555 1_555
O12 C46 1_555 1_555
N1 Zn1 1_555 1_555
N2 H1 1_555 1_555
N3 H2 1_555 1_555
N4 Zn2 1_555 1_555
C1 N1 1_555 1_555
H3 C1 1_555 1_555
C2 C1 1_555 1_555
H4 C2 1_555 1_555
C3 N1 1_555 1_555
H5 C3 1_555 1_555
C4 C3 1_555 1_555
H6 C4 1_555 1_555
C5 N2 1_555 1_555
C6 N2 1_555 1_555
C7 C6 1_555 1_555
C8 C7 1_555 1_555
H7 C8 1_555 1_555
C9 C7 1_555 1_555
H8 C9 1_555 1_555
C10 H9 1_555 1_555
C11 H10 1_555 1_555
C12 C10 1_555 1_555
C13 N3 1_555 1_555
C14 N3 1_555 1_555
C15 C14 1_555 1_555
H11 C15 1_555 1_555
C16 C14 1_555 1_555
H12 C16 1_555 1_555
C17 N4 1_555 1_555
H13 C17 1_555 1_555
C18 N4 1_555 1_555
H14 C18 1_555 1_555
C19 C20 1_555 1_555
C20 C21 1_555 1_555
C21 H15 1_555 1_555
C22 C20 1_555 1_555
H16 C22 1_555 1_555
C23 C21 1_555 1_555
H17 C23 1_555 1_555
C24 C22 1_555 1_555
H18 C24 1_555 1_555
C25 C23 1_555 1_555
C26 O5 1_555 1_555
C27 C26 1_555 1_555
H19 C27 1_555 1_555
C28 C26 1_555 1_555
H20 C28 1_555 1_555
C29 C27 1_555 1_555
H21 C29 1_555 1_555
C30 C28 1_555 1_555
H22 C30 1_555 1_555
C31 C29 1_555 1_555
C32 C31 1_555 1_555
C33 O8 1_555 1_555
C34 C33 1_555 1_555
C35 C34 1_555 1_555
H23 C35 1_555 1_555
C36 C34 1_555 1_555
H24 C36 1_555 1_555
C37 C35 1_555 1_555
H25 C37 1_555 1_555
C38 C36 1_555 1_555
H26 C38 1_555 1_555
C39 C37 1_555 1_555
C40 O10 1_555 1_555
C41 C40 1_555 1_555
H27 C41 1_555 1_555
C42 C40 1_555 1_555
H28 C42 1_555 1_555
C43 C41 1_555 1_555
H29 C43 1_555 1_555
C44 C42 1_555 1_555
H30 C44 1_555 1_555
C45 C43 1_555 1_555
C46 C45 1_555 1_555
O1B C6B 1_555 1_555
N1B C1B 1_555 1_555
N2B H1B 1_555 1_555
C1B H3B 1_555 1_555
C2B C1B 1_555 1_555
H4B C2B 1_555 1_555
C3B N1B 1_555 1_555
H5B C3B 1_555 1_555
C4B C3B 1_555 1_555
H6B C4B 1_555 1_555
C5B N2B 1_555 1_555
C6B N2B 1_555 1_555
C7B C6B 1_555 1_555
C8B C9 1_555 1_555
H7B C8B 1_555 1_555
C9B C8 1_555 1_555
H8B C9B 1_555 1_555
O2B C13B 1_555 1_555
N3B H2B 1_555 1_555
N4B C17B 1_555 1_555
C10B C11 1_555 1_555
H9B C10B 1_555 1_555
C11B C10 1_555 1_555
H10B C11B 1_555 1_555
C12B C10B 1_555 1_555
C13B N3B 1_555 1_555
C14B N3B 1_555 1_555
C15B C14B 1_555 1_555
H11B C15B 1_555 1_555
C16B C14B 1_555 1_555
H12B C16B 1_555 1_555
C17B C16B 1_555 1_555
H13B C17B 1_555 1_555
C18B N4B 1_555 1_555
H14B C18B 1_555 1_555
Zn1B O4B 1_555 1_555
Zn2B N4B 1_555 1_555
O3B Zn2B 1_555 1_555
O4B C19B 1_555 1_555
O5B C25B 1_555 1_555
O6B C32B 1_555 1_555
O7B C32B 1_555 1_555
O8B Zn1B 1_555 1_555
O9B Zn2B 1_555 1_555
O10B C39B 1_555 1_555
O11B C46B 1_555 1_555
O12B C46B 1_555 1_555
C19B O3B 1_555 1_555
C20B C19B 1_555 1_555
C21B C20B 1_555 1_555
H15B C21B 1_555 1_555
C22B C20B 1_555 1_555
H16B C22B 1_555 1_555
C23B C21B 1_555 1_555
H17B C23B 1_555 1_555
C24B C22B 1_555 1_555
H18B C24B 1_555 1_555
C25B C23B 1_555 1_555
C26B O5B 1_555 1_555
C27B C26B 1_555 1_555
H19B C27B 1_555 1_555
C28B C26B 1_555 1_555
H20B C28B 1_555 1_555
C29B C27B 1_555 1_555
H21B C29B 1_555 1_555
C30B C28B 1_555 1_555
H22B C30B 1_555 1_555
C31B C29B 1_555 1_555
C32B C31B 1_555 1_555
C33B O8B 1_555 1_555
C34B C33B 1_555 1_555
C35B C34B 1_555 1_555
H23B C35B 1_555 1_555
C36B C34B 1_555 1_555
H24B C36B 1_555 1_555
C37B C35B 1_555 1_555
H25B C37B 1_555 1_555
C38B C36B 1_555 1_555
H26B C38B 1_555 1_555
C39B C37B 1_555 1_555
C40B O10B 1_555 1_555
C41B C40B 1_555 1_555
H27B C41B 1_555 1_555
C42B C40B 1_555 1_555
H28B C42B 1_555 1_555
C43B C41B 1_555 1_555
H29B C43B 1_555 1_555
C44B C42B 1_555 1_555
H30B C44B 1_555 1_555
C45B C43B 1_555 1_555
C46B C45B 1_555 1_555
Zn1A O6 1_555 1_555
Zn1B_2 N1B 1_555 1_555
Zn1C O6B 1_555 1_555
Zn2A O11 1_555 1_555
Zn2C O11B 1_555 1_555
O6A Zn1 1_555 1_555
O6C Zn1B 1_555 1_555
O7A Zn1 1_555 1_555
O7C Zn1B 1_555 1_555
O11A Zn2 1_555 1_555
O11C Zn2B 1_555 1_555
O12A Zn2 1_555 1_555
O12C Zn2B 1_555 1_555
N1B_2 Zn1B 1_555 1_555
O7 Zn1A 1_555 1_555
O9 C33 1_555 1_555
O12 Zn2A 1_555 1_555
C2 C5 1_555 1_555
C4 C5 1_555 1_555
C11 C12 1_555 1_555
C12 C13 1_555 1_555
C15 C18 1_555 1_555
C16 C17 1_555 1_555
C24 C25 1_555 1_555
C30 C31 1_555 1_555
C38 C39 1_555 1_555
C44 C45 1_555 1_555
C2B C5B 1_555 1_555
C4B C5B 1_555 1_555
C7B C8B 1_555 1_555
C7B C9B 1_555 1_555
C11B C12B 1_555 1_555
C12B C13B 1_555 1_555
C15B C18B 1_555 1_555
O7B Zn1C 1_555 1_555
O9B C33B 1_555 1_555
O12B Zn2C 1_555 1_555
C24B C25B 1_555 1_555
C30B C31B 1_555 1_555
C38B C39B 1_555 1_555
C44B C45B 1_555 1_555

#END
