
#######################################################################
#
#                 Cambridge Crystallographic Data Centre
#                                CCDC 
#
#######################################################################
#
# If this CIF has been generated from an entry in the Cambridge 
# Structural Database, then it will include bibliographic, chemical, 
# crystal, experimental, refinement or atomic coordinate data resulting 
# from the CCDC's data processing and validation procedures.
#
#######################################################################

data_AWEYAE
_chemical_name_common            TMU-24
_chemical_formula_moiety         '(C50 H32 N4 O12 Zn2)n,2n(C3 H7 N1 O1)'
_chemical_name_systematic        
"catena-[(\m-N-(5-(isonicotinoylamino)-1-naphthyl)isonicotinamide)-bis(\m-4,4'-oxydibenzoato)-di-zinc N,N-dimethylformamide solvate]"
_symmetry_cell_setting           monoclinic
_symmetry_space_group_name_H-M   'C 2/c'
_symmetry_Int_Tables_number      15
_space_group_name_Hall           '-C 2yc'
loop_
_symmetry_equiv_pos_site_id
_symmetry_equiv_pos_as_xyz
1 x,y,z
2 -x,y,1/2-z
3 1/2+x,1/2+y,z
4 1/2-x,1/2+y,1/2-z
5 -x,-y,-z
6 x,-y,1/2+z
7 1/2-x,1/2-y,-z
8 1/2+x,1/2-y,1/2+z
_cell_length_a                   14.881(4)
_cell_length_b                   24.993(6)
_cell_length_c                   16.013(4)
_cell_angle_alpha                90
_cell_angle_beta                 111.422(5)
_cell_angle_gamma                90
_cell_volume                     5544.13
_exptl_crystal_colour            brown
_exptl_crystal_description       needle
_cell_formula_units_Z            4
loop_
_atom_site_label
_atom_site_type_symbol
_atom_site_fract_x
_atom_site_fract_y
_atom_site_fract_z
_atom_site_U_iso_or_equiv
_atom_site_thermal_displace_type
Zn1 Zn 0.92473(3) 0.47821(2) 0.13991(3) 0.0427 Uani
O1 O 0.5434(2) 0.94091(13) 0.14428(18) 0.0558 Uani
O2 O 0.9710(2) 0.55360(13) 0.1385(2) 0.0558 Uani
O3 O 0.8354(2) 0.55063(14) 0.1606(2) 0.0605 Uani
O4 O 0.8925(2) 0.80161(14) 0.1326(3) 0.0671 Uani
O5 O 0.6298(2) 0.93359(15) 0.29016(19) 0.0631 Uani
O6 O 0.5393(4) 0.4613(5) -0.2611(5) 0.1183 Uani
N1 N 0.6465(3) 0.4563(2) -0.3217(3) 0.0677 Uani
C1 C 0.9013(3) 0.57671(18) 0.1490(2) 0.0440 Uani
C2 C 0.8986(3) 0.63652(17) 0.1473(2) 0.0427 Uani
C3 C 0.9683(3) 0.66505(19) 0.1282(3) 0.0523 Uani
H1 H 1.0181 0.6469 0.1183 0.0620 Uiso
C4 C 0.9648(3) 0.7201(2) 0.1236(3) 0.0557 Uani
H2 H 1.0115 0.7392 0.1103 0.0670 Uiso
C5 C 0.8906(3) 0.74678(18) 0.1391(3) 0.0499 Uani
C6 C 0.8258(3) 0.66385(19) 0.1630(3) 0.0500 Uani
H3 H 0.7793 0.6447 0.1767 0.0600 Uiso
C7 C 0.8204(3) 0.7185(2) 0.1590(3) 0.0543 Uani
H4 H 0.7707 0.7364 0.1693 0.0660 Uiso
C8 C 0.8238(3) 0.8312(2) 0.1525(3) 0.0580 Uani
C9 C 0.7497(4) 0.8541(3) 0.0838(3) 0.0785 Uani
H5 H 0.7447 0.8490 0.0247 0.0940 Uiso
C10 C 0.6827(4) 0.8846(2) 0.1025(3) 0.0721 Uani
H6 H 0.6318 0.8997 0.0555 0.0860 Uiso
C11 C 0.8326(3) 0.8391(2) 0.2404(3) 0.0666 Uani
H7 H 0.8835 0.8236 0.2869 0.0800 Uiso
C12 C 0.7657(3) 0.8698(2) 0.2583(3) 0.0588 Uani
H8 H 0.7712 0.8751 0.3175 0.0710 Uiso
C13 C 0.6893(3) 0.89347(17) 0.1892(3) 0.0455 Uani
C14 C 0.6156(3) 0.92415(18) 0.2095(3) 0.0475 Uani
C15 C 0.6285(7) 0.4485(8) -0.2565(6) 0.1114 Uani
C16 C 0.5819(3) 0.4544(2) -0.4135(3) 0.0634 Uani
C17 C 0.5304(3) 0.5008(2) -0.4529(3) 0.0530 Uani
C18 C 0.5745(4) 0.4091(3) -0.4603(3) 0.0870 Uani
H9 H 0.6092 0.3789 -0.4327 0.1050 Uiso
C19 C 0.5133(4) 0.4073(3) -0.5527(4) 0.0936 Uani
H10 H 0.5080 0.3759 -0.5853 0.1120 Uiso
C20 C 0.4628(4) 0.4514(3) -0.5932(3) 0.0713 Uani
H11 H 0.4228 0.4496 -0.6533 0.0860 Uiso
C21 C 0.86932(14) 0.45683(16) -0.05622(16) 0.0580 Uani
H12 H 0.9354 0.4587 -0.0438 0.0690 Uiso
N2 N 0.83433(16) 0.46107(13) 0.01299(12) 0.0482 Uani
C22 C 0.73562(18) 0.4582(2) -0.00556(16) 0.1075 Uani
H13 H 0.7122 0.4610 0.0407 0.1290 Uiso
C23 C 0.67191(13) 0.4511(3) -0.09333(19) 0.1412 Uani
H14 H 0.6059 0.4492 -0.1057 0.1700 Uiso
C24 C 0.70689(18) 0.4469(2) -0.16254(13) 0.0973 Uani
C25 C 0.8056(2) 0.44975(19) -0.14399(14) 0.0687 Uani
H15 H 0.8290 0.4469 -0.1903 0.0830 Uiso
H16 H 0.6842 0.4828 -0.2988 0.0810 Uiso
O6D O 0.4607(4) 0.5387(5) -0.7389(5) 0.1183 Uani
N1D N 0.3535(3) 0.5437(2) -0.6783(3) 0.0677 Uani
C15D C 0.3715(7) 0.5515(8) -0.7435(6) 0.1114 Uani
C16D C 0.4181(3) 0.5456(2) -0.5865(3) 0.0634 Uani
C17D C 0.4696(3) 0.4992(2) -0.5471(3) 0.0530 Uani
C18D C 0.4255(4) 0.5909(3) -0.5397(3) 0.0870 Uani
H9D H 0.3908 0.6211 -0.5673 0.1050 Uiso
C19D C 0.4867(4) 0.5927(3) -0.4473(4) 0.0936 Uani
H10D H 0.4920 0.6241 -0.4147 0.1120 Uiso
C20D C 0.5372(4) 0.5486(3) -0.4068(3) 0.0713 Uani
H11D H 0.5772 0.5504 -0.3467 0.0860 Uiso
C21D C 0.13068(14) 0.54317(16) -0.94378(16) 0.0580 Uani
H12D H 0.0646 0.5413 -0.9562 0.0690 Uiso
N2D N 0.16567(16) 0.53893(13) -1.01299(12) 0.0482 Uani
C22D C 0.26438(18) 0.5418(2) -0.99444(16) 0.1075 Uani
H13D H 0.2878 0.5390 -1.0407 0.1290 Uiso
C23D C 0.32809(13) 0.5489(3) -0.90667(19) 0.1412 Uani
H14D H 0.3941 0.5508 -0.8943 0.1700 Uiso
C24D C 0.29311(18) 0.5531(2) -0.83746(13) 0.0973 Uani
C25D C 0.1944(2) 0.55025(19) -0.85601(14) 0.0687 Uani
H15D H 0.1710 0.5531 -0.8097 0.0830 Uiso
H16D H 0.3158 0.5172 -0.7012 0.0810 Uiso
Zn1D Zn 0.07527(3) 0.52179(2) -1.13991(3) 0.0427 Uani
O1D O 0.4566(2) 0.05909(13) -1.14428(18) 0.0558 Uani
O2D O 0.0290(2) 0.44640(13) -1.1385(2) 0.0558 Uani
O3D O 0.1646(2) 0.44937(14) -1.1606(2) 0.0605 Uani
O4D O 0.1075(2) 0.19839(14) -1.1326(3) 0.0671 Uani
O5D O 0.3702(2) 0.06641(15) -1.29016(19) 0.0631 Uani
C1D C 0.0987(3) 0.42329(18) -1.1490(2) 0.0440 Uani
C2D C 0.1014(3) 0.36348(17) -1.1473(2) 0.0427 Uani
C3D C 0.0317(3) 0.33495(19) -1.1282(3) 0.0523 Uani
H1D H -0.0181 0.3531 -1.1183 0.0620 Uiso
C4D C 0.0352(3) 0.2799(2) -1.1236(3) 0.0557 Uani
H2D H -0.0115 0.2608 -1.1103 0.0670 Uiso
C5D C 0.1094(3) 0.25322(18) -1.1391(3) 0.0499 Uani
C6D C 0.1742(3) 0.33615(19) -1.1630(3) 0.0500 Uani
H3D H 0.2207 0.3553 -1.1767 0.0600 Uiso
C7D C 0.1796(3) 0.2815(2) -1.1590(3) 0.0543 Uani
H4D H 0.2293 0.2636 -1.1693 0.0660 Uiso
C8D C 0.1762(3) 0.1688(2) -1.1525(3) 0.0580 Uani
C9D C 0.2503(4) 0.1459(3) -1.0838(3) 0.0785 Uani
H5D H 0.2553 0.1510 -1.0247 0.0940 Uiso
C10D C 0.3173(4) 0.1154(2) -1.1025(3) 0.0721 Uani
H6D H 0.3682 0.1003 -1.0555 0.0860 Uiso
C11D C 0.1674(3) 0.1609(2) -1.2404(3) 0.0666 Uani
H7D H 0.1165 0.1764 -1.2869 0.0800 Uiso
C12D C 0.2343(3) 0.1302(2) -1.2583(3) 0.0588 Uani
H8D H 0.2288 0.1249 -1.3175 0.0710 Uiso
C13D C 0.3107(3) 0.10653(17) -1.1892(3) 0.0455 Uani
C14D C 0.3844(3) 0.07585(18) -1.2095(3) 0.0475 Uani
Zn1B Zn 0.42473(3) 0.97821(2) 0.13991(3) 0.0427 Uani
Zn1C Zn 0.57527(3) 0.97821(2) 0.36009(3) 0.0427 Uani
Zn1F Zn 0.57527(3) 0.02179(2) -1.13991(3) 0.0427 Uani
Zn1G Zn 0.42473(3) 0.02179(2) -1.36009(3) 0.0427 Uani
O1B O 1.0434(2) 0.44091(13) 0.14428(18) 0.0558 Uani
O1F O -0.0434(2) 0.55909(13) -1.14428(18) 0.0558 Uani
O5C O 0.8702(2) 0.43359(15) 0.20984(19) 0.0631 Uani
O5G O 0.1298(2) 0.56641(15) -1.20984(19) 0.0631 Uani
O7? O 0.6037(12) 0.3691(8) -0.2650(8) 0.1635 Uani
C26? C 0.6411(15) 0.4019(13) -0.2644(16) 0.1504 Uani
H17? H 0.7056 0.4640 -0.3129 0.0810 Uiso
loop_
_atom_site_aniso_label
_atom_site_aniso_U_11
_atom_site_aniso_U_22
_atom_site_aniso_U_33
_atom_site_aniso_U_23
_atom_site_aniso_U_13
_atom_site_aniso_U_12
Zn1 0.0403(3) 0.0531(4) 0.0336(3) 0.00698(19) 0.01214(19) 0.00301(19)
O1 0.0493 0.069 0.0479 0.0101 0.0165 0.0208
O2 0.0459(15) 0.052(2) 0.074(2) 0.0042(16) 0.0274(14) 0.0106(14)
O3 0.0621(19) 0.061(2) 0.0676(19) -0.0046(17) 0.0346(16) -0.0014(16)
O4 0.066 0.052 0.098 -0.0036 0.0475 0.0104
O5 0.0565 0.088 0.0444 -0.0142 0.018 0.0134
O6 0.041(3) 0.251(11) 0.063(4) 0.006(6) 0.019(3) -0.003(5)
N1 0.0463(19) 0.094(3) 0.047(2) -0.008(2) -0.0018(17) -0.004(2)
C1 0.0441(19) 0.050(3) 0.0354(18) 0.0008(17) 0.0117(16) 0.0058(19)
C2 0.0385(17) 0.050(3) 0.0374(18) -0.0053(17) 0.0112(15) 0.0057(17)
C3 0.043(2) 0.057(3) 0.061(3) -0.006(2) 0.0240(19) 0.0084(19)
C4 0.048(2) 0.059(3) 0.069(3) -0.008(2) 0.032(2) 0.003(2)
C5 0.048(2) 0.048(3) 0.055(2) -0.009(2) 0.0205(18) 0.0086(19)
C6 0.043(2) 0.055(3) 0.056(2) 0.000(2) 0.0229(18) 0.0024(19)
C7 0.043(2) 0.060(3) 0.066(3) -0.005(2) 0.027(2) 0.012(2)
C8 0.057 0.05 0.071 -0.005 0.028 0.009
C9 0.086 0.106 0.046 -0.006 0.027 0.039
C10 0.075 0.094 0.039 0 0.011 0.041
C11 0.06 0.073 0.055 -0.007 0.007 0.026
C12 0.055 0.069 0.041 -0.008 0.004 0.018
C13 0.047 0.047 0.0401 -0.0014 0.013 0.0062
C14 0.049 0.046 0.045 -0.0013 0.0142 0.0022
C15 0.049(5) 0.260(19) 0.019(4) 0.002(7) 0.005(4) -0.078(9)
C16 0.047(2) 0.096(4) 0.039(2) -0.006(2) 0.0060(18) -0.003(2)
C17 0.0345(18) 0.088(4) 0.034(2) -0.004(2) 0.0097(16) -0.009(2)
C18 0.084(4) 0.103(5) 0.053(3) -0.012(3) 0.000(3) 0.028(3)
C19 0.092(4) 0.112(5) 0.058(3) -0.031(3) 0.005(3) 0.010(4)
C20 0.060(3) 0.101(5) 0.040(2) -0.018(3) 0.003(2) 0.000(3)
C21 0.044(2) 0.087(4) 0.042(2) 0.001(2) 0.0144(18) -0.010(2)
N2 0.0332(15) 0.072(3) 0.0385(16) 0.0038(17) 0.0121(13) 0.0065(15)
C22 0.041(2) 0.240(9) 0.043(3) -0.011(4) 0.017(2) 0.005(4)
C23 0.040(3) 0.337(13) 0.049(3) -0.030(5) 0.019(2) -0.005(5)
C24 0.052(3) 0.203(8) 0.036(2) -0.005(3) 0.015(2) -0.034(4)
C25 0.050(2) 0.122(5) 0.038(2) -0.012(3) 0.0206(19) -0.020(3)
O6D 0.041 0.251 0.063 0.006 0.019 -0.003
N1D 0.0463 0.094 0.047 -0.008 -0.0018 -0.004
C15D 0.049 0.26 0.019 0.002 0.005 -0.078
C16D 0.047 0.096 0.039 -0.006 0.006 -0.003
C17D 0.0345 0.088 0.034 -0.004 0.0097 -0.009
C18D 0.084 0.103 0.053 -0.012 0 0.028
C19D 0.092 0.112 0.058 -0.031 0.005 0.01
C20D 0.06 0.101 0.04 -0.018 0.003 0
C21D 0.044 0.087 0.042 0.001 0.0144 -0.01
N2D 0.0332 0.072 0.0385 0.0038 0.0121 0.0065
C22D 0.041 0.24 0.043 -0.011 0.017 0.005
C23D 0.04 0.337 0.049 -0.03 0.019 -0.005
C24D 0.052 0.203 0.036 -0.005 0.015 -0.034
C25D 0.05 0.122 0.038 -0.012 0.0206 -0.02
Zn1D 0.0403 0.0531 0.0336 0.00698 0.01214 0.00301
O1D 0.0493 0.069 0.0479 0.0101 0.0165 0.0208
O2D 0.0459 0.052 0.074 0.0042 0.0274 0.0106
O3D 0.0621 0.061 0.0676 -0.0046 0.0346 -0.0014
O4D 0.066 0.052 0.098 -0.0036 0.0475 0.0104
O5D 0.0565 0.088 0.0444 -0.0142 0.018 0.0134
C1D 0.0441 0.05 0.0354 0.0008 0.0117 0.0058
C2D 0.0385 0.05 0.0374 -0.0053 0.0112 0.0057
C3D 0.043 0.057 0.061 -0.006 0.024 0.0084
C4D 0.048 0.059 0.069 -0.008 0.032 0.003
C5D 0.048 0.048 0.055 -0.009 0.0205 0.0086
C6D 0.043 0.055 0.056 0 0.0229 0.0024
C7D 0.043 0.06 0.066 -0.005 0.027 0.012
C8D 0.057 0.05 0.071 -0.005 0.028 0.009
C9D 0.086 0.106 0.046 -0.006 0.027 0.039
C10D 0.075 0.094 0.039 0 0.011 0.041
C11D 0.06 0.073 0.055 -0.007 0.007 0.026
C12D 0.055 0.069 0.041 -0.008 0.004 0.018
C13D 0.047 0.047 0.0401 -0.0014 0.013 0.0062
C14D 0.049 0.046 0.045 -0.0013 0.0142 0.0022
Zn1B 0.0403 0.0531 0.0336 0.00698 0.01214 0.00301
Zn1C 0.0403 0.0531 0.0336 -0.00698 0.01214 -0.00301
Zn1F 0.0403 0.0531 0.0336 0.00698 0.01214 0.00301
Zn1G 0.0403 0.0531 0.0336 -0.00698 0.01214 -0.00301
O1B 0.0493 0.069 0.0479 0.0101 0.0165 0.0208
O1F 0.0493 0.069 0.0479 0.0101 0.0165 0.0208
O5C 0.0565 0.088 0.0444 0.0142 0.018 -0.0134
O5G 0.0565 0.088 0.0444 0.0142 0.018 -0.0134
O7? 0.174(14) 0.25(2) 0.060(6) -0.028(9) 0.035(7) -0.117(14)
C26? 0.092(13) 0.26(3) 0.108(16) 0.12(2) 0.047(11) 0.101(19)
loop_
_geom_bond_atom_site_label_1
_geom_bond_atom_site_label_2
_geom_bond_site_symmetry_1
_geom_bond_site_symmetry_2
Zn1 O2 1_555 1_555
O1 C14 1_555 1_555
O2 C1 1_555 1_555
O3 Zn1 1_555 1_555
O4 C5 1_555 1_555
O5 C14 1_555 1_555
O6 C15 1_555 1_555
N1 C15 1_555 1_555
C1 O3 1_555 1_555
C2 C1 1_555 1_555
C3 C2 1_555 1_555
H1 C3 1_555 1_555
C4 C3 1_555 1_555
H2 C4 1_555 1_555
C5 C4 1_555 1_555
C6 C2 1_555 1_555
H3 C6 1_555 1_555
C7 C5 1_555 1_555
H4 C7 1_555 1_555
C8 O4 1_555 1_555
C9 C8 1_555 1_555
H5 C9 1_555 1_555
C10 C9 1_555 1_555
H6 C10 1_555 1_555
C11 C8 1_555 1_555
H7 C11 1_555 1_555
C12 C11 1_555 1_555
H8 C12 1_555 1_555
C13 C10 1_555 1_555
C14 C13 1_555 1_555
C15 C24 1_555 1_555
C16 N1 1_555 1_555
C17 C16 1_555 1_555
C18 C16 1_555 1_555
H9 C18 1_555 1_555
C19 C18 1_555 1_555
H10 C19 1_555 1_555
C20 C19 1_555 1_555
H11 C20 1_555 1_555
C21 H12 1_555 1_555
N2 Zn1 1_555 1_555
C22 N2 1_555 1_555
H13 C22 1_555 1_555
C23 C22 1_555 1_555
H14 C23 1_555 1_555
C24 C23 1_555 1_555
C25 C21 1_555 1_555
H15 C25 1_555 1_555
H16 N1 1_555 1_555
O6D C15D 1_555 1_555
N1D C15D 1_555 1_555
C15D C24D 1_555 1_555
C16D N1D 1_555 1_555
C17D C17 1_555 1_555
C18D C16D 1_555 1_555
H9D C18D 1_555 1_555
C19D C18D 1_555 1_555
H10D C19D 1_555 1_555
C20D C17 1_555 1_555
H11D C20D 1_555 1_555
C21D H12D 1_555 1_555
N2D C21D 1_555 1_555
C22D N2D 1_555 1_555
H13D C22D 1_555 1_555
C23D C22D 1_555 1_555
H14D C23D 1_555 1_555
C24D C23D 1_555 1_555
C25D C21D 1_555 1_555
H15D C25D 1_555 1_555
H16D N1D 1_555 1_555
Zn1D N2D 1_555 1_555
O1D C14D 1_555 1_555
O2D Zn1D 1_555 1_555
O3D Zn1D 1_555 1_555
O4D C5D 1_555 1_555
O5D C14D 1_555 1_555
C1D O2D 1_555 1_555
C2D C1D 1_555 1_555
C3D C2D 1_555 1_555
H1D C3D 1_555 1_555
C4D C3D 1_555 1_555
H2D C4D 1_555 1_555
C5D C4D 1_555 1_555
C6D C2D 1_555 1_555
H3D C6D 1_555 1_555
C7D C5D 1_555 1_555
H4D C7D 1_555 1_555
C8D O4D 1_555 1_555
C9D C8D 1_555 1_555
H5D C9D 1_555 1_555
C10D C9D 1_555 1_555
H6D C10D 1_555 1_555
C11D C8D 1_555 1_555
H7D C11D 1_555 1_555
C12D C11D 1_555 1_555
H8D C12D 1_555 1_555
C13D C10D 1_555 1_555
C14D C13D 1_555 1_555
Zn1B O1 1_555 1_555
Zn1C O5 1_555 1_555
Zn1F O1D 1_555 1_555
Zn1G O5D 1_555 1_555
O1B Zn1 1_555 1_555
O1F Zn1D 1_555 1_555
O5C Zn1 1_555 1_555
O5G Zn1D 1_555 1_555
C6 C7 1_555 1_555
C12 C13 1_555 1_555
C20 C17D 1_555 1_555
C21 N2 1_555 1_555
C24 C25 1_555 1_555
C16D C17D 1_555 1_555
C19D C20D 1_555 1_555
C24D C25D 1_555 1_555
O3D C1D 1_555 1_555
C6D C7D 1_555 1_555
C12D C13D 1_555 1_555

#END
