
#######################################################################
#
#                 Cambridge Crystallographic Data Centre
#                                CCDC 
#
#######################################################################
#
# If this CIF has been generated from an entry in the Cambridge 
# Structural Database, then it will include bibliographic, chemical, 
# crystal, experimental, refinement or atomic coordinate data resulting 
# from the CCDC's data processing and validation procedures.
#
#######################################################################

data_CUSXOE
_chemical_name_common            MOF-200
_chemical_formula_moiety         '(C90 H54 O16 Zn4)n,H2 O1'
_chemical_name_systematic        
catena-[bis(\m-4,4',4''-(benzene-1,3,5-triyl-tris(benzene-4,1-diyl)tribenzoato))-(\m-oxido)-tetra-zinc]
_symmetry_cell_setting           trigonal
_symmetry_space_group_name_H-M   'P -3 1 c'
_symmetry_Int_Tables_number      163
_space_group_name_Hall           '-P 3 2c'
loop_
_symmetry_equiv_pos_site_id
_symmetry_equiv_pos_as_xyz
1 x,y,z
2 -y,x-y,z
3 -x+y,-x,z
4 -y,-x,1/2-z
5 -x+y,y,1/2-z
6 x,x-y,1/2-z
7 -x,-y,-z
8 y,-x+y,-z
9 x-y,x,-z
10 y,x,1/2+z
11 x-y,-y,1/2+z
12 -x,-x+y,1/2+z
_cell_length_a                   52.022(3)
_cell_length_b                   52.022(3)
_cell_length_c                   42.316(5)
_cell_angle_alpha                90
_cell_angle_beta                 90
_cell_angle_gamma                120
_cell_volume                     99176.6
_exptl_crystal_description       'hexagonal plate'
_cell_formula_units_Z            8
loop_
_atom_site_label
_atom_site_type_symbol
_atom_site_fract_x
_atom_site_fract_y
_atom_site_fract_z
Zn1 Zn 0.207963(15) 0.356706(14) 0.257987(14)
Zn2 Zn 0.147416(16) 0.307032(16) 0.287056(16)
Zn3 Zn 0.36516(2) 0.66092(2) 0.72810(3)
Zn4 Zn 0.3333 0.6667 0.70985(5)
O1 O 0.17654(14) 0.32442(13) 0.32146(9)
O2 O 0.21832(12) 0.35699(11) 0.30295(11)
O3 O 0.23388(10) 0.34757(9) 0.23179(11)
O4 O 0.11605(11) 0.31443(12) 0.29999(10)
O5 O 0.33101(19) 0.62854(18) 0.69092(15)
O6 O 0.3391(2) 0.61155(19) 0.73345(18)
O7 O 0.22039(9) 0.39862(11) 0.24841(10)
O8 O 0.12827(15) 0.26587(10) 0.2756(2)
O9 O 0.3333 0.6667 0.7500
O10 O 0.16660(4) 0.33319(8) 0.2500
O11 O 0.18239(8) 0.31056(11) 0.26933(10)
O12 O 0.19636(9) 0.36204(9) 0.21753(11)
C1 C 0.28431(6) 0.39102(7) 0.54708(8)
C2 C 0.28979(9) 0.37105(9) 0.56337(9)
H1 H 0.2868 0.3538 0.5535
C3 C 0.29979(10) 0.37688(10) 0.59442(9)
C4 C 0.30431(9) 0.40268(10) 0.60919(9)
H2 H 0.3110 0.4066 0.6300
C5 C 0.29883(10) 0.42265(9) 0.59290(9)
C6 C 0.28883(9) 0.41682(8) 0.56185(9)
H3 H 0.2852 0.4302 0.5509
C7 C 0.24957(7) 0.37122(6) 0.45209(8)
C8 C 0.24170(8) 0.34820(6) 0.47351(8)
H4 H 0.2291 0.3287 0.4673
C9 C 0.25263(8) 0.35439(6) 0.50420(8)
H5 H 0.2474 0.3390 0.5185
C10 C 0.27143(6) 0.38358(6) 0.51350(8)
C11 C 0.27929(8) 0.40658(6) 0.49209(8)
H6 H 0.2919 0.4261 0.4983
C12 C 0.26837(8) 0.40041(6) 0.46138(8)
H7 H 0.2736 0.4158 0.4471
C13 C 0.21481(11) 0.35098(10) 0.35695(9)
C14 C 0.19745(10) 0.33527(10) 0.38269(9)
H8 H 0.1779 0.3204 0.3796
C15 C 0.20933(9) 0.34187(9) 0.41300(9)
H9 H 0.1977 0.3314 0.4302
C16 C 0.23856(8) 0.36418(7) 0.41756(8)
C17 C 0.25592(10) 0.37989(9) 0.39182(8)
H10 H 0.2755 0.3948 0.3949
C18 C 0.24405(11) 0.37329(10) 0.36151(8)
H11 H 0.2557 0.3838 0.3443
C19 C 0.2002(2) 0.34619(18) 0.32480(19)
C20 C 0.30605(13) 0.35645(11) 0.61265(12)
C21 C 0.29349(13) 0.32782(12) 0.60060(10)
H12 H 0.2827 0.3230 0.5819
C22 C 0.29709(10) 0.30646(10) 0.61652(9)
H13 H 0.2887 0.2873 0.6085
C23 C 0.31324(7) 0.31372(8) 0.64449(8)
C24 C 0.32580(11) 0.34235(9) 0.65654(10)
H14 H 0.3366 0.3472 0.6753
C25 C 0.32220(13) 0.36372(10) 0.64062(12)
H15 H 0.3306 0.3829 0.6487
C26 C 0.31712(6) 0.28841(8) 0.65852(8)
C27 C 0.30435(9) 0.25865(8) 0.65027(10)
H16 H 0.2921 0.2514 0.6326
C28 C 0.30987(11) 0.23965(9) 0.66839(12)
H17 H 0.3013 0.2197 0.6629
C29 C 0.32816(10) 0.25040(11) 0.69477(11)
C30 C 0.34093(10) 0.28017(11) 0.70302(10)
H18 H 0.3532 0.2874 0.7207
C31 C 0.33541(8) 0.29917(9) 0.68490(9)
H19 H 0.3440 0.3191 0.6904
C32 C 0.22500(17) 0.32991(18) 0.21005(17)
C33 C 0.3053(2) 0.45231(18) 0.6086(2)
C34 C 0.3289(3) 0.4671(3) 0.6294(3)
H20 H 0.3416 0.4597 0.6334
C35 C 0.3336(3) 0.4929(3) 0.6443(3)
H21 H 0.3494 0.5028 0.6582
C36 C 0.3146(3) 0.5039(2) 0.6384(3)
C37 C 0.2910(3) 0.4891(3) 0.6175(4)
H22 H 0.2783 0.4965 0.6135
C38 C 0.2864(3) 0.4633(3) 0.6026(3)
H23 H 0.2706 0.4535 0.5887
C39 C 0.31676(17) 0.52858(13) 0.65497(13)
C40 C 0.34114(16) 0.54427(16) 0.67465(17)
H24 H 0.3543 0.5374 0.6781
C41 C 0.34581(13) 0.57024(15) 0.68914(18)
H25 H 0.3621 0.5807 0.7023
C42 C 0.32612(15) 0.58053(12) 0.68395(17)
C43 C 0.30175(15) 0.56484(16) 0.66427(18)
H26 H 0.2886 0.5717 0.6608
C44 C 0.29707(15) 0.53886(15) 0.64979(16)
H27 H 0.2808 0.5284 0.6366
C45 C 0.3304(2) 0.6062(2) 0.7044(2)
C46 C 0.20516(11) 0.4103(2) 0.2500
C47 C 0.22171(14) 0.4434(3) 0.2500
C48 C 0.25154(14) 0.45922(17) 0.24744(18)
H28 H 0.2619 0.4490 0.2456
C49 C 0.26733(13) 0.48989(19) 0.24739(19)
H29 H 0.2879 0.4996 0.2456
C50 C 0.25335(13) 0.5067(3) 0.2500
C51 C 0.27093(11) 0.5419(2) 0.2500
C52 C 0.30049(16) 0.5575(2) 0.2450(4)
H30 H 0.3106 0.5476 0.2399
C53 C 0.31591(14) 0.58787(19) 0.2473(4)
H31 H 0.3365 0.5980 0.2469
C54 C 0.30156(14) 0.6031(3) 0.2500
C55 C 0.31829(8) 0.63658(15) 0.2500
C56 C 0.34837(7) 0.65163(7) 0.2500
H32 H 0.3587 0.6413 0.2500
C57 C 0.1270(2) 0.2539(4) 0.2500
C58 C 0.11021(12) 0.2204(2) 0.2500
C59 C 0.1070(3) 0.2063(2) 0.22281(16)
H33 H 0.1154 0.2167 0.2043
C60 C 0.0909(3) 0.1752(2) 0.22279(17)
H34 H 0.0876 0.1651 0.2038
C61 C 0.07975(16) 0.1595(3) 0.2500
C62 C 0.06249(14) 0.1250(3) 0.2500
C63 C 0.03344(16) 0.1095(2) 0.2579(3)
H35 H 0.0232 0.1195 0.2620
C64 C 0.01900(16) 0.0794(2) 0.2598(3)
H36 H -0.0002 0.0690 0.2679
C65 C 0.03263(10) 0.0653(2) 0.2500
C66 C 0.01497(8) 0.02993(16) 0.2500
C67 C 0.03016(13) 0.01508(7) 0.2500
H37 H 0.0508 0.0254 0.2500
Zn3C Zn 0.33908(2) 0.63484(2) 0.77190(3)
Zn3E Zn 0.36516(2) 0.70424(3) 0.77190(3)
O6C O 0.38845(19) 0.6609(2) 0.76655(18)
O5A O 0.37146(18) 0.70247(26) 0.69092(15)
O5B O 0.29753(26) 0.66899(19) 0.69092(15)
Zn3B Zn 0.29576(3) 0.63484(2) 0.72810(3)
Zn3A Zn 0.33908(2) 0.70424(3) 0.72810(3)
C32D C 0.10491(25) 0.32991(18) 0.28995(17)
Zn3D Zn 0.29576(3) 0.66092(2) 0.77190(3)
Zn4C Zn 0.3333 0.6667 0.79015(5)
Zn1D Zn 0.148743(21) 0.356706(14) 0.242013(14)
Zn2D Zn 0.159616(23) 0.307032(16) 0.212944(16)
C32I C 0.32991(18) 0.22500(17) 0.71005(17)
O4D O 0.19838(16) 0.31443(12) 0.20001(10)
C29I C 0.25040(11) 0.32816(10) 0.19477(11)
O7D O 0.17823(14) 0.39862(11) 0.25159(10)
C48D C 0.20768(22) 0.45922(17) 0.25256(18)
C49D C 0.22256(23) 0.48989(19) 0.25261(19)
C52D C 0.25701(26) 0.5575(2) 0.2550(4)
C53D C 0.27196(24) 0.58787(19) 0.2527(4)
C56B C 0.30326(10) 0.65163(7) 0.2500
C55A C 0.36342(15) 0.68171(17) 0.2500
O8D O 0.13760(18) 0.26587(10) 0.2244(2)
C59D C 0.0993(4) 0.2063(2) 0.27719(16)
C60D C 0.0843(4) 0.1752(2) 0.27721(17)
C63D C 0.07606(26) 0.1095(2) 0.2421(3)
C64D C 0.06040(26) 0.0794(2) 0.2402(3)
C67A C -0.01508(7) 0.01508(15) 0.2500
C66B C 0.01496(18) -0.01497(8) 0.2500
O13? O 0.3053(3) 0.6072(3) 0.7046(3)
O14? O 0.3529(2) 0.62476(19) 0.7098(3)
C68? C 0.3057(8) 0.4552(6) 0.6406(5)
H38? H 0.3027 0.4397 0.6539
C69? C 0.3109(8) 0.4822(5) 0.6524(5)
H39? H 0.3115 0.4837 0.6743
C70? C 0.3077(11) 0.4992(7) 0.6087(6)
H40? H 0.3019 0.5112 0.5983
C71? C 0.3086(10) 0.4766(6) 0.5916(6)
H41? H 0.3113 0.4778 0.5699
loop_
_geom_bond_atom_site_label_1
_geom_bond_atom_site_label_2
_geom_bond_site_symmetry_1
_geom_bond_site_symmetry_2
Zn1 O2 1_555 1_555
Zn2 O1 1_555 1_555
Zn3 Zn4 1_555 1_555
Zn4 O5 1_555 1_555
O1 C19 1_555 1_555
O2 C19 1_555 1_555
O3 Zn1 1_555 1_555
O4 Zn2 1_555 1_555
O5 Zn3 1_555 1_555
O6 Zn3 1_555 1_555
O7 Zn1 1_555 1_555
O8 Zn2 1_555 1_555
O9 Zn3 1_555 1_555
O10 Zn1 1_555 1_555
O11 Zn1 1_555 1_555
O12 Zn1 1_555 1_555
C1 C2 1_555 1_555
C2 H1 1_555 1_555
C3 C2 1_555 1_555
C4 C3 1_555 1_555
H2 C4 1_555 1_555
C5 C4 1_555 1_555
C6 C1 1_555 1_555
H3 C6 1_555 1_555
C7 C8 1_555 1_555
C8 H4 1_555 1_555
C9 C8 1_555 1_555
H5 C9 1_555 1_555
C10 C1 1_555 1_555
C11 C10 1_555 1_555
H6 C11 1_555 1_555
C12 C7 1_555 1_555
H7 C12 1_555 1_555
C13 C14 1_555 1_555
C14 H8 1_555 1_555
C15 C14 1_555 1_555
H9 C15 1_555 1_555
C16 C7 1_555 1_555
C17 C16 1_555 1_555
H10 C17 1_555 1_555
C18 C13 1_555 1_555
H11 C18 1_555 1_555
C19 C13 1_555 1_555
C20 C3 1_555 1_555
C21 C20 1_555 1_555
H12 C21 1_555 1_555
C22 C21 1_555 1_555
H13 C22 1_555 1_555
C23 C22 1_555 1_555
C24 C23 1_555 1_555
H14 C24 1_555 1_555
C25 C20 1_555 1_555
H15 C25 1_555 1_555
C26 C23 1_555 1_555
C27 C26 1_555 1_555
H16 C27 1_555 1_555
C28 C27 1_555 1_555
H17 C28 1_555 1_555
C29 C28 1_555 1_555
C30 C29 1_555 1_555
H18 C30 1_555 1_555
C31 C26 1_555 1_555
H19 C31 1_555 1_555
C32 O3 1_555 1_555
C33 C5 1_555 1_555
C34 C33 1_555 1_555
H20 C34 1_555 1_555
C35 C34 1_555 1_555
H21 C35 1_555 1_555
C36 C35 1_555 1_555
C37 C36 1_555 1_555
H22 C37 1_555 1_555
C38 C33 1_555 1_555
H23 C38 1_555 1_555
C39 C36 1_555 1_555
C40 C39 1_555 1_555
H24 C40 1_555 1_555
C41 C40 1_555 1_555
H25 C41 1_555 1_555
C42 C41 1_555 1_555
C43 C42 1_555 1_555
H26 C43 1_555 1_555
C44 C39 1_555 1_555
H27 C44 1_555 1_555
C45 O5 1_555 1_555
C46 O7 1_555 1_555
C47 C46 1_555 1_555
C48 C47 1_555 1_555
H28 C48 1_555 1_555
C49 C48 1_555 1_555
H29 C49 1_555 1_555
C50 C49 1_555 1_555
C51 C50 1_555 1_555
C52 C51 1_555 1_555
H30 C52 1_555 1_555
C53 C52 1_555 1_555
H31 C53 1_555 1_555
C54 C53 1_555 1_555
C55 C54 1_555 1_555
C56 C55 1_555 1_555
H32 C56 1_555 1_555
C57 O8 1_555 1_555
C58 C57 1_555 1_555
C59 C58 1_555 1_555
H33 C59 1_555 1_555
C60 C59 1_555 1_555
H34 C60 1_555 1_555
C61 C60 1_555 1_555
C62 C61 1_555 1_555
C63 C62 1_555 1_555
H35 C63 1_555 1_555
C64 C63 1_555 1_555
H36 C64 1_555 1_555
C65 C64 1_555 1_555
C66 C65 1_555 1_555
C67 C66 1_555 1_555
H37 C67 1_555 1_555
Zn3C Zn3 1_555 1_555
Zn3E Zn3 1_555 1_555
O6C Zn3 1_555 1_555
O5A Zn4 1_555 1_555
O5B Zn4 1_555 1_555
Zn3B Zn4 1_555 1_555
Zn3A Zn4 1_555 1_555
C32D O4 1_555 1_555
Zn3D O9 1_555 1_555
Zn4C O9 1_555 1_555
Zn1D O10 1_555 1_555
Zn2D O10 1_555 1_555
C32I C29 1_555 1_555
O4D C32 1_555 1_555
C29I C32 1_555 1_555
O7D C46 1_555 1_555
C48D C47 1_555 1_555
C49D C50 1_555 1_555
C52D C51 1_555 1_555
C53D C54 1_555 1_555
C56B C55 1_555 1_555
C55A C56 1_555 1_555
O8D C57 1_555 1_555
C59D C58 1_555 1_555
C60D C61 1_555 1_555
C63D C62 1_555 1_555
C64D C65 1_555 1_555
C67A C66 1_555 1_555
C66B C67 1_555 1_555
Zn2 O10 1_555 1_555
Zn2 O11 1_555 1_555
Zn4 O9 1_555 1_555
O6 C45 1_555 1_555
O6 Zn3C 1_555 1_555
O9 Zn3C 1_555 1_555
O9 Zn3E 1_555 1_555
O9 Zn3B 1_555 1_555
O9 Zn3A 1_555 1_555
C5 C6 1_555 1_555
C9 C10 1_555 1_555
C11 C12 1_555 1_555
C15 C16 1_555 1_555
C17 C18 1_555 1_555
C24 C25 1_555 1_555
C30 C31 1_555 1_555
C37 C38 1_555 1_555
C42 C45 1_555 1_555
C43 C44 1_555 1_555
Zn3C O6C 1_555 1_555
Zn3C Zn3B 1_555 1_555
Zn3C Zn4C 1_555 1_555
Zn3E Zn3A 1_555 1_555
Zn3E Zn4C 1_555 1_555
O5A Zn3A 1_555 1_555
O5B Zn3B 1_555 1_555
Zn3B Zn3D 1_555 1_555
Zn3A Zn3D 1_555 1_555
Zn3D Zn4C 1_555 1_555
Zn1D O7D 1_555 1_555
Zn2D O4D 1_555 1_555
Zn2D O8D 1_555 1_555
C48D C49D 1_555 1_555
C52D C53D 1_555 1_555
C59D C60D 1_555 1_555
C63D C64D 1_555 1_555

#END
