
#######################################################################
#
#                 Cambridge Crystallographic Data Centre
#                                CCDC 
#
#######################################################################
#
# If this CIF has been generated from an entry in the Cambridge 
# Structural Database, then it will include bibliographic, chemical, 
# crystal, experimental, refinement or atomic coordinate data resulting 
# from the CCDC's data processing and validation procedures.
#
#######################################################################

data_OXANUX
_chemical_formula_moiety         '(C27 H29 Co3 N4 O12 1+)n,n(N1 O3 1-)'
_chemical_name_systematic        
'catena-(tetrakis(\m~3~-isonicotinato)-(\m~3~-hydroxo)-trimethanol-tri-cobalt nitrate)'
_symmetry_cell_setting           orthorhombic
_symmetry_space_group_name_H-M   'P n m a'
_symmetry_Int_Tables_number      62
_space_group_name_Hall           '-P 2ac 2n'
loop_
_symmetry_equiv_pos_site_id
_symmetry_equiv_pos_as_xyz
1 x,y,z
2 1/2-x,-y,1/2+z
3 -x,1/2+y,-z
4 1/2+x,1/2-y,1/2-z
5 -x,-y,-z
6 1/2+x,y,1/2-z
7 x,1/2-y,z
8 1/2-x,1/2+y,1/2+z
_cell_length_a                   18.7824(12)
_cell_length_b                   19.6842(12)
_cell_length_c                   12.0490(7)
_cell_angle_alpha                90
_cell_angle_beta                 90
_cell_angle_gamma                90
_cell_volume                     4454.71
_exptl_crystal_colour            red
_exptl_crystal_description       block
_cell_formula_units_Z            4
loop_
_atom_site_label
_atom_site_type_symbol
_atom_site_fract_x
_atom_site_fract_y
_atom_site_fract_z
Co1 Co 0.30798(4) -0.16249(4) 0.32270(7)
Co2 Co -0.15960(5) -0.2500 0.43741(9)
C1 C 0.2149(4) -0.0385(4) 0.3810(6)
H1 H 0.1884 -0.0547 0.3194
C2 C 0.1896(4) 0.0182(4) 0.4381(7)
H2 H 0.1465 0.0394 0.4156
C3 C 0.2266(3) 0.0429(3) 0.5255(5)
C4 C 0.2905(5) 0.0097(4) 0.5557(7)
H3 H 0.3178 0.0250 0.6172
C5 C 0.3122(5) -0.0454(4) 0.4942(8)
H4 H 0.3561 -0.0666 0.5128
C6 C 0.2025(3) 0.1046(3) 0.5901(5)
C7 C -0.0084(3) -0.1928(3) 0.4257(8)
H5 H -0.0326 -0.1508 0.4352
C8 C 0.0630(4) -0.1908(3) 0.4031(8)
H6 H 0.0871 -0.1485 0.3990
C9 C 0.0992(4) -0.2500 0.3864(7)
C10 C 0.1766(5) -0.2500 0.3531(10)
C11 C 0.3024(9) -0.2042(9) 0.8217(11)
H7 H 0.2750 -0.1711 0.8601
C12 C 0.3035(9) -0.2033(8) 0.7043(10)
H8 H 0.2780 -0.1689 0.6658
C13 C 0.3401(5) -0.2500 0.6462(8)
C14 C 0.3382(6) -0.2500 0.5220(8)
N2 N 0.2741(3) -0.0707(3) 0.4087(5)
O4 O 0.3412(3) -0.2500 0.2381(4)
H9 H 0.3837 -0.2418 0.2585
O5 O 0.1621(2) 0.1453(2) 0.5429(4)
O6 O 0.2275(3) 0.1106(2) 0.6862(4)
O7 O 0.2044(3) -0.1959(3) 0.3398(7)
O8 O 0.3413(4) -0.1949(3) 0.4771(4)
O9 O 0.4148(3) -0.1209(3) 0.3029(6)
H10 H 0.4109 -0.0789 0.3183
C15 C 0.4763(7) -0.1412(10) 0.3601(15)
H11 H 0.5169 -0.1141 0.3349
H12 H 0.4694 -0.1344 0.4400
H13 H 0.4855 -0.1894 0.3454
O10 O -0.2739(4) -0.2500 0.4244(7)
H14 H -0.2790 -0.2500 0.3543
C16 C -0.3357(8) -0.2155(11) 0.4602(18)
H15 H -0.3723 -0.2315 0.4112
H16 H -0.3457 -0.2304 0.5345
H17 H -0.3342 -0.1668 0.4583
N3 N -0.0460(3) -0.2500 0.4361(6)
N4 N 0.3384(4) -0.2500 0.8798(6)
Co1D Co -0.30798(4) 0.16249(4) 0.67730(7)
Co1A Co 0.19202(4) 0.16249(4) 0.82270(7)
Co1E Co -0.19202(4) -0.16249(4) 0.17730(7)
Co1F Co 0.30798(4) -0.33751(4) 0.32270(7)
Co2B Co 0.15960(5) 0.2500 0.56259(9)
Co2C Co 0.34040(5) -0.2500 0.06259(9)
Co2C_2 Co 0.34040(5) -0.2500 1.06259(9)
C1D C -0.2149(4) 0.0385(4) 0.6190(6)
H1D H -0.1884 0.0547 0.6806
C2D C -0.1896(4) -0.0182(4) 0.5619(7)
H2D H -0.1465 -0.0394 0.5844
C3D C -0.2266(3) -0.0429(3) 0.4745(5)
C4D C -0.2905(5) -0.0097(4) 0.4443(7)
H3D H -0.3178 -0.0250 0.3828
C5D C -0.3122(5) 0.0454(4) 0.5058(8)
H4D H -0.3561 0.0666 0.4872
C6D C -0.2025(3) -0.1046(3) 0.4099(5)
C7F C -0.0084(3) -0.3072(3) 0.4257(8)
H5F H -0.0326 -0.3492 0.4352
C8F C 0.0630(4) -0.3092(3) 0.4031(8)
H6F H 0.0871 -0.3515 0.3990
C11F C 0.3024(9) -0.2958(9) 0.8217(11)
H7F H 0.2750 -0.3289 0.8601
C12F C 0.3035(9) -0.2967(8) 0.7043(10)
H8F H 0.2780 -0.3311 0.6658
N2D N -0.2741(3) 0.0707(3) 0.5913(5)
O4B O -0.3412(3) 0.2500 0.7619(4)
O4C O -0.1588(3) -0.2500 0.2619(4)
H9F H 0.3837 -0.2582 0.2585
O5D O -0.1621(2) -0.1453(2) 0.4571(4)
O5B O -0.1621(2) -0.3547(2) 0.4571(4)
O6D O -0.2275(3) -0.1106(2) 0.3138(4)
O6A O 0.2725(3) -0.1106(2) 0.1862(4)
O6E O -0.2725(3) 0.1106(2) 0.8138(4)
O7F O 0.2044(3) -0.3041(3) 0.3398(7)
O7D O -0.2044(3) 0.1959(3) 0.6602(7)
O8F O 0.3413(4) -0.3051(3) 0.4771(4)
O8D O -0.3413(4) 0.1949(3) 0.5229(4)
O9D O -0.4148(3) 0.1209(3) 0.6971(6)
H10D H -0.4109 0.0789 0.6817
C15D C -0.4763(7) 0.1412(10) 0.6399(15)
H11D H -0.5169 0.1141 0.6651
H12D H -0.4694 0.1344 0.5600
H13D H -0.4855 0.1894 0.6546
C16F C -0.3357(8) -0.2845(11) 0.4602(18)
H15F H -0.3723 -0.2685 0.4112
H16F H -0.3457 -0.2696 0.5345
H17F H -0.3342 -0.3332 0.4583
N4C N -0.1616(4) -0.2500 0.6202(6)
O1 O 0.0878(15) 0.511(3) 0.701(3)
O2 O -0.0195(18) 0.510(3) 0.746(3)
O3 O 0.011(2) 0.491(3) 0.581(2)
N1 N 0.0264(15) 0.5019(17) 0.676(2)
C17? C 0.1266(8) 0.2979(7) 1.3227(11)
C18? C 0.1246(8) 0.3006(7) 1.2077(11)
H18? H 0.1018 0.3319 1.3632
H19? H 0.0998 0.3361 1.1709
loop_
_geom_bond_atom_site_label_1
_geom_bond_atom_site_label_2
_geom_bond_site_symmetry_1
_geom_bond_site_symmetry_2
O1 N1 1_555 1_555
O2 N1 1_555 1_555
O3 N1 1_555 1_555
Co1 N2 1_555 1_555
Co2 O10 1_555 1_555
C1 H1 1_555 1_555
C2 C1 1_555 1_555
H2 C2 1_555 1_555
C3 C2 1_555 1_555
C4 C3 1_555 1_555
H3 C4 1_555 1_555
C5 C4 1_555 1_555
H4 C5 1_555 1_555
C6 C3 1_555 1_555
C7 H5 1_555 1_555
C8 C7 1_555 1_555
H6 C8 1_555 1_555
C9 C8 1_555 1_555
C10 C9 1_555 1_555
C11 H7 1_555 1_555
C12 C11 1_555 1_555
H8 C12 1_555 1_555
C13 C12 1_555 1_555
C14 C13 1_555 1_555
N2 C1 1_555 1_555
O4 Co1 1_555 1_555
H9 O4 1_555 1_555
O5 C6 1_555 1_555
O6 C6 1_555 1_555
O7 Co1 1_555 1_555
O8 Co1 1_555 1_555
O9 Co1 1_555 1_555
H10 O9 1_555 1_555
C15 O9 1_555 1_555
H11 C15 1_555 1_555
H12 C15 1_555 1_555
H13 C15 1_555 1_555
O10 H14 1_555 1_555
C16 O10 1_555 1_555
H15 C16 1_555 1_555
H16 C16 1_555 1_555
H17 C16 1_555 1_555
N3 Co2 1_555 1_555
N4 C11 1_555 1_555
Co1D N2D 1_555 1_555
Co1A O6 1_555 1_555
Co1E O4C 1_555 1_555
Co1F O4 1_555 1_555
Co2B O5 1_555 1_555
Co2C O4 1_555 1_555
Co2C_2 N4 1_555 1_555
C1D H1D 1_555 1_555
C2D C1D 1_555 1_555
H2D C2D 1_555 1_555
C3D C2D 1_555 1_555
C4D C3D 1_555 1_555
H3D C4D 1_555 1_555
C5D C4D 1_555 1_555
H4D C5D 1_555 1_555
C6D C3D 1_555 1_555
C7F N3 1_555 1_555
H5F C7F 1_555 1_555
C8F C9 1_555 1_555
H6F C8F 1_555 1_555
C11F C11 1_555 1_555
H7F C11F 1_555 1_555
C12F C13 1_555 1_555
H8F C12F 1_555 1_555
N2D C1D 1_555 1_555
O4B Co1D 1_555 1_555
O4C Co2 1_555 1_555
H9F O4 1_555 1_555
O5D Co2 1_555 1_555
O5B Co2 1_555 1_555
O6D Co1E 1_555 1_555
O6A Co1 1_555 1_555
O6E Co1D 1_555 1_555
O7F C10 1_555 1_555
O7D Co1D 1_555 1_555
O8F C14 1_555 1_555
O8D Co1D 1_555 1_555
O9D Co1D 1_555 1_555
H10D O9D 1_555 1_555
C15D O9D 1_555 1_555
H11D C15D 1_555 1_555
H12D C15D 1_555 1_555
H13D C15D 1_555 1_555
C16F O10 1_555 1_555
H15F C16F 1_555 1_555
H16F C16F 1_555 1_555
H17F C16F 1_555 1_555
N4C Co2 1_555 1_555
C5 N2 1_555 1_555
C7 N3 1_555 1_555
C10 O7 1_555 1_555
C14 O8 1_555 1_555
C16 C16F 1_555 1_555
N4 C11F 1_555 1_555
Co1F O7F 1_555 1_555
Co1F O8F 1_555 1_555
C5D N2D 1_555 1_555
C6D O5D 1_555 1_555
C6D O6D 1_555 1_555
C7F C8F 1_555 1_555
C11F C12F 1_555 1_555

#END
