
#######################################################################
#
#                 Cambridge Crystallographic Data Centre
#                                CCDC 
#
#######################################################################
#
# If this CIF has been generated from an entry in the Cambridge 
# Structural Database, then it will include bibliographic, chemical, 
# crystal, experimental, refinement or atomic coordinate data resulting 
# from the CCDC's data processing and validation procedures.
#
#######################################################################

data_OXAPEJ
_chemical_formula_moiety         '(C32 H39 Co3 N4 O12 1+)n,n(N1 O3 1-)'
_chemical_name_systematic        
'catena-(tetrakis(\m~3~-isonicotinato)-(\m~3~-hydroxo)-di-n-butanol-aqua-tri-cobalt nitrate)'
_symmetry_cell_setting           orthorhombic
_symmetry_space_group_name_H-M   'P n m a'
_symmetry_Int_Tables_number      62
_space_group_name_Hall           '-P 2ac 2n'
loop_
_symmetry_equiv_pos_site_id
_symmetry_equiv_pos_as_xyz
1 x,y,z
2 1/2-x,-y,1/2+z
3 -x,1/2+y,-z
4 1/2+x,1/2-y,1/2-z
5 -x,-y,-z
6 1/2+x,y,1/2-z
7 x,1/2-y,z
8 1/2-x,1/2+y,1/2+z
_cell_length_a                   18.9705(17)
_cell_length_b                   19.4783(18)
_cell_length_c                   12.0751(11)
_cell_angle_alpha                90
_cell_angle_beta                 90
_cell_angle_gamma                90
_cell_volume                     4461.91
_exptl_crystal_colour            red
_exptl_crystal_description       block
_cell_formula_units_Z            4
loop_
_atom_site_label
_atom_site_type_symbol
_atom_site_fract_x
_atom_site_fract_y
_atom_site_fract_z
Co1 Co 0.18721(4) 0.16213(4) -0.64724(6)
Co2 Co 0.34452(6) -0.2500 -0.40731(9)
C1 C 0.2734(3) -0.0433(3) -0.4447(5)
C2 C 0.3092(4) -0.0183(4) -0.5348(6)
H1 H 0.3512 -0.0400 -0.5597
C3 C 0.2831(4) 0.0396(4) -0.5893(6)
H2 H 0.3094 0.0579 -0.6493
C4 C 0.1872(4) 0.0444(4) -0.4752(6)
H3 H 0.1437 0.0651 -0.4553
C5 C 0.2106(4) -0.0111(4) -0.4139(6)
H4 H 0.1845 -0.0270 -0.3519
C6 C 0.2997(4) -0.1044(3) -0.3798(5)
C7 C 0.6026(4) -0.2500 -0.3928(7)
C8 C 0.5641(6) -0.3079(7) -0.3706(15)
H5 H 0.5864 -0.3489 -0.3466
C10 C 0.4912(6) -0.3048(7) -0.3844(16)
H7 H 0.4649 -0.3456 -0.3720
C12 C 0.6817(5) -0.2500 -0.3760(17)
C13 C 0.3443(5) -0.2500 -0.8216(7)
C14 C 0.3082(8) -0.3009(8) -0.7632(11)
H9 H 0.2833 -0.3358 -0.8017
C15 C 0.3090(8) -0.2997(8) -0.6476(11)
H10 H 0.2850 -0.3349 -0.6084
C16 C 0.3436(4) -0.2500 -0.9489(8)
C17 C 0.0195(7) 0.1427(11) -0.6332(18)
H11 H -0.0136 0.1074 -0.6610
H12 H 0.0156 0.1810 -0.6868
C18 C -0.0198(9) 0.1710(13) -0.5327(18)
H13 H -0.0026 0.1482 -0.4647
H14 H -0.0106 0.2209 -0.5257
C19 C -0.0988(9) 0.1589(15) -0.545(2)
H15 H -0.1199 0.1962 -0.5894
H16 H -0.1071 0.1149 -0.5840
C20 C -0.1332(14) 0.1566(16) -0.431(2)
H17 H -0.1838 0.1479 -0.4396
H18 H -0.1261 0.2006 -0.3936
H19 H -0.1119 0.1197 -0.3873
N1 N 0.2228(3) 0.0703(3) -0.5610(4)
N2 N 0.4570(4) -0.2500 -0.4129(6)
O1 O 0.3477(3) -0.2500 -0.2320(4)
O2 O 0.2320(4) -0.2500 -0.3950(6)
H21 H 0.2198 -0.2500 -0.3272
O3 O 0.3428(2) -0.1438(2) -0.4273(4)
O4 O 0.2764(3) -0.1104(3) -0.2836(4)
O5 O 0.7108(3) -0.1962(3) -0.3687(9)
O6 O 0.3441(5) -0.3062(3) -0.9934(4)
O7 O 0.0857(3) 0.1142(3) -0.6603(6)
H23 H 0.0796 0.1298 -0.7254
N3 N 0.3428(4) -0.2500 -0.5892(6)
Co1F Co 0.18721(4) -0.66213(4) -0.64724(6)
Co1A Co 0.31279(4) -0.16213(4) -0.14724(6)
Co1G Co 0.31279(4) -0.33787(4) -0.14724(6)
Co1D Co 0.81279(4) -0.16213(4) -0.35276(6)
Co1G_2 Co 0.31279(4) -0.33787(4) -1.14724(6)
Co1B Co 0.81279(4) -0.33787(4) -0.35276(6)
Co1A_2 Co 0.31279(4) -0.16213(4) -1.14724(6)
C1F C 0.2734(3) -0.4567(3) -0.4447(5)
C2F C 0.3092(4) -0.4817(4) -0.5348(6)
H1F H 0.3512 -0.4600 -0.5597
C3F C 0.2831(4) -0.5396(4) -0.5893(6)
H2F H 0.3094 -0.5579 -0.6493
C4F C 0.1872(4) -0.5444(4) -0.4752(6)
H3F H 0.1437 -0.5651 -0.4553
C5F C 0.2106(4) -0.4889(4) -0.4139(6)
H4F H 0.1845 -0.4730 -0.3519
C6F C 0.2997(4) -0.3956(3) -0.3798(5)
C8F C 0.5641(6) -0.1921(7) -0.3706(15)
H5F H 0.5864 -0.1511 -0.3466
C10F C 0.4912(6) -0.1952(7) -0.3844(16)
H7F H 0.4649 -0.1544 -0.3720
C14F C 0.3082(8) -0.1991(8) -0.7632(11)
H9F H 0.2833 -0.1642 -0.8017
C15F C 0.3090(8) -0.2003(8) -0.6476(11)
H10F H 0.2850 -0.1651 -0.6084
C17F C 0.0195(7) -0.6427(11) -0.6332(18)
H11F H -0.0136 -0.6074 -0.6610
H12F H 0.0156 -0.6810 -0.6868
C18F C -0.0198(9) -0.6710(13) -0.5327(18)
H13F H -0.0026 -0.6482 -0.4647
H14F H -0.0106 -0.7209 -0.5257
C19F C -0.0988(9) -0.6589(15) -0.545(2)
H15F H -0.1199 -0.6962 -0.5894
H16F H -0.1071 -0.6149 -0.5840
C20F C -0.1332(14) -0.6566(16) -0.431(2)
H17F H -0.1838 -0.6479 -0.4396
H18F H -0.1261 -0.7006 -0.3936
H19F H -0.1119 -0.6197 -0.3873
N1F N 0.2228(3) -0.5703(3) -0.5610(4)
O1A O 0.1523(3) 0.2500 -0.7320(4)
O1A_2 O 0.1523(3) -0.7500 -0.7320(4)
O3F O 0.3428(2) -0.3562(2) -0.4273(4)
O4F O 0.2764(3) -0.3896(3) -0.2836(4)
O4A O 0.2236(3) 0.1104(3) -0.7836(4)
O4G O 0.2236(3) -0.6104(3) -0.7836(4)
O5F O 0.7108(3) -0.3038(3) -0.3687(9)
O5D O 0.2892(3) 0.1962(3) -0.6313(9)
O5B O 0.2892(3) -0.6962(3) -0.6313(9)
O6F O 0.3441(5) -0.1938(3) -0.9934(4)
O6G O 0.1559(5) 0.1938(3) -0.4934(4)
O6A O 0.1559(5) -0.6938(3) -0.4934(4)
O7F O 0.0857(3) -0.6142(3) -0.6603(6)
H23F H 0.0796 -0.6298 -0.7254
C9? C -0.0682(9) 0.1943(9) 0.0641(16)
H6? H -0.0930 0.1540 0.0431
C11? C 0.0055(9) 0.1990(9) 0.0523(16)
H8? H 0.0292 0.1622 0.0164
H20? H 0.1100 0.2576 0.2875
H22? H 0.2844 0.2856 0.0735
C21? C -0.3779(8) 0.2025(7) -0.3535(10)
C22? C -0.3801(7) 0.2002(7) -0.2395(10)
C23? C -0.4292(14) 0.0452(7) 0.199(2)
C24? C -0.4761(15) 0.0347(11) 0.300(2)
C25? C -0.4904(15) -0.0401(13) 0.327(2)
C26? C -0.5435(17) -0.0699(16) 0.246(3)
H24? H -0.4028 0.1683 -0.3936
H25? H -0.4058 0.1651 -0.2028
H26? H -0.3835 0.0229 0.2149
H27? H -0.4510 0.0198 0.1369
H28? H -0.5216 0.0583 0.2878
H29? H -0.4534 0.0566 0.3653
H30? H -0.4459 -0.0664 0.3235
H31? H -0.5092 -0.0439 0.4036
H32? H -0.5523 -0.1182 0.2636
H33? H -0.5878 -0.0441 0.2503
H34? H -0.5246 -0.0664 0.1702
loop_
_geom_bond_atom_site_label_1
_geom_bond_atom_site_label_2
_geom_bond_site_symmetry_1
_geom_bond_site_symmetry_2
Co1 N1 1_555 1_555
Co2 N2 1_555 1_555
C1 C2 1_555 1_555
C2 H1 1_555 1_555
C3 C2 1_555 1_555
H2 C3 1_555 1_555
C4 H3 1_555 1_555
C5 C1 1_555 1_555
H4 C5 1_555 1_555
C6 C1 1_555 1_555
C7 C8 1_555 1_555
C8 H5 1_555 1_555
C10 C8 1_555 1_555
H7 C10 1_555 1_555
C12 C7 1_555 1_555
C13 C14 1_555 1_555
C14 H9 1_555 1_555
C15 C14 1_555 1_555
H10 C15 1_555 1_555
C16 C13 1_555 1_555
C17 H11 1_555 1_555
H12 C17 1_555 1_555
C18 C17 1_555 1_555
H13 C18 1_555 1_555
H14 C18 1_555 1_555
C19 C18 1_555 1_555
H15 C19 1_555 1_555
H16 C19 1_555 1_555
C20 C19 1_555 1_555
H17 C20 1_555 1_555
H18 C20 1_555 1_555
H19 C20 1_555 1_555
N1 C3 1_555 1_555
N2 C10 1_555 1_555
O1 Co2 1_555 1_555
O2 Co2 1_555 1_555
H21 O2 1_555 1_555
O3 Co2 1_555 1_555
O4 C6 1_555 1_555
O5 C12 1_555 1_555
O6 C16 1_555 1_555
O7 Co1 1_555 1_555
H23 O7 1_555 1_555
N3 Co2 1_555 1_555
Co1F N1F 1_555 1_555
Co1A O1 1_555 1_555
Co1G O1 1_555 1_555
Co1D O5 1_555 1_555
Co1G_2 O6 1_555 1_555
Co1B O5F 1_555 1_555
Co1A_2 O6F 1_555 1_555
C1F C2F 1_555 1_555
C2F H1F 1_555 1_555
C3F C2F 1_555 1_555
H2F C3F 1_555 1_555
C4F H3F 1_555 1_555
C5F C1F 1_555 1_555
H4F C5F 1_555 1_555
C6F C1F 1_555 1_555
C8F C7 1_555 1_555
H5F C8F 1_555 1_555
C10F N2 1_555 1_555
H7F C10F 1_555 1_555
C14F C13 1_555 1_555
H9F C14F 1_555 1_555
C15F N3 1_555 1_555
H10F C15F 1_555 1_555
C17F H11F 1_555 1_555
H12F C17F 1_555 1_555
C18F C17F 1_555 1_555
H13F C18F 1_555 1_555
H14F C18F 1_555 1_555
C19F C18F 1_555 1_555
H15F C19F 1_555 1_555
H16F C19F 1_555 1_555
C20F C19F 1_555 1_555
H17F C20F 1_555 1_555
H18F C20F 1_555 1_555
H19F C20F 1_555 1_555
N1F C3F 1_555 1_555
O1A Co1 1_555 1_555
O1A_2 Co1F 1_555 1_555
O3F Co2 1_555 1_555
O4F Co1G 1_555 1_555
O4A Co1 1_555 1_555
O4G Co1F 1_555 1_555
O5F C12 1_555 1_555
O5D Co1 1_555 1_555
O5B Co1F 1_555 1_555
O6F C16 1_555 1_555
O6G Co1 1_555 1_555
O6A Co1F 1_555 1_555
O7F Co1F 1_555 1_555
H23F O7F 1_555 1_555
C4 C5 1_555 1_555
C4 N1 1_555 1_555
C6 O3 1_555 1_555
C15 N3 1_555 1_555
C17 O7 1_555 1_555
O4 Co1A 1_555 1_555
C4F C5F 1_555 1_555
C4F N1F 1_555 1_555
C6F O3F 1_555 1_555
C6F O4F 1_555 1_555
C8F C10F 1_555 1_555
C14F C15F 1_555 1_555
C17F O7F 1_555 1_555

#END
