
#######################################################################
#
#                 Cambridge Crystallographic Data Centre
#                                CCDC 
#
#######################################################################
#
# If this CIF has been generated from an entry in the Cambridge 
# Structural Database, then it will include bibliographic, chemical, 
# crystal, experimental, refinement or atomic coordinate data resulting 
# from the CCDC's data processing and validation procedures.
#
#######################################################################

data_NOXMAQ
_chemical_formula_moiety         '(C54 H32 O8 Zn2)n'
_chemical_name_systematic        
"catena-[(\m~8~-4',4'',4''',4''''-Ethene-1,1,2,2-tetrayltetrabiphenyl-4-carboxylato)-di-zinc unknown solvate]"
_symmetry_cell_setting           orthorhombic
_symmetry_space_group_name_H-M   'I b a m'
_symmetry_Int_Tables_number      72
_space_group_name_Hall           '-I 2 2c'
loop_
_symmetry_equiv_pos_site_id
_symmetry_equiv_pos_as_xyz
1 x,y,z
2 1/2+x,1/2+y,1/2+z
3 -x,-y,z
4 1/2-x,1/2-y,1/2+z
5 1/2-x,1/2+y,-z
6 1/2+x,1/2-y,-z
7 -x,y,1/2-z
8 x,-y,1/2-z
9 -x,-y,-z
10 1/2-x,1/2-y,1/2-z
11 x,y,-z
12 1/2+x,1/2+y,1/2-z
13 1/2+x,1/2-y,z
14 1/2-x,1/2+y,z
15 x,-y,1/2+z
16 -x,y,1/2+z
_cell_length_a                   36.006(3)
_cell_length_b                   6.0130(5)
_cell_length_c                   31.426(3)
_cell_angle_alpha                90
_cell_angle_beta                 90
_cell_angle_gamma                90
_cell_volume                     6803.86
_exptl_crystal_colour            'pale yellow'
_exptl_crystal_description       Plate
_cell_formula_units_Z            4
loop_
_atom_site_label
_atom_site_type_symbol
_atom_site_fract_x
_atom_site_fract_y
_atom_site_fract_z
_atom_site_U_iso_or_equiv
_atom_site_thermal_displace_type
Zn1 Zn 0.22983(4) 1.0152(2) 0.5000 0.0372 Uani
O1 O 0.1951(3) 0.7888(15) 0.5159(3) 0.0337 Uani
O2 O 0.2642(3) 1.0456(16) 0.4580(3) 0.0183 Uani
C1 C 0.2047(3) 0.632(2) 0.5403(4) 0.0343 Uani
C2 C 0.1754(3) 0.540(2) 0.5691(5) 0.0407 Uani
C3 C 0.1414(3) 0.646(2) 0.5735(4) 0.0460 Uani
C4 C 0.1798(4) 0.343(3) 0.5903(6) 0.0497 Uani
H1 H 0.1370 0.7798 0.5577 0.0550 Uiso
C5 C 0.1145(4) 0.561(2) 0.5990(5) 0.0470 Uani
C6 C 0.1507(4) 0.258(3) 0.6147(6) 0.0490 Uani
H2 H 0.2027 0.2626 0.5879 0.0590 Uiso
H3 H 0.0909 0.6356 0.5992 0.0570 Uiso
C7 C 0.1183(4) 0.375(2) 0.6244(5) 0.0430 Uani
H4 H 0.1532 0.1116 0.6266 0.0590 Uiso
C8 C 0.0871(3) 0.282(2) 0.6491(4) 0.0437 Uani
C9 C 0.0773(4) 0.059(2) 0.6468(5) 0.0580 Uani
C10 C 0.0682(5) 0.409(2) 0.6802(5) 0.0547 Uani
H5 H 0.0903 -0.0363 0.6274 0.0700 Uiso
C11 C 0.0499(4) -0.027(2) 0.6718(5) 0.0553 Uani
C12 C 0.0399(5) 0.321(2) 0.7040(6) 0.0583 Uani
H6 H 0.0753 0.5612 0.6843 0.0660 Uiso
H7 H 0.0441 -0.1820 0.6695 0.0660 Uiso
C13 C 0.0302(4) 0.099(2) 0.7005(5) 0.0393 Uani
H8 H 0.0267 0.4134 0.7238 0.0700 Uiso
C14 C 0.0000 0.0000 0.7263(5) 0.0377 Uani
O1J O 0.1951(3) 0.7888(15) 0.4841(3) 0.0337 Uani
O2J O 0.2642(3) 1.0456(16) 0.5420(3) 0.0183 Uani
O2D O 0.2358(3) 0.5456(16) 0.5420(3) 0.0183 Uani
Zn1D Zn 0.27017(4) 0.5152(2) 0.5000 0.0372 Uani
C13B C -0.0302(4) -0.099(2) 0.7005(5) 0.0393 Uani
C14F C 0.0000 0.0000 0.7737(5) 0.0377 Uani
C11B C -0.0499(4) 0.027(2) 0.6718(5) 0.0553 Uani
C12B C -0.0399(5) -0.321(2) 0.7040(6) 0.0583 Uani
C13F C -0.0302(4) 0.099(2) 0.7995(5) 0.0393 Uani
C13G C 0.0302(4) -0.099(2) 0.7995(5) 0.0393 Uani
C9B C -0.0773(4) -0.059(2) 0.6468(5) 0.0580 Uani
H7B H -0.0441 0.1820 0.6695 0.0660 Uiso
H8B H -0.0267 -0.4134 0.7238 0.0700 Uiso
C10B C -0.0682(5) -0.409(2) 0.6802(5) 0.0547 Uani
C11F C -0.0499(4) -0.027(2) 0.8282(5) 0.0553 Uani
C12F C -0.0399(5) 0.321(2) 0.7960(6) 0.0583 Uani
C11G C 0.0499(4) 0.027(2) 0.8282(5) 0.0553 Uani
C12G C 0.0399(5) -0.321(2) 0.7960(6) 0.0583 Uani
C8B C -0.0871(3) -0.282(2) 0.6491(4) 0.0437 Uani
H5B H -0.0903 0.0363 0.6274 0.0700 Uiso
H6B H -0.0753 -0.5612 0.6843 0.0660 Uiso
C9F C -0.0773(4) 0.059(2) 0.8532(5) 0.0580 Uani
H7F H -0.0441 -0.1820 0.8305 0.0660 Uiso
H8F H -0.0267 0.4134 0.7762 0.0700 Uiso
C10F C -0.0682(5) 0.409(2) 0.8198(5) 0.0547 Uani
C9G C 0.0773(4) -0.059(2) 0.8532(5) 0.0580 Uani
H7G H 0.0441 0.1820 0.8305 0.0660 Uiso
H8G H 0.0267 -0.4134 0.7762 0.0700 Uiso
C10G C 0.0682(5) -0.409(2) 0.8198(5) 0.0547 Uani
C7B C -0.1183(4) -0.375(2) 0.6244(5) 0.0430 Uani
C8F C -0.0871(3) 0.282(2) 0.8509(4) 0.0437 Uani
H5F H -0.0903 -0.0363 0.8726 0.0700 Uiso
H6F H -0.0753 0.5612 0.8157 0.0660 Uiso
C8G C 0.0871(3) -0.282(2) 0.8509(4) 0.0437 Uani
H5G H 0.0903 0.0363 0.8726 0.0700 Uiso
H6G H 0.0753 -0.5612 0.8157 0.0660 Uiso
C5B C -0.1145(4) -0.561(2) 0.5990(5) 0.0470 Uani
C6B C -0.1507(4) -0.258(3) 0.6147(6) 0.0490 Uani
C7F C -0.1183(4) 0.375(2) 0.8756(5) 0.0430 Uani
C7G C 0.1183(4) -0.375(2) 0.8756(5) 0.0430 Uani
C3B C -0.1414(3) -0.646(2) 0.5735(4) 0.0460 Uani
H3B H -0.0909 -0.6356 0.5992 0.0570 Uiso
H4B H -0.1532 -0.1116 0.6266 0.0590 Uiso
C4B C -0.1798(4) -0.343(3) 0.5903(6) 0.0497 Uani
C5F C -0.1145(4) 0.561(2) 0.9010(5) 0.0470 Uani
C6F C -0.1507(4) 0.258(3) 0.8853(6) 0.0490 Uani
C5G C 0.1145(4) -0.561(2) 0.9010(5) 0.0470 Uani
C6G C 0.1507(4) -0.258(3) 0.8853(6) 0.0490 Uani
C2B C -0.1754(3) -0.540(2) 0.5691(5) 0.0407 Uani
H1B H -0.1370 -0.7798 0.5577 0.0550 Uiso
H2B H -0.2027 -0.2626 0.5879 0.0590 Uiso
C3F C -0.1414(3) 0.646(2) 0.9265(4) 0.0460 Uani
H3F H -0.0909 0.6356 0.9008 0.0570 Uiso
H4F H -0.1532 0.1116 0.8734 0.0590 Uiso
C4F C -0.1798(4) 0.343(3) 0.9097(6) 0.0497 Uani
C3G C 0.1414(3) -0.646(2) 0.9265(4) 0.0460 Uani
H3G H 0.0909 -0.6356 0.9008 0.0570 Uiso
H4G H 0.1532 -0.1116 0.8734 0.0590 Uiso
C4G C 0.1798(4) -0.343(3) 0.9097(6) 0.0497 Uani
C1B C -0.2047(3) -0.632(2) 0.5403(4) 0.0343 Uani
C2F C -0.1754(3) 0.540(2) 0.9309(5) 0.0407 Uani
H1F H -0.1370 0.7798 0.9423 0.0550 Uiso
H2F H -0.2027 0.2626 0.9121 0.0590 Uiso
C2G C 0.1754(3) -0.540(2) 0.9309(5) 0.0407 Uani
H1G H 0.1370 -0.7798 0.9423 0.0550 Uiso
H2G H 0.2027 -0.2626 0.9121 0.0590 Uiso
O1B O -0.1951(3) -0.7888(15) 0.5159(3) 0.0337 Uani
O2E O -0.2358(3) -0.5456(16) 0.5420(3) 0.0183 Uani
C1F C -0.2047(3) 0.632(2) 0.9597(4) 0.0343 Uani
C1G C 0.2047(3) -0.632(2) 0.9597(4) 0.0343 Uani
O1H O -0.1951(3) -0.7888(15) 0.4841(3) 0.0337 Uani
Zn1B Zn -0.22983(4) -1.0152(2) 0.5000 0.0372 Uani
Zn1E Zn -0.27017(4) -0.5152(2) 0.5000 0.0372 Uani
O1F O -0.1951(3) 0.7888(15) 0.9841(3) 0.0337 Uani
O2A O -0.2358(3) 0.5456(16) 0.9580(3) 0.0183 Uani
O1G O 0.1951(3) -0.7888(15) 0.9841(3) 0.0337 Uani
O2C O 0.2358(3) -0.5456(16) 0.9580(3) 0.0183 Uani
O2B O -0.2642(3) -1.0456(16) 0.4580(3) 0.0183 Uani
O2H O -0.2642(3) -1.0456(16) 0.5420(3) 0.0183 Uani
Zn1F Zn -0.22983(4) 1.0152(2) 1.0000 0.0372 Uani
Zn1A Zn -0.27017(4) 0.5152(2) 1.0000 0.0372 Uani
Zn1G Zn 0.22983(4) -1.0152(2) 1.0000 0.0372 Uani
Zn1C Zn 0.27017(4) -0.5152(2) 1.0000 0.0372 Uani
C15? C -0.0906(3) -0.256(2) 0.8421(4) 0.0403 Uani
C16? C -0.0537(3) -0.304(2) 0.8532(4) 0.0463 Uani
H9? H -0.0489 -0.4007 0.8769 0.0550 Uiso
C17? C -0.0249(4) -0.218(2) 0.8305(5) 0.0530 Uani
H10? H 0.0003 -0.2469 0.8391 0.0640 Uiso
C18? C -0.0315(3) -0.091(3) 0.7938(5) 0.0480 Uani
C19? C -0.0679(3) -0.015(3) 0.7883(5) 0.0500 Uani
H11? H -0.0724 0.1095 0.7698 0.0600 Uiso
C20? C -0.0968(4) -0.117(3) 0.8086(5) 0.0520 Uani
H12? H -0.1219 -0.0852 0.8004 0.0630 Uiso
C21? C -0.1775(3) -0.534(2) 0.9188(5) 0.0343 Uani
C22? C -0.1817(4) -0.331(2) 0.8972(4) 0.0377 Uani
H13? H -0.2048 -0.2528 0.9000 0.0450 Uiso
C23? C -0.1548(3) -0.244(2) 0.8723(4) 0.0387 Uani
H14? H -0.1592 -0.1104 0.8565 0.0460 Uiso
C24? C -0.1212(3) -0.351(2) 0.8685(5) 0.0397 Uani
C25? C -0.1161(4) -0.561(3) 0.8871(6) 0.0480 Uani
H15? H -0.0932 -0.6400 0.8833 0.0570 Uiso
C26? C -0.1445(4) -0.650(3) 0.9113(5) 0.0447 Uani
H16? H -0.1417 -0.7957 0.9234 0.0530 Uiso
C27? C -0.2065(3) -0.6206(19) 0.9475(4) 0.0257 Uani
O3? O -0.2383(3) -0.5403(18) 0.9459(4) 0.0317 Uani
O4? O -0.1978(3) -0.7784(16) 0.9714(3) 0.0297 Uani
C28? C 0.0000 0.0000 0.7310(5) 0.0413 Uani
loop_
_atom_site_aniso_label
_atom_site_aniso_U_11
_atom_site_aniso_U_22
_atom_site_aniso_U_33
_atom_site_aniso_U_23
_atom_site_aniso_U_13
_atom_site_aniso_U_12
Zn1 0.0245(9) 0.0437(10) 0.0435(10) 0.000 0.000 0.0015(7)
O1 0.025(5) 0.044(5) 0.032(5) 0.020(4) -0.007(4) 0.002(4)
O2 0.025 0.021 0.009 -0.008 -0.003 -0.002
C1 0.031(6) 0.040(6) 0.032(5) 0.023(5) -0.007(5) -0.007(5)
C2 0.042(6) 0.045(6) 0.035(6) 0.022(5) 0.003(6) -0.007(5)
C3 0.044(7) 0.048(7) 0.046(7) 0.030(6) 0.006(6) 0.007(6)
C4 0.048(7) 0.052(7) 0.049(7) 0.032(6) 0.010(6) 0.001(7)
C5 0.043(7) 0.045(7) 0.053(7) 0.029(6) 0.009(6) 0.010(6)
C6 0.047(7) 0.054(7) 0.046(7) 0.030(6) 0.016(6) -0.003(6)
C7 0.048(6) 0.042(5) 0.039(6) 0.031(5) 0.008(5) -0.002(5)
C8 0.046(7) 0.051(6) 0.034(6) 0.018(5) 0.003(5) -0.005(5)
C9 0.058(8) 0.070(7) 0.046(7) -0.004(7) 0.010(7) -0.010(7)
C10 0.052(8) 0.066(7) 0.046(7) 0.008(7) 0.004(7) -0.007(7)
C11 0.056(7) 0.067(7) 0.043(7) 0.008(7) 0.008(6) -0.017(7)
C12 0.054(8) 0.075(7) 0.046(7) -0.001(7) 0.007(7) -0.008(7)
C13 0.038(6) 0.058(6) 0.022(6) 0.004(5) 0.002(5) -0.013(6)
C14 0.036(7) 0.051(7) 0.026(7) 0.000 0.000 -0.017(9)
O1J 0.025 0.044 0.032 -0.02 0.007 0.002
O2J 0.025 0.021 0.009 0.008 0.003 -0.002
O2D 0.025(5) 0.021(5) 0.009(4) 0.008(4) -0.003(4) 0.002(4)
Zn1D 0.0245 0.0437 0.0435 0 0 -0.0015
C13B 0.038 0.058 0.022 -0.004 -0.002 -0.013
C14F 0.036 0.051 0.026 0 0 0.017
C11B 0.056 0.067 0.043 -0.008 -0.008 -0.017
C12B 0.054 0.075 0.046 0.001 -0.007 -0.008
C13F 0.038 0.058 0.022 -0.004 0.002 0.013
C13G 0.038 0.058 0.022 0.004 -0.002 0.013
C9B 0.058 0.07 0.046 0.004 -0.01 -0.01
C10B 0.052 0.066 0.046 -0.008 -0.004 -0.007
C11F 0.056 0.067 0.043 -0.008 0.008 0.017
C12F 0.054 0.075 0.046 0.001 0.007 0.008
C11G 0.056 0.067 0.043 0.008 -0.008 0.017
C12G 0.054 0.075 0.046 -0.001 -0.007 0.008
C8B 0.046 0.051 0.034 -0.018 -0.003 -0.005
C9F 0.058 0.07 0.046 0.004 0.01 0.01
C10F 0.052 0.066 0.046 -0.008 0.004 0.007
C9G 0.058 0.07 0.046 -0.004 -0.01 0.01
C10G 0.052 0.066 0.046 0.008 -0.004 0.007
C7B 0.048 0.042 0.039 -0.031 -0.008 -0.002
C8F 0.046 0.051 0.034 -0.018 0.003 0.005
C8G 0.046 0.051 0.034 0.018 -0.003 0.005
C5B 0.043 0.045 0.053 -0.029 -0.009 0.01
C6B 0.047 0.054 0.046 -0.03 -0.016 -0.003
C7F 0.048 0.042 0.039 -0.031 0.008 0.002
C7G 0.048 0.042 0.039 0.031 -0.008 0.002
C3B 0.044 0.048 0.046 -0.03 -0.006 0.007
C4B 0.048 0.052 0.049 -0.032 -0.01 0.001
C5F 0.043 0.045 0.053 -0.029 0.009 -0.01
C6F 0.047 0.054 0.046 -0.03 0.016 0.003
C5G 0.043 0.045 0.053 0.029 -0.009 -0.01
C6G 0.047 0.054 0.046 0.03 -0.016 0.003
C2B 0.042 0.045 0.035 -0.022 -0.003 -0.007
C3F 0.044 0.048 0.046 -0.03 0.006 -0.007
C4F 0.048 0.052 0.049 -0.032 0.01 -0.001
C3G 0.044 0.048 0.046 0.03 -0.006 -0.007
C4G 0.048 0.052 0.049 0.032 -0.01 -0.001
C1B 0.031 0.04 0.032 -0.023 0.007 -0.007
C2F 0.042 0.045 0.035 -0.022 0.003 0.007
C2G 0.042 0.045 0.035 0.022 -0.003 0.007
O1B 0.025 0.044 0.032 -0.02 0.007 0.002
O2E 0.025 0.021 0.009 -0.008 0.003 0.002
C1F 0.031 0.04 0.032 -0.023 -0.007 0.007
C1G 0.031 0.04 0.032 0.023 0.007 0.007
O1H 0.025 0.044 0.032 0.02 -0.007 0.002
Zn1B 0.0245 0.0437 0.0435 0 0 0.0015
Zn1E 0.0245 0.0437 0.0435 0 0 -0.0015
O1F 0.025 0.044 0.032 -0.02 -0.007 -0.002
O2A 0.025 0.021 0.009 -0.008 -0.003 -0.002
O1G 0.025 0.044 0.032 0.02 0.007 -0.002
O2C 0.025 0.021 0.009 0.008 0.003 -0.002
O2B 0.025 0.021 0.009 0.008 0.003 -0.002
O2H 0.025 0.021 0.009 -0.008 -0.003 -0.002
Zn1F 0.0245 0.0437 0.0435 0 0 -0.0015
Zn1A 0.0245 0.0437 0.0435 0 0 0.0015
Zn1G 0.0245 0.0437 0.0435 0 0 -0.0015
Zn1C 0.0245 0.0437 0.0435 0 0 0.0015
C15? 0.028(6) 0.055(6) 0.038(6) 0.015(5) -0.006(5) -0.009(5)
C16? 0.029(7) 0.067(7) 0.043(7) 0.013(6) 0.003(6) 0.001(6)
C17? 0.039(7) 0.073(8) 0.047(7) 0.011(7) -0.003(6) 0.001(7)
C18? 0.037(6) 0.065(7) 0.042(6) 0.007(6) -0.003(5) -0.014(6)
C19? 0.035(7) 0.066(8) 0.049(7) 0.019(7) -0.003(6) -0.002(6)
C20? 0.038(7) 0.068(7) 0.050(7) 0.011(7) -0.004(6) -0.006(6)
C21? 0.035(6) 0.041(6) 0.027(6) 0.018(5) 0.004(5) 0.001(5)
C22? 0.042(7) 0.040(6) 0.031(6) 0.023(6) 0.007(6) -0.001(6)
C23? 0.041(7) 0.042(6) 0.033(6) 0.023(6) 0.008(6) 0.001(6)
C24? 0.031(6) 0.047(6) 0.041(6) 0.016(5) 0.001(5) -0.004(5)
C25? 0.041(7) 0.057(7) 0.046(7) 0.024(7) 0.005(7) -0.010(6)
C26? 0.039(7) 0.053(7) 0.042(7) 0.026(6) 0.002(6) -0.004(6)
C27? 0.029(5) 0.033(5) 0.015(4) 0.014(4) -0.001(4) -0.003(4)
O3? 0.038(5) 0.034(4) 0.023(4) 0.016(4) -0.002(4) -0.003(4)
O4? 0.027(5) 0.042(5) 0.020(4) 0.023(4) -0.002(4) 0.000(4)
C28? 0.036 0.053 0.035 0 0 0.015
loop_
_geom_bond_atom_site_label_1
_geom_bond_atom_site_label_2
_geom_bond_site_symmetry_1
_geom_bond_site_symmetry_2
Zn1 O1 1_555 1_555
O1 C1 1_555 1_555
O2 Zn1 1_555 1_555
C1 C2 1_555 1_555
C2 C3 1_555 1_555
C3 H1 1_555 1_555
C4 C2 1_555 1_555
C5 C3 1_555 1_555
C6 C4 1_555 1_555
H2 C4 1_555 1_555
H3 C5 1_555 1_555
C7 C5 1_555 1_555
H4 C6 1_555 1_555
C8 C7 1_555 1_555
C9 C8 1_555 1_555
C10 C8 1_555 1_555
H5 C9 1_555 1_555
C11 C9 1_555 1_555
C12 C10 1_555 1_555
H6 C10 1_555 1_555
H7 C11 1_555 1_555
C13 C11 1_555 1_555
H8 C12 1_555 1_555
C14 C13 1_555 1_555
O1J Zn1 1_555 1_555
O2J Zn1 1_555 1_555
O2D C1 1_555 1_555
Zn1D O2D 1_555 1_555
C13B C14 1_555 1_555
C14F C14 1_555 1_555
C11B C13B 1_555 1_555
C12B C13B 1_555 1_555
C13F C14F 1_555 1_555
C13G C14F 1_555 1_555
C9B C11B 1_555 1_555
H7B C11B 1_555 1_555
H8B C12B 1_555 1_555
C10B C12B 1_555 1_555
C11F C13F 1_555 1_555
C12F C13F 1_555 1_555
C11G C13G 1_555 1_555
C12G C13G 1_555 1_555
C8B C9B 1_555 1_555
H5B C9B 1_555 1_555
H6B C10B 1_555 1_555
C9F C11F 1_555 1_555
H7F C11F 1_555 1_555
H8F C12F 1_555 1_555
C10F C12F 1_555 1_555
C9G C11G 1_555 1_555
H7G C11G 1_555 1_555
H8G C12G 1_555 1_555
C10G C12G 1_555 1_555
C7B C8B 1_555 1_555
C8F C9F 1_555 1_555
H5F C9F 1_555 1_555
H6F C10F 1_555 1_555
C8G C9G 1_555 1_555
H5G C9G 1_555 1_555
H6G C10G 1_555 1_555
C5B C7B 1_555 1_555
C6B C7B 1_555 1_555
C7F C8F 1_555 1_555
C7G C8G 1_555 1_555
C3B C5B 1_555 1_555
H3B C5B 1_555 1_555
H4B C6B 1_555 1_555
C4B C6B 1_555 1_555
C5F C7F 1_555 1_555
C6F C7F 1_555 1_555
C5G C7G 1_555 1_555
C6G C7G 1_555 1_555
C2B C3B 1_555 1_555
H1B C3B 1_555 1_555
H2B C4B 1_555 1_555
C3F C5F 1_555 1_555
H3F C5F 1_555 1_555
H4F C6F 1_555 1_555
C4F C6F 1_555 1_555
C3G C5G 1_555 1_555
H3G C5G 1_555 1_555
H4G C6G 1_555 1_555
C4G C6G 1_555 1_555
C1B C2B 1_555 1_555
C2F C3F 1_555 1_555
H1F C3F 1_555 1_555
H2F C4F 1_555 1_555
C2G C3G 1_555 1_555
H1G C3G 1_555 1_555
H2G C4G 1_555 1_555
O1B C1B 1_555 1_555
O2E C1B 1_555 1_555
C1F C2F 1_555 1_555
C1G C2G 1_555 1_555
O1H Zn1B 1_555 1_555
Zn1B O1B 1_555 1_555
Zn1E O2E 1_555 1_555
O1F C1F 1_555 1_555
O2A C1F 1_555 1_555
O1G C1G 1_555 1_555
O2C C1G 1_555 1_555
O2B Zn1B 1_555 1_555
O2H Zn1B 1_555 1_555
Zn1F O1F 1_555 1_555
Zn1A O2A 1_555 1_555
Zn1G O1G 1_555 1_555
Zn1C O2C 1_555 1_555
C6 C7 1_555 1_555
C12 C13 1_555 1_555
C10B C8B 1_555 1_555
C10F C8F 1_555 1_555
C10G C8G 1_555 1_555
C4B C2B 1_555 1_555
C4F C2F 1_555 1_555
C4G C2G 1_555 1_555

#END
