
#######################################################################
#
#                 Cambridge Crystallographic Data Centre
#                                CCDC 
#
#######################################################################
#
# If this CIF has been generated from an entry in the Cambridge 
# Structural Database, then it will include bibliographic, chemical, 
# crystal, experimental, refinement or atomic coordinate data resulting 
# from the CCDC's data processing and validation procedures.
#
#######################################################################

data_XALXUF01
_chemical_formula_moiety         '(C54 H36 Cu6 N12 O30)n'
_chemical_name_systematic        
'catena-(bis(\m~12~-2,4,6-tris(3,5-Dicarboxylatophenylamino)-1,3,5-triazine)-hexa-aqua-hexa-copper unknown solvate)'
_symmetry_cell_setting           tetragonal
_symmetry_space_group_name_H-M   'I 4/m'
_symmetry_Int_Tables_number      87
_space_group_name_Hall           '-I 4'
loop_
_symmetry_equiv_pos_site_id
_symmetry_equiv_pos_as_xyz
1 x,y,z
2 -x,-y,z
3 -y,x,z
4 y,-x,z
5 1/2+x,1/2+y,1/2+z
6 1/2-x,1/2-y,1/2+z
7 1/2-y,1/2+x,1/2+z
8 1/2+y,1/2-x,1/2+z
9 -x,-y,-z
10 x,y,-z
11 y,-x,-z
12 -y,x,-z
13 1/2-x,1/2-y,1/2-z
14 1/2+x,1/2+y,1/2-z
15 1/2+y,1/2-x,1/2-z
16 1/2-y,1/2+x,1/2-z
_cell_length_a                   26.860(4)
_cell_length_b                   26.860(4)
_cell_length_c                   37.753(8)
_cell_angle_alpha                90
_cell_angle_beta                 90
_cell_angle_gamma                90
_cell_volume                     27237.3
_exptl_crystal_colour            blue
_exptl_crystal_description       octahedral
_cell_formula_units_Z            8
loop_
_atom_site_label
_atom_site_type_symbol
_atom_site_fract_x
_atom_site_fract_y
_atom_site_fract_z
Cu1 Cu 0.04746(3) 0.70528(2) 0.5000
Cu2 Cu 0.06207(2) 0.60834(2) 0.5000
Cu3 Cu 0.172670(18) 0.877370(17) 0.354220(12)
Cu4 Cu 0.227860(17) 0.837360(17) 0.303900(12)
O1 O 0.11047(12) 0.62203(11) 0.46304(8)
O2 O 0.09801(12) 0.70448(11) 0.46334(7)
O3 O 0.17739(12) 0.81124(11) 0.37594(7)
O4 O 0.21888(12) 0.77657(11) 0.33090(7)
O5 O 0.27044(11) 0.59561(11) 0.21620(7)
O6 O 0.32403(11) 0.56455(10) 0.17643(7)
O7 O 0.35334(12) 0.38519(11) 0.17199(8)
O8 O 0.32649(12) 0.33741(11) 0.21710(7)
O9 O 0.14566(12) 0.28556(11) 0.33326(8)
O10 O 0.10519(11) 0.23780(11) 0.37266(7)
O11 O 0.00204(12) 0.30975(11) 0.46366(7)
O12 O -0.01029(12) 0.39201(11) 0.46406(8)
O13 O 0.0358(3) 0.7839(3) 0.5000
O14 O 0.0695(2) 0.52944(18) 0.5000
O15 O 0.1316(2) 0.91030(17) 0.39738(11)
O16 O 0.26345(12) 0.80100(13) 0.25852(8)
N1 N 0.1675(2) 0.52887(16) 0.37044(14)
N2 N 0.2241(2) 0.52249(16) 0.32226(13)
N3 N 0.1777(2) 0.45146(19) 0.34148(13)
N4 N 0.2142(2) 0.59577(16) 0.34975(13)
H1 H 0.2389 0.6039 0.3364
N5 N 0.2305(2) 0.4455(2) 0.29523(15)
H2 H 0.2232 0.4145 0.2974
N6 N 0.1231(2) 0.46166(16) 0.38805(13)
H3 H 0.1101 0.4829 0.4023
C1 C 0.2010(3) 0.5474(2) 0.34800(16)
C2 C 0.2115(3) 0.4753(2) 0.32044(17)
C3 C 0.1576(3) 0.4811(2) 0.36556(17)
C4 C 0.1943(2) 0.63538(19) 0.36991(14)
C5 C 0.1672(2) 0.62949(19) 0.40107(13)
H4 H 0.1608 0.5978 0.4099
C6 C 0.14979(18) 0.67107(17) 0.41887(11)
C7 C 0.15976(17) 0.71875(16) 0.40619(11)
H5 H 0.1481 0.7466 0.4183
C8 C 0.18717(18) 0.72427(16) 0.37542(11)
C9 C 0.2048(2) 0.68279(18) 0.35762(13)
H6 H 0.2238 0.6868 0.3372
C10 C 0.11743(17) 0.66517(17) 0.45122(11)
C11 C 0.19544(16) 0.77430(16) 0.35994(10)
C12 C 0.2605(2) 0.4571(2) 0.26589(15)
C13 C 0.2654(2) 0.50421(18) 0.25150(14)
H7 H 0.2502 0.5313 0.2623
C14 C 0.29342(17) 0.51084(16) 0.22043(12)
C15 C 0.31607(16) 0.47022(16) 0.20500(11)
H8 H 0.3350 0.4745 0.1846
C16 C 0.31104(17) 0.42352(16) 0.21928(11)
C17 C 0.2838(2) 0.41698(18) 0.24987(14)
H9 H 0.2810 0.3854 0.2598
C18 C 0.29623(15) 0.56093(15) 0.20340(11)
C19 C 0.33239(16) 0.37863(16) 0.20160(12)
C20 C 0.1051(2) 0.41236(18) 0.39192(14)
C21 C 0.1219(2) 0.37131(17) 0.37310(13)
H10 H 0.1453 0.3754 0.3551
C22 C 0.10382(17) 0.32417(16) 0.38107(11)
C23 C 0.06762(16) 0.31779(16) 0.40768(11)
H11 H 0.0554 0.2863 0.4131
C24 C 0.05046(17) 0.35954(16) 0.42575(11)
C25 C 0.0694(2) 0.40593(17) 0.41827(12)
H12 H 0.0582 0.4334 0.4310
C26 C 0.11976(15) 0.27957(16) 0.36100(11)
C27 C 0.01147(17) 0.35277(16) 0.45323(10)
Cu1A Cu -0.04746(3) 0.29472(2) 0.5000
Cu2A Cu -0.06207(2) 0.39166(2) 0.5000
Cu3I Cu 0.172670(18) 0.877370(17) 0.645780(12)
Cu3L Cu 0.327330(18) 0.622630(17) 0.145780(12)
Cu3N Cu 0.377370(17) 0.327330(18) 0.145780(12)
Cu3B Cu 0.122630(17) 0.172670(18) 0.354220(12)
Cu3E Cu 0.327330(18) 0.622630(17) 0.854220(12)
Cu3G Cu 0.377370(17) 0.327330(18) 0.854220(12)
Cu3K Cu 0.122630(17) 0.172670(18) 0.645780(12)
Cu4I Cu 0.227860(17) 0.837360(17) 0.696100(12)
Cu4L Cu 0.272140(17) 0.662640(17) 0.196100(12)
Cu4N Cu 0.337360(17) 0.272140(17) 0.196100(12)
Cu4B Cu 0.162640(17) 0.227860(17) 0.303900(12)
Cu4E Cu 0.272140(17) 0.662640(17) 0.803900(12)
Cu4G Cu 0.337360(17) 0.272140(17) 0.803900(12)
Cu4K Cu 0.162640(17) 0.227860(17) 0.696100(12)
O1I O 0.11047(12) 0.62203(11) 0.53696(8)
O2I O 0.09801(12) 0.70448(11) 0.53666(7)
O3I O 0.17739(12) 0.81124(11) 0.62406(7)
O4I O 0.21888(12) 0.77657(11) 0.66910(7)
O5I O 0.27044(11) 0.59561(11) 0.78380(7)
O5L O 0.22956(11) 0.90439(11) 0.28380(7)
O5E O 0.22956(11) 0.90439(11) 0.71620(7)
O6I O 0.32403(11) 0.56455(10) 0.82357(7)
O6L O 0.17597(11) 0.93545(10) 0.32357(7)
O6E O 0.17597(11) 0.93545(10) 0.67643(7)
O7I O 0.35334(12) 0.38519(11) 0.82801(8)
O7O O 0.11481(11) 0.85334(12) 0.32801(8)
O7F O 0.11481(11) 0.85334(12) 0.67199(8)
O8I O 0.32649(12) 0.33741(11) 0.78290(7)
O8O O 0.16259(11) 0.82649(12) 0.28290(7)
O8F O 0.16259(11) 0.82649(12) 0.71710(7)
O9I O 0.14566(12) 0.28556(11) 0.66674(8)
O9C O 0.28556(11) 0.85434(12) 0.33326(8)
O9J O 0.28556(11) 0.85434(12) 0.66674(8)
O10I O 0.10519(11) 0.23780(11) 0.62734(7)
O10C O 0.23780(11) 0.89481(11) 0.37266(7)
O10J O 0.23780(11) 0.89481(11) 0.62734(7)
O11I O 0.00204(12) 0.30975(11) 0.53634(7)
O11A O -0.00204(12) 0.69025(11) 0.46366(7)
O11H O -0.00204(12) 0.69025(11) 0.53634(7)
O12I O -0.01029(12) 0.39201(11) 0.53594(8)
O12A O 0.01029(12) 0.60799(11) 0.46406(8)
O12H O 0.01029(12) 0.60799(11) 0.53594(8)
O15I O 0.1316(2) 0.91030(17) 0.60262(11)
O16I O 0.26345(12) 0.80100(13) 0.74148(8)
N1I N 0.1675(2) 0.52887(16) 0.62956(14)
N2I N 0.2241(2) 0.52249(16) 0.67774(13)
N3I N 0.1777(2) 0.45146(19) 0.65852(13)
N4I N 0.2142(2) 0.59577(16) 0.65025(13)
H1I H 0.2389 0.6039 0.6636
N5I N 0.2305(2) 0.4455(2) 0.70477(15)
H2I H 0.2232 0.4145 0.7026
N6I N 0.1231(2) 0.46166(16) 0.61195(13)
H3I H 0.1101 0.4829 0.5977
C1I C 0.2010(3) 0.5474(2) 0.65200(16)
C2I C 0.2115(3) 0.4753(2) 0.67956(17)
C3I C 0.1576(3) 0.4811(2) 0.63444(17)
C4I C 0.1943(2) 0.63538(19) 0.63009(14)
C5I C 0.1672(2) 0.62949(19) 0.59893(13)
H4I H 0.1608 0.5978 0.5901
C6I C 0.14979(18) 0.67107(17) 0.58113(11)
C7I C 0.15976(17) 0.71875(16) 0.59381(11)
H5I H 0.1481 0.7466 0.5817
C8I C 0.18717(18) 0.72427(16) 0.62458(11)
C9I C 0.2048(2) 0.68279(18) 0.64238(13)
H6I H 0.2238 0.6868 0.6628
C10I C 0.11743(17) 0.66517(17) 0.54878(11)
C11I C 0.19544(16) 0.77430(16) 0.64006(10)
C12I C 0.2605(2) 0.4571(2) 0.73411(15)
C13I C 0.2654(2) 0.50421(18) 0.74850(14)
H7I H 0.2502 0.5313 0.7377
C14I C 0.29342(17) 0.51084(16) 0.77957(12)
C15I C 0.31607(16) 0.47022(16) 0.79500(11)
H8I H 0.3350 0.4745 0.8154
C16I C 0.31104(17) 0.42352(16) 0.78072(11)
C17I C 0.2838(2) 0.41698(18) 0.75013(14)
H9I H 0.2810 0.3854 0.7402
C18I C 0.29623(15) 0.56093(15) 0.79660(11)
C19I C 0.33239(16) 0.37863(16) 0.79840(12)
C20I C 0.1051(2) 0.41236(18) 0.60808(14)
C21I C 0.1219(2) 0.37131(17) 0.62690(13)
H10I H 0.1453 0.3754 0.6449
C22I C 0.10382(17) 0.32417(16) 0.61893(11)
C23I C 0.06762(16) 0.31779(16) 0.59232(11)
H11I H 0.0554 0.2863 0.5869
C24I C 0.05046(17) 0.35954(16) 0.57425(11)
C25I C 0.0694(2) 0.40593(17) 0.58173(12)
H12I H 0.0582 0.4334 0.5690
C26I C 0.11976(15) 0.27957(16) 0.63900(11)
C27I C 0.01147(17) 0.35277(16) 0.54677(10)
loop_
_geom_bond_atom_site_label_1
_geom_bond_atom_site_label_2
_geom_bond_site_symmetry_1
_geom_bond_site_symmetry_2
Cu1 O2 1_555 1_555
Cu2 O1 1_555 1_555
Cu3 O3 1_555 1_555
Cu4 O4 1_555 1_555
O1 C10 1_555 1_555
O2 C10 1_555 1_555
O3 C11 1_555 1_555
O4 C11 1_555 1_555
O5 C18 1_555 1_555
O6 C18 1_555 1_555
O7 C19 1_555 1_555
O8 C19 1_555 1_555
O9 C26 1_555 1_555
O10 C26 1_555 1_555
O11 C27 1_555 1_555
O12 C27 1_555 1_555
O13 Cu1 1_555 1_555
O14 Cu2 1_555 1_555
O15 Cu3 1_555 1_555
O16 Cu4 1_555 1_555
N1 C1 1_555 1_555
N2 C1 1_555 1_555
N3 C2 1_555 1_555
N4 H1 1_555 1_555
N5 H2 1_555 1_555
N6 H3 1_555 1_555
C1 N4 1_555 1_555
C2 N2 1_555 1_555
C3 N1 1_555 1_555
C4 N4 1_555 1_555
C5 C4 1_555 1_555
H4 C5 1_555 1_555
C6 C5 1_555 1_555
C7 C6 1_555 1_555
H5 C7 1_555 1_555
C8 C7 1_555 1_555
C9 C4 1_555 1_555
H6 C9 1_555 1_555
C10 C6 1_555 1_555
C11 C8 1_555 1_555
C12 N5 1_555 1_555
C13 C12 1_555 1_555
H7 C13 1_555 1_555
C14 C13 1_555 1_555
C15 C14 1_555 1_555
H8 C15 1_555 1_555
C16 C15 1_555 1_555
C17 C12 1_555 1_555
H9 C17 1_555 1_555
C18 C14 1_555 1_555
C19 C16 1_555 1_555
C20 N6 1_555 1_555
C21 C20 1_555 1_555
H10 C21 1_555 1_555
C22 C21 1_555 1_555
C23 C22 1_555 1_555
H11 C23 1_555 1_555
C24 C23 1_555 1_555
C25 C20 1_555 1_555
H12 C25 1_555 1_555
C26 C22 1_555 1_555
C27 C24 1_555 1_555
Cu1A O11 1_555 1_555
Cu2A O12 1_555 1_555
Cu3I O3I 1_555 1_555
Cu3L O6 1_555 1_555
Cu3N O7 1_555 1_555
Cu3B O10 1_555 1_555
Cu3E O6I 1_555 1_555
Cu3G O7I 1_555 1_555
Cu3K O10I 1_555 1_555
Cu4I O4I 1_555 1_555
Cu4L O5 1_555 1_555
Cu4N O8 1_555 1_555
Cu4B O9 1_555 1_555
Cu4E O5I 1_555 1_555
Cu4G O8I 1_555 1_555
Cu4K O9I 1_555 1_555
O1I Cu2 1_555 1_555
O2I Cu1 1_555 1_555
O3I C11I 1_555 1_555
O4I C11I 1_555 1_555
O5I C18I 1_555 1_555
O5L Cu4 1_555 1_555
O5E Cu4I 1_555 1_555
O6I C18I 1_555 1_555
O6L Cu3 1_555 1_555
O6E Cu3I 1_555 1_555
O7I C19I 1_555 1_555
O7O Cu3 1_555 1_555
O7F Cu3I 1_555 1_555
O8I C19I 1_555 1_555
O8O Cu4 1_555 1_555
O8F Cu4I 1_555 1_555
O9I C26I 1_555 1_555
O9C Cu4 1_555 1_555
O9J Cu4I 1_555 1_555
O10I C26I 1_555 1_555
O10C Cu3 1_555 1_555
O10J Cu3I 1_555 1_555
O11I Cu1A 1_555 1_555
O11A Cu1 1_555 1_555
O11H Cu1 1_555 1_555
O12I Cu2A 1_555 1_555
O12A Cu2 1_555 1_555
O12H Cu2 1_555 1_555
O15I Cu3I 1_555 1_555
O16I Cu4I 1_555 1_555
N1I C1I 1_555 1_555
N2I C1I 1_555 1_555
N3I C2I 1_555 1_555
N4I H1I 1_555 1_555
N5I H2I 1_555 1_555
N6I H3I 1_555 1_555
C1I N4I 1_555 1_555
C2I N2I 1_555 1_555
C3I N1I 1_555 1_555
C4I N4I 1_555 1_555
C5I C4I 1_555 1_555
H4I C5I 1_555 1_555
C6I C5I 1_555 1_555
C7I C6I 1_555 1_555
H5I C7I 1_555 1_555
C8I C7I 1_555 1_555
C9I C4I 1_555 1_555
H6I C9I 1_555 1_555
C10I O1I 1_555 1_555
C11I C8I 1_555 1_555
C12I N5I 1_555 1_555
C13I C12I 1_555 1_555
H7I C13I 1_555 1_555
C14I C13I 1_555 1_555
C15I C14I 1_555 1_555
H8I C15I 1_555 1_555
C16I C15I 1_555 1_555
C17I C12I 1_555 1_555
H9I C17I 1_555 1_555
C18I C14I 1_555 1_555
C19I C16I 1_555 1_555
C20I N6I 1_555 1_555
C21I C20I 1_555 1_555
H10I C21I 1_555 1_555
C22I C21I 1_555 1_555
C23I C22I 1_555 1_555
H11I C23I 1_555 1_555
C24I C23I 1_555 1_555
C25I C20I 1_555 1_555
H12I C25I 1_555 1_555
C26I C22I 1_555 1_555
C27I O11I 1_555 1_555
N3 C3 1_555 1_555
N5 C2 1_555 1_555
N6 C3 1_555 1_555
C8 C9 1_555 1_555
C16 C17 1_555 1_555
C24 C25 1_555 1_555
O2I C10I 1_555 1_555
O12I C27I 1_555 1_555
N3I C3I 1_555 1_555
N5I C2I 1_555 1_555
N6I C3I 1_555 1_555
C6I C10I 1_555 1_555
C8I C9I 1_555 1_555
C16I C17I 1_555 1_555
C24I C25I 1_555 1_555
C24I C27I 1_555 1_555

#END
