
#######################################################################
#
#                 Cambridge Crystallographic Data Centre
#                                CCDC 
#
#######################################################################
#
# If this CIF has been generated from an entry in the Cambridge 
# Structural Database, then it will include bibliographic, chemical, 
# crystal, experimental, refinement or atomic coordinate data resulting 
# from the CCDC's data processing and validation procedures.
#
#######################################################################

data_HELDIN
_chemical_formula_moiety         '(C70 H66 Co3 N4 O16)n,4n(C4 H9 N1 O1)'
_chemical_name_systematic        
"catena-(bis(\m~6~-4,4',4''-benzene-1,3,5-triylbenzoato)-tetrakis(N,N-dimethylacetamide)-tri-cobalt(ii) N,N-dimethylacetamide solvate)"
_symmetry_cell_setting           monoclinic
_symmetry_space_group_name_H-M   'P 21/n'
_symmetry_Int_Tables_number      14
_space_group_name_Hall           '-P 2yn'
loop_
_symmetry_equiv_pos_site_id
_symmetry_equiv_pos_as_xyz
1 x,y,z
2 1/2-x,1/2+y,1/2-z
3 -x,-y,-z
4 1/2+x,1/2-y,1/2+z
_cell_length_a                   12.341(3)
_cell_length_b                   25.960(5)
_cell_length_c                   13.670(3)
_cell_angle_alpha                90
_cell_angle_beta                 98.81(3)
_cell_angle_gamma                90
_cell_volume                     4327.82
_exptl_crystal_colour            pink
_exptl_crystal_description       'rectangular plate'
_cell_formula_units_Z            2
loop_
_atom_site_label
_atom_site_type_symbol
_atom_site_fract_x
_atom_site_fract_y
_atom_site_fract_z
Co1 Co 1.0000 1.0000 1.0000
Co2 Co 0.83928(3) 1.028768(13) 1.18871(3)
O1 O 0.84893(15) 0.98500(7) 1.05640(12)
O2 O 0.68890(16) 1.01458(7) 1.08021(14)
O3 O 0.07939(16) 0.99077(8) 0.14193(13)
O4 O -0.00862(17) 1.01498(8) 0.26567(14)
O5 O 0.51942(17) 0.57799(7) 0.49058(15)
O6 O 0.62177(17) 0.59761(7) 0.37351(14)
C1 C 0.7459(2) 0.98943(10) 1.0286(2)
C2 C 0.6937(2) 0.96351(9) 0.93512(19)
C3 C 0.5839(2) 0.97263(10) 0.89764(19)
H1 H 0.5413 0.9940 0.9335
C4 C 0.5361(2) 0.95099(10) 0.8089(2)
H2 H 0.4611 0.9576 0.7844
C5 C 0.5975(2) 0.91950(9) 0.75512(19)
C6 C 0.7065(2) 0.90981(10) 0.7937(2)
H3 H 0.7492 0.8883 0.7582
C7 C 0.7538(2) 0.93103(10) 0.88334(19)
H4 H 0.8278 0.9232 0.9094
C8 C 0.0713(2) 0.99586(10) 0.23093(19)
C9 C 0.1655(2) 0.97492(10) 0.30372(19)
C10 C 0.1664(3) 0.97781(11) 0.4052(2)
H5 H 0.1085 0.9951 0.4302
C11 C 0.2505(3) 0.95591(11) 0.4705(2)
H6 H 0.2500 0.9585 0.5398
C12 C 0.3359(2) 0.93012(10) 0.43576(19)
C13 C 0.3355(2) 0.92836(11) 0.3337(2)
H7 H 0.3937 0.9115 0.3084
C14 C 0.2520(2) 0.95076(11) 0.2690(2)
H8 H 0.2539 0.9496 0.1998
C15 C 0.5688(2) 0.60843(10) 0.44222(19)
C16 C 0.5627(2) 0.66474(10) 0.4703(2)
C17 C 0.5745(2) 0.70342(10) 0.4026(2)
H9 H 0.5901 0.6947 0.3387
C18 C 0.5636(2) 0.75473(10) 0.4274(2)
H10 H 0.5694 0.7808 0.3796
C19 C 0.5443(2) 0.76857(10) 0.5220(2)
C20 C 0.5352(2) 0.72949(10) 0.5905(2)
H11 H 0.5235 0.7381 0.6556
C21 C 0.5431(3) 0.67800(10) 0.5642(2)
H12 H 0.5349 0.6517 0.6109
C22 C 0.5463(2) 0.89615(10) 0.65958(19)
C23 C 0.4696(2) 0.92351(10) 0.59422(19)
H13 H 0.4501 0.9574 0.6111
C24 C 0.4208(2) 0.90231(10) 0.50464(19)
C25 C 0.4508(2) 0.85255(10) 0.48116(19)
H14 H 0.4204 0.8382 0.4191
C26 C 0.5240(2) 0.82335(10) 0.54615(19)
C27 C 0.5720(2) 0.84575(10) 0.63543(19)
H15 H 0.6228 0.8264 0.6803
O7 O 0.77895(18) 0.96853(8) 1.26893(16)
N1 N 0.7663(2) 0.89885(10) 1.3624(2)
C28 C 0.8080(3) 0.92374(12) 1.2911(2)
C29 C 0.8889(4) 0.89624(14) 1.2384(3)
H16 H 0.9029 0.9168 1.1815
H17 H 0.8591 0.8626 1.2154
H18 H 0.9577 0.8913 1.2838
C30 C 0.6817(4) 0.92300(15) 1.4096(3)
H19 H 0.7091 0.9282 1.4800
H20 H 0.6168 0.9008 1.4024
H21 H 0.6621 0.9563 1.3782
C31 C 0.7942(4) 0.84575(15) 1.3919(4)
H22 H 0.7469 0.8220 1.3488
H23 H 0.7832 0.8405 1.4607
H24 H 0.8710 0.8391 1.3860
O8 O 0.77995(19) 1.07782(8) 1.28844(15)
N2 N 0.7731(4) 1.16408(15) 1.3126(3)
C32 C 0.8207(6) 1.1189(2) 1.3245(4)
C33 C 0.9350(10) 1.1166(5) 1.3915(8)
H25 H 0.9602 1.0866 1.3910
H26 H 0.9264 1.1261 1.4578
H27 H 0.9841 1.1404 1.3669
C34 C 0.6740(8) 1.1670(3) 1.2453(7)
H28 H 0.6630 1.1389 1.2149
H29 H 0.6773 1.1944 1.1986
H30 H 0.6153 1.1734 1.2823
C35 C 0.8082(8) 1.2120(3) 1.3602(7)
H31 H 0.7577 1.2239 1.3883
H32 H 0.8255 1.2357 1.3110
H33 H 0.8725 1.2058 1.4079
Co1_2 Co 0.0000 1.0000 0.0000
Co1A Co 0.5000 0.5000 0.5000
Co1_3 Co 2.0000 1.0000 2.0000
Co1A_2 Co 1.5000 1.5000 1.5000
Co2B Co 1.16072(3) 0.971232(13) 0.81129(3)
Co2_2 Co -0.16072(3) 1.028768(13) 0.18871(3)
Co2A Co 0.66072(3) 0.528768(13) 0.31129(3)
Co2B_2 Co 2.16072(3) 0.971232(13) 1.81129(3)
Co2C Co 1.33928(3) 1.471232(13) 1.68871(3)
O1B O 1.15107(15) 1.01500(7) 0.94360(12)
O2B O 1.31110(16) 0.98542(7) 0.91979(14)
O3B O 1.92061(16) 1.00923(8) 1.85807(13)
O3_2 O 1.07939(16) 0.99077(8) 1.14193(13)
O3B_2 O 0.92061(16) 1.00923(8) 0.85807(13)
O4B O 2.00862(17) 0.98502(8) 1.73433(14)
O4_2 O 0.99138(17) 1.01498(8) 1.26567(14)
O4B_2 O 1.00862(17) 0.98502(8) 0.73433(14)
O5B O 1.48058(17) 1.42201(7) 1.50942(15)
O5A O 0.98058(17) 1.07799(7) 1.00942(15)
O5C O 1.01942(17) 0.92201(7) 0.99058(15)
O6B O 1.37823(17) 1.40239(7) 1.62649(14)
O6A O 0.87823(17) 1.09761(7) 1.12649(14)
O6C O 1.12177(17) 0.90239(7) 0.87351(14)
C1B C 1.2541(2) 1.01057(10) 0.9714(2)
C2B C 1.3063(2) 1.03649(9) 1.06488(19)
C3B C 1.4161(2) 1.02737(10) 1.10236(19)
H1B H 1.4587 1.0060 1.0665
C4B C 1.4639(2) 1.04901(10) 1.1911(2)
H2B H 1.5389 1.0424 1.2156
C5B C 1.4025(2) 1.08050(9) 1.24488(19)
C6B C 1.2935(2) 1.09019(10) 1.2063(2)
H3B H 1.2508 1.1117 1.2418
C7B C 1.2462(2) 1.06897(10) 1.11666(19)
H4B H 1.1722 1.0768 1.0906
C8B C 1.9287(2) 1.00414(10) 1.76907(19)
C9B C 1.8345(2) 1.02508(10) 1.69628(19)
C10B C 1.8336(3) 1.02219(11) 1.5948(2)
H5B H 1.8915 1.0049 1.5698
C11B C 1.7495(3) 1.04409(11) 1.5295(2)
H6B H 1.7500 1.0415 1.4602
C12B C 1.6641(2) 1.06988(10) 1.56424(19)
C13B C 1.6645(2) 1.07164(11) 1.6663(2)
H7B H 1.6063 1.0885 1.6916
C14B C 1.7480(2) 1.04924(11) 1.7310(2)
H8B H 1.7461 1.0504 1.8002
C15B C 1.4312(2) 1.39157(10) 1.55778(19)
C16B C 1.4373(2) 1.33526(10) 1.5297(2)
C17B C 1.4255(2) 1.29658(10) 1.5974(2)
H9B H 1.4099 1.3053 1.6613
C18B C 1.4364(2) 1.24527(10) 1.5726(2)
H10B H 1.4306 1.2192 1.6204
C19B C 1.4557(2) 1.23143(10) 1.4780(2)
C20B C 1.4648(2) 1.27051(10) 1.4095(2)
H11B H 1.4765 1.2619 1.3444
C21B C 1.4569(3) 1.32200(10) 1.4358(2)
H12B H 1.4651 1.3483 1.3891
C22B C 1.4537(2) 1.10385(10) 1.34042(19)
C23B C 1.5304(2) 1.07649(10) 1.40578(19)
H13B H 1.5499 1.0426 1.3889
C24B C 1.5792(2) 1.09769(10) 1.49536(19)
C25B C 1.5492(2) 1.14745(10) 1.51884(19)
H14B H 1.5796 1.1618 1.5809
C26B C 1.4760(2) 1.17665(10) 1.45385(19)
C27B C 1.4280(2) 1.15425(10) 1.36457(19)
H15B H 1.3772 1.1736 1.3197
O7B O 1.22105(18) 1.03147(8) 0.73107(16)
N1B N 1.2337(2) 1.10115(10) 0.6376(2)
C28B C 1.1920(3) 1.07626(12) 0.7089(2)
C29B C 1.1111(4) 1.10376(14) 0.7616(3)
H16B H 1.0971 1.0832 0.8185
H17B H 1.1409 1.1374 0.7846
H18B H 1.0423 1.1087 0.7162
C30B C 1.3183(4) 1.07700(15) 0.5904(3)
H19B H 1.2909 1.0718 0.5200
H20B H 1.3832 1.0992 0.5976
H21B H 1.3379 1.0437 0.6218
C31B C 1.2058(4) 1.15425(15) 0.6081(4)
H22B H 1.2531 1.1780 0.6512
H23B H 1.2168 1.1595 0.5393
H24B H 1.1290 1.1609 0.6140
O8B O 1.22005(19) 0.92218(8) 0.71156(15)
N2B N 1.2269(4) 0.83592(15) 0.6874(3)
C32B C 1.1793(6) 0.8811(2) 0.6755(4)
C33B C 1.0650(10) 0.8834(5) 0.6085(8)
H25B H 1.0398 0.9134 0.6090
H26B H 1.0736 0.8739 0.5422
H27B H 1.0159 0.8596 0.6331
C34B C 1.3260(8) 0.8330(3) 0.7547(7)
H28B H 1.3370 0.8611 0.7851
H29B H 1.3227 0.8056 0.8014
H30B H 1.3847 0.8266 0.7177
C35B C 1.1918(8) 0.7880(3) 0.6398(7)
H31B H 1.2423 0.7761 0.6117
H32B H 1.1745 0.7643 0.6890
H33B H 1.1275 0.7942 0.5921
O9 O 0.4961(3) 0.27386(15) 0.1307(3)
N3 N 0.3403(6) 0.2277(3) 0.0998(5)
C36 C 0.3965(10) 0.2711(4) 0.1311(5)
C37 C 0.3267(4) 0.31391(17) 0.1665(3)
H34 H 0.3679 0.3368 0.1952
H35 H 0.2819 0.3002 0.2119
H36 H 0.2807 0.3288 0.1107
C38 C 0.4076(4) 0.18783(16) 0.0599(3)
H37 H 0.4732 0.1977 0.0664
H38 H 0.3804 0.1824 -0.0089
H39 H 0.4031 0.1562 0.0955
C39 C 0.2247(4) 0.22332(18) 0.1012(4)
H40 H 0.2122 0.2268 0.1595
H41 H 0.1996 0.1901 0.0766
H42 H 0.1867 0.2497 0.0602
O10 O 0.4445(9) 0.1887(4) 0.7863(5)
N4 N 0.5869(8) 0.1633(5) 0.8882(7)
C40 C 0.4955(13) 0.1544(5) 0.8418(9)
C41 C 0.455(2) 0.1018(7) 0.8595(16)
H43 H 0.3865 0.1014 0.8479
H44 H 0.4791 0.0927 0.9275
H45 H 0.4838 0.0773 0.8173
C42 C 0.626(4) 0.2228(17) 0.884(3)
H46 H 0.5895 0.2373 0.8340
H47 H 0.7020 0.2234 0.8772
H48 H 0.6147 0.2412 0.9422
C43 C 0.650(2) 0.1242(9) 0.9536(17)
H49 H 0.6120 0.0976 0.9556
H50 H 0.6731 0.1364 1.0198
H51 H 0.7137 0.1159 0.9238
C44? C 0.417(3) 0.2405(9) 0.1095(14)
C45? C 0.4076(4) 0.18783(16) 0.0599(3)
C46? C 0.7695(18) 1.1228(9) 1.2967(17)
C47? C 0.3267(4) 0.31391(17) 0.1665(3)
C48? C 0.673(3) 1.1473(12) 1.220(3)
C49? C 0.936(6) 1.125(3) 1.413(4)
C50? C 0.866(3) 1.1998(14) 1.387(3)
C51? C 0.2247(4) 0.22332(18) 0.1012(4)
C52? C 0.5555(9) 0.1898(4) 0.8542(6)
C53? C 0.650(4) 0.2225(16) 0.899(2)
C54? C 0.464(2) 0.1058(11) 0.8502(17)
C55? C 0.645(2) 0.1248(7) 0.9682(16)
H52? H 0.4662 0.1811 0.0383
H53? H 0.3453 0.1878 0.0056
H54? H 0.3913 0.1617 0.1068
H55? H 0.3905 0.3240 0.1884
H56? H 0.2797 0.3175 0.2173
H57? H 0.2950 0.3338 0.1098
H58? H 0.6997 1.1654 1.1785
H59? H 0.6361 1.1705 1.2584
H60? H 0.6200 1.1252 1.1818
H61? H 0.9141 1.1044 1.4528
H62? H 0.9909 1.1474 1.4472
H63? H 0.9672 1.1059 1.3632
H64? H 0.9023 1.2148 1.3480
H65? H 0.8961 1.2052 1.4551
H66? H 0.7905 1.2101 1.3758
H67? H 0.2097 0.2239 0.0392
H68? H 0.1597 0.2352 0.1283
H69? H 0.2379 0.1880 0.1231
H70? H 0.6455 0.2517 0.8719
H71? H 0.7196 0.2078 0.8901
H72? H 0.6481 0.2271 0.9682
H73? H 0.4238 0.1209 0.8035
H74? H 0.4227 0.0984 0.9028
H75? H 0.4922 0.0744 0.8274
H76? H 0.6892 0.1055 0.9442
H77? H 0.6137 0.1061 1.0176
H78? H 0.6844 0.1542 0.9981
N5? N 0.3303(18) 0.2590(7) 0.1360(11)
N6? N 0.8546(16) 1.1464(7) 1.3607(13)
N7? N 0.5545(8) 0.1393(3) 0.8901(6)
O11? O 0.4961(3) 0.27386(15) 0.1307(3)
O12? O 0.4907(12) 0.2069(5) 0.7931(10)
O13? O 0.77995(19) 1.07782(8) 1.28844(15)
loop_
_geom_bond_atom_site_label_1
_geom_bond_atom_site_label_2
_geom_bond_site_symmetry_1
_geom_bond_site_symmetry_2
Co1 O1 1_555 1_555
Co2 O1 1_555 1_555
O1 C1 1_555 1_555
O2 Co2 1_555 1_555
O3 C8 1_555 1_555
O4 C8 1_555 1_555
O5 C15 1_555 1_555
O6 C15 1_555 1_555
C1 O2 1_555 1_555
C2 C1 1_555 1_555
C3 C2 1_555 1_555
H1 C3 1_555 1_555
C4 C3 1_555 1_555
H2 C4 1_555 1_555
C5 C4 1_555 1_555
C6 C5 1_555 1_555
H3 C6 1_555 1_555
C7 C2 1_555 1_555
H4 C7 1_555 1_555
C8 C9 1_555 1_555
C9 C10 1_555 1_555
C10 H5 1_555 1_555
C11 C10 1_555 1_555
H6 C11 1_555 1_555
C12 C11 1_555 1_555
C13 C12 1_555 1_555
H7 C13 1_555 1_555
C14 C9 1_555 1_555
H8 C14 1_555 1_555
C15 C16 1_555 1_555
C16 C17 1_555 1_555
C17 H9 1_555 1_555
C18 C17 1_555 1_555
H10 C18 1_555 1_555
C19 C18 1_555 1_555
C20 C19 1_555 1_555
H11 C20 1_555 1_555
C21 C16 1_555 1_555
H12 C21 1_555 1_555
C22 C5 1_555 1_555
C23 C22 1_555 1_555
H13 C23 1_555 1_555
C24 C12 1_555 1_555
C25 C24 1_555 1_555
H14 C25 1_555 1_555
C26 C19 1_555 1_555
C27 C22 1_555 1_555
H15 C27 1_555 1_555
O7 Co2 1_555 1_555
N1 C28 1_555 1_555
C28 O7 1_555 1_555
C29 C28 1_555 1_555
H16 C29 1_555 1_555
H17 C29 1_555 1_555
H18 C29 1_555 1_555
C30 N1 1_555 1_555
H19 C30 1_555 1_555
H20 C30 1_555 1_555
H21 C30 1_555 1_555
C31 N1 1_555 1_555
H22 C31 1_555 1_555
H23 C31 1_555 1_555
H24 C31 1_555 1_555
O8 Co2 1_555 1_555
N2 C32 1_555 1_555
C32 O8 1_555 1_555
C33 C32 1_555 1_555
H25 C33 1_555 1_555
H26 C33 1_555 1_555
H27 C33 1_555 1_555
C34 N2 1_555 1_555
H28 C34 1_555 1_555
H29 C34 1_555 1_555
H30 C34 1_555 1_555
C35 N2 1_555 1_555
H31 C35 1_555 1_555
H32 C35 1_555 1_555
H33 C35 1_555 1_555
O9 C36 1_555 1_555
N3 C36 1_555 1_555
C36 C37 1_555 1_555
C37 H34 1_555 1_555
H35 C37 1_555 1_555
H36 C37 1_555 1_555
C38 N3 1_555 1_555
H37 C38 1_555 1_555
H38 C38 1_555 1_555
H39 C38 1_555 1_555
C39 N3 1_555 1_555
H40 C39 1_555 1_555
H41 C39 1_555 1_555
H42 C39 1_555 1_555
O10 C40 1_555 1_555
N4 C40 1_555 1_555
C40 C41 1_555 1_555
C41 H43 1_555 1_555
H44 C41 1_555 1_555
H45 C41 1_555 1_555
C42 N4 1_555 1_555
H46 C42 1_555 1_555
H47 C42 1_555 1_555
H48 C42 1_555 1_555
C43 N4 1_555 1_555
H49 C43 1_555 1_555
H50 C43 1_555 1_555
H51 C43 1_555 1_555
Co1_2 O3 1_555 1_555
Co1A O5 1_555 1_555
Co1_3 O3B 1_555 1_555
Co1A_2 O5B 1_555 1_555
Co2B O1B 1_555 1_555
Co2_2 O4 1_555 1_555
Co2A O6 1_555 1_555
Co2B_2 O4B 1_555 1_555
Co2C O6B 1_555 1_555
O1B Co1 1_555 1_555
O2B Co2B 1_555 1_555
O3B C8B 1_555 1_555
O3_2 Co1 1_555 1_555
O3B_2 Co1 1_555 1_555
O4B C8B 1_555 1_555
O4_2 Co2 1_555 1_555
O4B_2 Co2B 1_555 1_555
O5B C15B 1_555 1_555
O5A Co1 1_555 1_555
O5C Co1 1_555 1_555
O6B C15B 1_555 1_555
O6A Co2 1_555 1_555
O6C Co2B 1_555 1_555
C1B O1B 1_555 1_555
C2B C1B 1_555 1_555
C3B C2B 1_555 1_555
H1B C3B 1_555 1_555
C4B C3B 1_555 1_555
H2B C4B 1_555 1_555
C5B C4B 1_555 1_555
C6B C5B 1_555 1_555
H3B C6B 1_555 1_555
C7B C2B 1_555 1_555
H4B C7B 1_555 1_555
C8B C9B 1_555 1_555
C9B C10B 1_555 1_555
C10B H5B 1_555 1_555
C11B C10B 1_555 1_555
H6B C11B 1_555 1_555
C12B C11B 1_555 1_555
C13B C12B 1_555 1_555
H7B C13B 1_555 1_555
C14B C9B 1_555 1_555
H8B C14B 1_555 1_555
C15B C16B 1_555 1_555
C16B C17B 1_555 1_555
C17B H9B 1_555 1_555
C18B C17B 1_555 1_555
H10B C18B 1_555 1_555
C19B C18B 1_555 1_555
C20B C19B 1_555 1_555
H11B C20B 1_555 1_555
C21B C16B 1_555 1_555
H12B C21B 1_555 1_555
C22B C5B 1_555 1_555
C23B C22B 1_555 1_555
H13B C23B 1_555 1_555
C24B C12B 1_555 1_555
C25B C24B 1_555 1_555
H14B C25B 1_555 1_555
C26B C19B 1_555 1_555
C27B C22B 1_555 1_555
H15B C27B 1_555 1_555
O7B Co2B 1_555 1_555
N1B C28B 1_555 1_555
C28B O7B 1_555 1_555
C29B C28B 1_555 1_555
H16B C29B 1_555 1_555
H17B C29B 1_555 1_555
H18B C29B 1_555 1_555
C30B N1B 1_555 1_555
H19B C30B 1_555 1_555
H20B C30B 1_555 1_555
H21B C30B 1_555 1_555
C31B N1B 1_555 1_555
H22B C31B 1_555 1_555
H23B C31B 1_555 1_555
H24B C31B 1_555 1_555
O8B Co2B 1_555 1_555
N2B C32B 1_555 1_555
C32B O8B 1_555 1_555
C33B C32B 1_555 1_555
H25B C33B 1_555 1_555
H26B C33B 1_555 1_555
H27B C33B 1_555 1_555
C34B N2B 1_555 1_555
H28B C34B 1_555 1_555
H29B C34B 1_555 1_555
H30B C34B 1_555 1_555
C35B N2B 1_555 1_555
H31B C35B 1_555 1_555
H32B C35B 1_555 1_555
H33B C35B 1_555 1_555
C6 C7 1_555 1_555
C13 C14 1_555 1_555
C20 C21 1_555 1_555
C23 C24 1_555 1_555
C25 C26 1_555 1_555
C26 C27 1_555 1_555
O2B C1B 1_555 1_555
C6B C7B 1_555 1_555
C13B C14B 1_555 1_555
C20B C21B 1_555 1_555
C23B C24B 1_555 1_555
C25B C26B 1_555 1_555
C26B C27B 1_555 1_555

#END
