
#######################################################################
#
#                 Cambridge Crystallographic Data Centre
#                                CCDC 
#
#######################################################################
#
# If this CIF has been generated from an entry in the Cambridge 
# Structural Database, then it will include bibliographic, chemical, 
# crystal, experimental, refinement or atomic coordinate data resulting 
# from the CCDC's data processing and validation procedures.
#
#######################################################################

data_EBAMUS
_chemical_name_common            UHM-31
_chemical_formula_moiety         '(C18 H10 Cu3 F2 O15)n'
_chemical_name_systematic        
'catena-[bis(\m~6~-2-Fluorobenzene-1,3,5-tricarboxylato)-triaqua-tri-copper unknown solvate]'
_symmetry_cell_setting           cubic
_symmetry_space_group_name_H-M   'F m -3 m'
_symmetry_Int_Tables_number      225
_space_group_name_Hall           '-F 4 2 3'
loop_
_symmetry_equiv_pos_site_id
_symmetry_equiv_pos_as_xyz
1 x,y,z
2 -y,x,z
3 -x,-y,z
4 y,-x,z
5 x,-z,y
6 x,-y,-z
7 x,z,-y
8 z,y,-x
9 -x,y,-z
10 -z,y,x
11 z,x,y
12 y,z,x
13 -y,-z,x
14 z,-x,-y
15 -y,z,-x
16 -z,-x,y
17 -z,x,-y
18 y,-z,-x
19 y,x,-z
20 -y,-x,-z
21 -x,z,y
22 -x,-z,-y
23 z,-y,x
24 -z,-y,-x
25 x,1/2+y,1/2+z
26 -y,1/2+x,1/2+z
27 -x,1/2-y,1/2+z
28 y,1/2-x,1/2+z
29 x,1/2-z,1/2+y
30 x,1/2-y,1/2-z
31 x,1/2+z,1/2-y
32 z,1/2+y,1/2-x
33 -x,1/2+y,1/2-z
34 -z,1/2+y,1/2+x
35 z,1/2+x,1/2+y
36 y,1/2+z,1/2+x
37 -y,1/2-z,1/2+x
38 z,1/2-x,1/2-y
39 -y,1/2+z,1/2-x
40 -z,1/2-x,1/2+y
41 -z,1/2+x,1/2-y
42 y,1/2-z,1/2-x
43 y,1/2+x,1/2-z
44 -y,1/2-x,1/2-z
45 -x,1/2+z,1/2+y
46 -x,1/2-z,1/2-y
47 z,1/2-y,1/2+x
48 -z,1/2-y,1/2-x
49 1/2+x,y,1/2+z
50 1/2-y,x,1/2+z
51 1/2-x,-y,1/2+z
52 1/2+y,-x,1/2+z
53 1/2+x,-z,1/2+y
54 1/2+x,-y,1/2-z
55 1/2+x,z,1/2-y
56 1/2+z,y,1/2-x
57 1/2-x,y,1/2-z
58 1/2-z,y,1/2+x
59 1/2+z,x,1/2+y
60 1/2+y,z,1/2+x
61 1/2-y,-z,1/2+x
62 1/2+z,-x,1/2-y
63 1/2-y,z,1/2-x
64 1/2-z,-x,1/2+y
65 1/2-z,x,1/2-y
66 1/2+y,-z,1/2-x
67 1/2+y,x,1/2-z
68 1/2-y,-x,1/2-z
69 1/2-x,z,1/2+y
70 1/2-x,-z,1/2-y
71 1/2+z,-y,1/2+x
72 1/2-z,-y,1/2-x
73 1/2+x,1/2+y,z
74 1/2-y,1/2+x,z
75 1/2-x,1/2-y,z
76 1/2+y,1/2-x,z
77 1/2+x,1/2-z,y
78 1/2+x,1/2-y,-z
79 1/2+x,1/2+z,-y
80 1/2+z,1/2+y,-x
81 1/2-x,1/2+y,-z
82 1/2-z,1/2+y,x
83 1/2+z,1/2+x,y
84 1/2+y,1/2+z,x
85 1/2-y,1/2-z,x
86 1/2+z,1/2-x,-y
87 1/2-y,1/2+z,-x
88 1/2-z,1/2-x,y
89 1/2-z,1/2+x,-y
90 1/2+y,1/2-z,-x
91 1/2+y,1/2+x,-z
92 1/2-y,1/2-x,-z
93 1/2-x,1/2+z,y
94 1/2-x,1/2-z,-y
95 1/2+z,1/2-y,x
96 1/2-z,1/2-y,-x
97 -x,-y,-z
98 y,-x,-z
99 x,y,-z
100 -y,x,-z
101 -x,z,-y
102 -x,y,z
103 -x,-z,y
104 -z,-y,x
105 x,-y,z
106 z,-y,-x
107 -z,-x,-y
108 -y,-z,-x
109 y,z,-x
110 -z,x,y
111 y,-z,x
112 z,x,-y
113 z,-x,y
114 -y,z,x
115 -y,-x,z
116 y,x,z
117 x,-z,-y
118 x,z,y
119 -z,y,-x
120 z,y,x
121 -x,1/2-y,1/2-z
122 y,1/2-x,1/2-z
123 x,1/2+y,1/2-z
124 -y,1/2+x,1/2-z
125 -x,1/2+z,1/2-y
126 -x,1/2+y,1/2+z
127 -x,1/2-z,1/2+y
128 -z,1/2-y,1/2+x
129 x,1/2-y,1/2+z
130 z,1/2-y,1/2-x
131 -z,1/2-x,1/2-y
132 -y,1/2-z,1/2-x
133 y,1/2+z,1/2-x
134 -z,1/2+x,1/2+y
135 y,1/2-z,1/2+x
136 z,1/2+x,1/2-y
137 z,1/2-x,1/2+y
138 -y,1/2+z,1/2+x
139 -y,1/2-x,1/2+z
140 y,1/2+x,1/2+z
141 x,1/2-z,1/2-y
142 x,1/2+z,1/2+y
143 -z,1/2+y,1/2-x
144 z,1/2+y,1/2+x
145 1/2-x,-y,1/2-z
146 1/2+y,-x,1/2-z
147 1/2+x,y,1/2-z
148 1/2-y,x,1/2-z
149 1/2-x,z,1/2-y
150 1/2-x,y,1/2+z
151 1/2-x,-z,1/2+y
152 1/2-z,-y,1/2+x
153 1/2+x,-y,1/2+z
154 1/2+z,-y,1/2-x
155 1/2-z,-x,1/2-y
156 1/2-y,-z,1/2-x
157 1/2+y,z,1/2-x
158 1/2-z,x,1/2+y
159 1/2+y,-z,1/2+x
160 1/2+z,x,1/2-y
161 1/2+z,-x,1/2+y
162 1/2-y,z,1/2+x
163 1/2-y,-x,1/2+z
164 1/2+y,x,1/2+z
165 1/2+x,-z,1/2-y
166 1/2+x,z,1/2+y
167 1/2-z,y,1/2-x
168 1/2+z,y,1/2+x
169 1/2-x,1/2-y,-z
170 1/2+y,1/2-x,-z
171 1/2+x,1/2+y,-z
172 1/2-y,1/2+x,-z
173 1/2-x,1/2+z,-y
174 1/2-x,1/2+y,z
175 1/2-x,1/2-z,y
176 1/2-z,1/2-y,x
177 1/2+x,1/2-y,z
178 1/2+z,1/2-y,-x
179 1/2-z,1/2-x,-y
180 1/2-y,1/2-z,-x
181 1/2+y,1/2+z,-x
182 1/2-z,1/2+x,y
183 1/2+y,1/2-z,x
184 1/2+z,1/2+x,-y
185 1/2+z,1/2-x,y
186 1/2-y,1/2+z,x
187 1/2-y,1/2-x,z
188 1/2+y,1/2+x,z
189 1/2+x,1/2-z,-y
190 1/2+x,1/2+z,y
191 1/2-z,1/2+y,-x
192 1/2+z,1/2+y,x
_cell_length_a                   26.329(3)
_cell_length_b                   26.329(3)
_cell_length_c                   26.329(3)
_cell_angle_alpha                90
_cell_angle_beta                 90
_cell_angle_gamma                90
_cell_volume                     18251.7
_exptl_crystal_colour            colorless
_exptl_crystal_description       octahedron
_cell_formula_units_Z            16
loop_
_atom_site_label
_atom_site_type_symbol
_atom_site_fract_x
_atom_site_fract_y
_atom_site_fract_z
_atom_site_U_iso_or_equiv
_atom_site_thermal_displace_type
Cu1 Cu 0.5000 0.214389(13) 0.714389(13) 0.0445 Uani
O1 O 0.55245(8) 0.25676(8) 0.68333(8) 0.0685 Uani
O2 O 0.5000 0.15752(12) 0.65752(12) 0.1973 Uani
C1 C 0.56889(14) 0.29648(11) 0.70352(11) 0.0532 Uani
C2 C 0.61257(14) 0.32157(11) 0.67843(11) 0.0545 Uani
C3 C 0.63465(10) 0.36535(10) 0.69919(15) 0.0540 Uani
H1 H 0.6195 0.3805 0.7282 0.0650 Uiso
O1L O 0.74324(8) 0.31667(8) 0.55245(8) 0.0685 Uani
C1L C 0.70352(11) 0.29648(11) 0.56889(14) 0.0532 Uani
C2L C 0.67843(11) 0.32157(11) 0.61257(14) 0.0545 Uani
C3L C 0.63465(10) 0.30081(15) 0.63465(10) 0.0540 Uani
H1L H 0.6195 0.2718 0.6195 0.0650 Uiso
O1M O 0.68333(8) 0.44755(8) 0.74324(8) 0.0685 Uani
C1M C 0.70352(11) 0.43111(14) 0.70352(11) 0.0532 Uani
C2M C 0.67843(11) 0.38743(14) 0.67843(11) 0.0545 Uani
C3M C 0.69919(15) 0.36535(10) 0.63465(10) 0.0540 Uani
H1M H 0.7282 0.3805 0.6195 0.0650 Uiso
O1JD O 0.74324(8) 0.44755(8) 0.68333(8) 0.0685 Uani
O1LD O 0.55245(8) 0.31667(8) 0.74324(8) 0.0685 Uani
O1OD O 0.68333(8) 0.25676(8) 0.55245(8) 0.0685 Uani
Cu1A Cu 0.785611(13) 0.5000 0.714389(13) 0.0445 Uani
O1A O 0.74324(8) 0.55245(8) 0.68333(8) 0.0685 Uani
O2A O 0.84248(12) 0.5000 0.65752(12) 0.1973 Uani
C1A C 0.70352(11) 0.56889(14) 0.70352(11) 0.0532 Uani
C2A C 0.67843(11) 0.61257(14) 0.67843(11) 0.0545 Uani
C3A C 0.63465(10) 0.63465(10) 0.69919(15) 0.0540 Uani
H1A H 0.6195 0.6195 0.7282 0.0650 Uiso
O1V O 0.68333(8) 0.74324(8) 0.55245(8) 0.0685 Uani
C1V C 0.70352(11) 0.70352(11) 0.56889(14) 0.0532 Uani
C2V C 0.67843(11) 0.67843(11) 0.61257(14) 0.0545 Uani
C3V C 0.69919(15) 0.63465(10) 0.63465(10) 0.0540 Uani
H1V H 0.7282 0.6195 0.6195 0.0650 Uiso
O1F O 0.55245(8) 0.68333(8) 0.74324(8) 0.0685 Uani
C1F C 0.56889(14) 0.70352(11) 0.70352(11) 0.0532 Uani
C2F C 0.61257(14) 0.67843(11) 0.67843(11) 0.0545 Uani
C3F C 0.63465(10) 0.69919(15) 0.63465(10) 0.0540 Uani
H1F H 0.6195 0.7282 0.6195 0.0650 Uiso
O1ZC O 0.55245(8) 0.74324(8) 0.68333(8) 0.0685 Uani
O1GD O 0.68333(8) 0.55245(8) 0.74324(8) 0.0685 Uani
O1ID O 0.74324(8) 0.68333(8) 0.55245(8) 0.0685 Uani
Cu1U Cu 0.5000 0.285611(13) 0.785611(13) 0.0445 Uani
O2U O 0.5000 0.34248(12) 0.84248(12) 0.1973 Uani
Cu1B Cu 0.5000 0.785611(13) 0.714389(13) 0.0445 Uani
Cu1F Cu 0.5000 0.714389(13) 0.785611(13) 0.0445 Uani
Cu1G Cu 0.714389(13) 0.214389(13) 0.5000 0.0445 Uani
Cu1L Cu 0.785611(13) 0.285611(13) 0.5000 0.0445 Uani
Cu1M Cu 0.714389(13) 0.5000 0.785611(13) 0.0445 Uani
Cu1N Cu 0.785611(13) 0.714389(13) 0.5000 0.0445 Uani
Cu1V Cu 0.714389(13) 0.785611(13) 0.5000 0.0445 Uani
O1U O 0.44755(8) 0.31667(8) 0.74324(8) 0.0685 Uani
O1CA O 0.55245(8) 0.24324(8) 0.81667(8) 0.0685 Uani
O1RA O 0.44755(8) 0.18333(8) 0.75676(8) 0.0685 Uani
O1KB O 0.81667(8) 0.44755(8) 0.75676(8) 0.0685 Uani
O1WC O 0.44755(8) 0.25676(8) 0.68333(8) 0.0685 Uani
O1PD O 0.44755(8) 0.24324(8) 0.81667(8) 0.0685 Uani
O1KE O 0.55245(8) 0.18333(8) 0.75676(8) 0.0685 Uani
O1AF O 0.81667(8) 0.55245(8) 0.75676(8) 0.0685 Uani
F1? F 0.6116(2) 0.3884(2) 0.7427(3) 0.0823 Uani
H2? H 0.4841 0.1319 0.6681 0.2370 Uiso
loop_
_atom_site_aniso_label
_atom_site_aniso_U_11
_atom_site_aniso_U_22
_atom_site_aniso_U_33
_atom_site_aniso_U_23
_atom_site_aniso_U_13
_atom_site_aniso_U_12
Cu1 0.0390(3) 0.0473(3) 0.0473(3) -0.0220(2) 0.000 0.000
O1 0.0673(12) 0.0686(12) 0.0697(12) -0.0248(10) 0.0200(10) -0.0196(10)
O2 0.474(19) 0.059(2) 0.059(2) -0.035(3) 0.000 0.000
C1 0.0415(17) 0.0591(12) 0.0591(12) -0.0097(16) 0.0036(11) -0.0036(11)
C2 0.0500(18) 0.0567(12) 0.0567(12) -0.0064(15) 0.0020(11) -0.0020(11)
C3 0.0525(12) 0.0525(12) 0.0570(19) -0.0061(11) 0.0061(11) 0.0011(15)
O1L 0.0686 0.0697 0.0673 -0.02 0.0196 -0.0248
C1L 0.0591 0.0591 0.0415 -0.0036 0.0036 -0.0097
C2L 0.0567 0.0567 0.05 -0.002 0.002 -0.0064
C3L 0.0525 0.057 0.0525 -0.0061 -0.0011 -0.0061
O1M 0.0697 0.0673 0.0686 -0.0196 0.0248 -0.02
C1M 0.0591 0.0415 0.0591 -0.0036 0.0097 -0.0036
C2M 0.0567 0.05 0.0567 -0.002 0.0064 -0.002
C3M 0.057 0.0525 0.0525 0.0011 0.0061 -0.0061
O1JD 0.0686 0.0673 0.0697 -0.02 0.0248 -0.0196
O1LD 0.0673 0.0697 0.0686 -0.0248 0.0196 -0.02
O1OD 0.0697 0.0686 0.0673 -0.0196 0.02 -0.0248
Cu1A 0.0473 0.039 0.0473 0 0.022 0
O1A 0.0686 0.0673 0.0697 0.02 0.0248 0.0196
O2A 0.059 0.474 0.059 0 0.035 0
C1A 0.0591 0.0415 0.0591 0.0036 0.0097 0.0036
C2A 0.0567 0.05 0.0567 0.002 0.0064 0.002
C3A 0.0525 0.0525 0.057 0.0061 0.0061 -0.0011
O1V 0.0697 0.0686 0.0673 0.0196 0.02 0.0248
C1V 0.0591 0.0591 0.0415 0.0036 0.0036 0.0097
C2V 0.0567 0.0567 0.05 0.002 0.002 0.0064
C3V 0.057 0.0525 0.0525 -0.0011 0.0061 0.0061
O1F 0.0673 0.0697 0.0686 0.0248 0.0196 0.02
C1F 0.0415 0.0591 0.0591 0.0097 0.0036 0.0036
C2F 0.05 0.0567 0.0567 0.0064 0.002 0.002
C3F 0.0525 0.057 0.0525 0.0061 -0.0011 0.0061
O1ZC 0.0673 0.0686 0.0697 0.0248 0.02 0.0196
O1GD 0.0697 0.0673 0.0686 0.0196 0.0248 0.02
O1ID 0.0686 0.0697 0.0673 0.02 0.0196 0.0248
Cu1U 0.039 0.0473 0.0473 -0.022 0 0
O2U 0.474 0.059 0.059 -0.035 0 0
Cu1B 0.039 0.0473 0.0473 0.022 0 0
Cu1F 0.039 0.0473 0.0473 0.022 0 0
Cu1G 0.0473 0.0473 0.039 0 0 -0.022
Cu1L 0.0473 0.0473 0.039 0 0 -0.022
Cu1M 0.0473 0.039 0.0473 0 0.022 0
Cu1N 0.0473 0.0473 0.039 0 0 0.022
Cu1V 0.0473 0.0473 0.039 0 0 0.022
O1U 0.0673 0.0697 0.0686 -0.0248 -0.0196 0.02
O1CA 0.0673 0.0686 0.0697 -0.0248 -0.02 0.0196
O1RA 0.0673 0.0697 0.0686 -0.0248 0.0196 -0.02
O1KB 0.0697 0.0673 0.0686 0.0196 0.0248 0.02
O1WC 0.0673 0.0686 0.0697 -0.0248 -0.02 0.0196
O1PD 0.0673 0.0686 0.0697 -0.0248 0.02 -0.0196
O1KE 0.0673 0.0697 0.0686 -0.0248 -0.0196 0.02
O1AF 0.0697 0.0673 0.0686 -0.0196 0.0248 -0.02
F1? 0.081(3) 0.081(3) 0.085(5) -0.037(3) 0.037(3) -0.023(4)
loop_
_geom_bond_atom_site_label_1
_geom_bond_atom_site_label_2
_geom_bond_site_symmetry_1
_geom_bond_site_symmetry_2
Cu1 O1 1_555 1_555
O1 C1 1_555 1_555
O2 Cu1 1_555 1_555
C1 C2 1_555 1_555
C2 C3 1_555 1_555
C3 H1 1_555 1_555
O1L C1L 1_555 1_555
C1L C2L 1_555 1_555
C2L C3L 1_555 1_555
C3L C2 1_555 1_555
H1L C3L 1_555 1_555
O1M C1M 1_555 1_555
C1M C2M 1_555 1_555
C2M C3 1_555 1_555
C3M C2L 1_555 1_555
H1M C3M 1_555 1_555
O1JD C1M 1_555 1_555
O1LD C1 1_555 1_555
O1OD C1L 1_555 1_555
Cu1A O1JD 1_555 1_555
O1A Cu1A 1_555 1_555
O2A Cu1A 1_555 1_555
C1A O1A 1_555 1_555
C2A C1A 1_555 1_555
C3A C2A 1_555 1_555
H1A C3A 1_555 1_555
O1V C1V 1_555 1_555
C1V C2V 1_555 1_555
C2V C3V 1_555 1_555
C3V C2A 1_555 1_555
H1V C3V 1_555 1_555
O1F C1F 1_555 1_555
C1F C2F 1_555 1_555
C2F C3A 1_555 1_555
C3F C2V 1_555 1_555
H1F C3F 1_555 1_555
O1ZC C1F 1_555 1_555
O1GD C1A 1_555 1_555
O1ID C1V 1_555 1_555
Cu1U Cu1 1_555 1_555
O2U Cu1U 1_555 1_555
Cu1B O1ZC 1_555 1_555
Cu1F O1F 1_555 1_555
Cu1G O1OD 1_555 1_555
Cu1L O1L 1_555 1_555
Cu1M O1M 1_555 1_555
Cu1N O1ID 1_555 1_555
Cu1V O1V 1_555 1_555
O1U Cu1U 1_555 1_555
O1CA Cu1U 1_555 1_555
O1RA Cu1 1_555 1_555
O1KB Cu1A 1_555 1_555
O1WC Cu1 1_555 1_555
O1PD Cu1U 1_555 1_555
O1KE Cu1 1_555 1_555
O1AF Cu1A 1_555 1_555
C2M C3M 1_555 1_555
O1LD Cu1U 1_555 1_555
Cu1A Cu1M 1_555 1_555
C2F C3F 1_555 1_555
O1GD Cu1M 1_555 1_555
Cu1B Cu1F 1_555 1_555
Cu1G Cu1L 1_555 1_555
Cu1N Cu1V 1_555 1_555

#END
