
#######################################################################
#
#                 Cambridge Crystallographic Data Centre
#                                CCDC 
#
#######################################################################
#
# If this CIF has been generated from an entry in the Cambridge 
# Structural Database, then it will include bibliographic, chemical, 
# crystal, experimental, refinement or atomic coordinate data resulting 
# from the CCDC's data processing and validation procedures.
#
#######################################################################

data_EBANAZ
_chemical_formula_moiety         '(C9 H4 F1 K1 O6)n'
_chemical_name_systematic        
'catena-[(\m~7~-Dihydrogen 2-fluorobenzene-1,3,5-tricarboxylato)-potassium]'
_symmetry_cell_setting           monoclinic
_symmetry_space_group_name_H-M   'P n'
_symmetry_Int_Tables_number      7
_space_group_name_Hall           'P -2yac'
loop_
_symmetry_equiv_pos_site_id
_symmetry_equiv_pos_as_xyz
1 x,y,z
2 1/2+x,-y,1/2+z
_cell_length_a                   4.2070(8)
_cell_length_b                   10.919(2)
_cell_length_c                   10.517(2)
_cell_angle_alpha                90
_cell_angle_beta                 97.93(3)
_cell_angle_gamma                90
_cell_volume                     478.492
_exptl_crystal_colour            colorless
_exptl_crystal_description       needle
_cell_formula_units_Z            2
loop_
_atom_site_label
_atom_site_type_symbol
_atom_site_fract_x
_atom_site_fract_y
_atom_site_fract_z
K1 K 0.1787(2) 0.66217(8) -0.50504(11)
F1 F 0.1672(8) 0.5219(2) -0.0003(3)
O1 O -0.3273(9) 0.7004(3) -0.2980(3)
O2 O -0.3690(8) 0.5409(3) -0.1676(3)
O3 O 0.6841(7) 0.5355(3) 0.1719(3)
H1 H 0.839(9) 0.511(6) 0.225(4)
O4 O 0.6479(9) 0.6816(4) 0.3170(3)
O5 O 0.2663(10) 1.0734(3) 0.1490(4)
H2 H 0.1976 1.1404 0.1734
O6 O -0.1335(10) 1.0912(3) -0.0150(3)
C1 C -0.0562(11) 0.7092(4) -0.0828(4)
C2 C 0.1470(12) 0.6442(4) 0.0102(4)
C3 C 0.3293(11) 0.7020(4) 0.1133(4)
C4 C 0.2963(11) 0.8271(4) 0.1282(4)
H3 H 0.4105 0.8669 0.2010
C5 C 0.0968(11) 0.8955(4) 0.0376(4)
C6 C -0.0789(11) 0.8355(4) -0.0668(4)
H4 H -0.2165 0.8817 -0.1280
C7 C -0.2647(11) 0.6464(4) -0.1917(4)
C8 C 0.5658(11) 0.6367(4) 0.2116(4)
C9 C 0.0606(12) 1.0292(4) 0.0532(4)
K1_2 K -0.8213(2) 0.66217(8) -0.50504(11)
K1_3 K 0.1787(2) 0.66217(8) 0.49496(11)
K1_4 K 1.1787(2) 0.66217(8) 0.49496(11)
K1A K -0.3213(2) 0.33783(8) -0.00504(11)
K1A_2 K -0.3213(2) 1.33783(8) -0.00504(11)
K1A_3 K 0.6787(2) 0.33783(8) -0.00504(11)
F1A F -0.3328(8) 0.4781(2) -0.5003(3)
F1A_2 F 0.6672(8) 0.4781(2) -0.5003(3)
O1_2 O 0.6727(9) 0.7004(3) -0.2980(3)
O2A O 0.1310(8) 0.4591(3) -0.6676(3)
O3A O 0.1841(7) 0.4645(3) -0.3281(3)
O4_2 O -0.3521(9) 0.6816(4) -0.6830(3)
O4_3 O 0.6479(9) 0.6816(4) -0.6830(3)
O6A O 0.3665(10) 0.9088(3) -0.5150(3)
loop_
_geom_bond_atom_site_label_1
_geom_bond_atom_site_label_2
_geom_bond_site_symmetry_1
_geom_bond_site_symmetry_2
K1 O1 1_555 1_555
F1 C2 1_555 1_555
O1 C7 1_555 1_555
O2 C7 1_555 1_555
O3 H1 1_555 1_555
O4 C8 1_555 1_555
O5 H2 1_555 1_555
O6 C9 1_555 1_555
C1 C2 1_555 1_555
C2 C3 1_555 1_555
C3 C4 1_555 1_555
C4 H3 1_555 1_555
C5 C4 1_555 1_555
C6 C1 1_555 1_555
H4 C6 1_555 1_555
C7 C1 1_555 1_555
C8 O3 1_555 1_555
C9 O5 1_555 1_555
K1_2 O1 1_555 1_555
K1_3 O4 1_555 1_555
K1_4 O4 1_555 1_555
K1A F1 1_555 1_555
K1A_2 O6 1_555 1_555
K1A_3 F1 1_555 1_555
F1A K1 1_555 1_555
F1A_2 K1 1_555 1_555
O1_2 K1 1_555 1_555
O2A K1 1_555 1_555
O3A K1 1_555 1_555
O4_2 K1 1_555 1_555
O4_3 K1 1_555 1_555
O6A K1 1_555 1_555
O2 K1A 1_555 1_555
O3 K1A_3 1_555 1_555
C3 C8 1_555 1_555
C5 C6 1_555 1_555
C5 C9 1_555 1_555
K1_2 F1A 1_555 1_555
K1_2 O4_2 1_555 1_555

#END
