
#######################################################################
#
#                 Cambridge Crystallographic Data Centre
#                                CCDC 
#
#######################################################################
#
# If this CIF has been generated from an entry in the Cambridge 
# Structural Database, then it will include bibliographic, chemical, 
# crystal, experimental, refinement or atomic coordinate data resulting 
# from the CCDC's data processing and validation procedures.
#
#######################################################################

data_GEBTAK
_chemical_formula_moiety         '(C22 H14 N2 O4 Zn1)n'
_chemical_name_systematic        
catena-((\m~2~-azulene-1,6-dicarboxylato)-(\m~2~-4,4'-bipyridine)-zinc)
_symmetry_cell_setting           monoclinic
_symmetry_space_group_name_H-M   'C 2/c'
_symmetry_Int_Tables_number      15
_space_group_name_Hall           '-C 2yc'
loop_
_symmetry_equiv_pos_site_id
_symmetry_equiv_pos_as_xyz
1 x,y,z
2 -x,y,1/2-z
3 1/2+x,1/2+y,z
4 1/2-x,1/2+y,1/2-z
5 -x,-y,-z
6 x,-y,1/2+z
7 1/2-x,1/2-y,-z
8 1/2+x,1/2-y,1/2+z
_cell_length_a                   16.399(10)
_cell_length_b                   11.380(6)
_cell_length_c                   24.014(14)
_cell_angle_alpha                90
_cell_angle_beta                 103.333(10)
_cell_angle_gamma                90
_cell_volume                     4360.71
_exptl_crystal_colour            green
_exptl_crystal_description       plate
_cell_formula_units_Z            8
loop_
_atom_site_label
_atom_site_type_symbol
_atom_site_fract_x
_atom_site_fract_y
_atom_site_fract_z
Zn1 Zn 0.08076(4) 1.00943(5) 0.70104(2)
N1 N 0.0783(3) 0.8203(4) 0.69944(16)
N2 N 0.0772(2) 0.1978(4) 0.70468(15)
O1 O 0.1490(19) 0.999(2) 0.7794(10)
O2 O 0.0559(6) 1.0094(10) 0.8306(4)
O5 O 0.1980(17) 0.973(3) 1.1681(12)
O6 O 0.0891(15) 0.973(2) 1.1035(9)
C1 C 0.1455(4) 0.7593(4) 0.7284(2)
H1 H 0.1930 0.8021 0.7484
C2 C 0.1490(3) 0.6376(4) 0.7306(2)
H2 H 0.1974 0.5982 0.7517
C3 C 0.0791(3) 0.5745(4) 0.70098(19)
C4 C 0.0798(3) 0.4436(5) 0.70257(19)
C5 C 0.1255(3) 0.3826(4) 0.7488(2)
H3 H 0.1578 0.4237 0.7808
C6 C 0.1240(3) 0.2595(4) 0.7484(2)
H4 H 0.1570 0.2182 0.7800
C7 C 0.0315(4) 0.2572(4) 0.6610(2)
H5 H -0.0031 0.2146 0.6305
C8 C 0.0321(4) 0.3795(5) 0.6579(2)
H6 H -0.0002 0.4186 0.6252
C9 C 0.0116(4) 0.6356(5) 0.6709(3)
H7 H -0.0362 0.5947 0.6499
C10 C 0.0128(4) 0.7581(5) 0.6710(3)
H8 H -0.0350 0.7991 0.6500
C11 C 0.1226(4) 0.9929(4) 0.8238(2)
C12 C 0.1971(10) 0.9472(14) 0.8771(6)
C13 C 0.2723(9) 0.9025(13) 0.8716(5)
H9 H 0.2880 0.8925 0.8363
C14 C 0.3223(12) 0.8739(17) 0.9245(7)
H10 H 0.3780 0.8445 0.9318
C15 C 0.2743(13) 0.8971(16) 0.9663(7)
C16 C 0.3020(9) 0.8883(17) 1.0222(7)
H11 H 0.3585 0.8620 1.0329
C17 C 0.2680(9) 0.9085(14) 1.0687(6)
H12 H 0.3021 0.8919 1.1055
C18 C 0.1840(8) 0.9533(11) 1.0660(5)
C20 C 0.1216(7) 0.9788(10) 1.0167(5)
H13 H 0.0690 0.9989 1.0242
C21 C 0.1226(13) 0.980(2) 0.9571(8)
C22 C 0.1920(6) 0.9436(9) 0.9340(4)
C23 C 0.1697(11) 0.9594(16) 1.1196(9)
Zn1_2 Zn 0.08076(4) 0.00943(5) 0.70104(2)
Zn1A Zn -0.08076(4) 1.00943(5) 0.79896(2)
Zn1E Zn 0.08076(4) 0.99057(5) 1.20104(2)
N2_2 N 0.0772(2) 1.1978(4) 0.70468(15)
O2A O -0.0559(6) 1.0094(10) 0.6694(4)
O5E O 0.1980(17) 1.027(3) 0.6681(12)
O6E O 0.0891(15) 1.027(2) 0.6035(9)
O3? O 0.2158(14) 0.981(2) 1.1685(7)
O4? O 0.0794(13) 0.9849(18) 1.1193(8)
O7? O 0.0392(9) 1.0116(12) 0.8073(6)
C19? C 0.153(2) 0.980(2) 1.1194(11)
H14? H 0.0736 1.0070 0.9309
C24? C 0.2238(12) 0.9275(12) 1.0778(6)
C25? C 0.3029(7) 0.8834(13) 1.0985(6)
H15? H 0.3296 0.8675 1.1373
C26? C 0.3364(8) 0.8666(14) 1.0495(6)
H16? H 0.3912 0.8373 1.0513
C27? C 0.2792(11) 0.8982(14) 0.9975(9)
C28? C 0.2925(10) 0.8949(14) 0.9447(7)
H17? H 0.3459 0.8652 0.9428
C29? C 0.2446(9) 0.9255(12) 0.8947(6)
H18? H 0.2690 0.9172 0.8627
C30? C 0.1611(10) 0.9692(12) 0.8828(6)
C31? C 0.1101(7) 0.9905(9) 0.9223(6)
H19? H 0.0551 1.0180 0.9059
C32? C 0.1293(9) 0.9768(16) 0.9821(9)
H20? H 0.0855 0.9962 1.0004
C33? C 0.2029(6) 0.9391(9) 1.0180(4)
O8? O 0.1613(16) 0.9960(19) 0.7837(6)
loop_
_geom_bond_atom_site_label_1
_geom_bond_atom_site_label_2
_geom_bond_site_symmetry_1
_geom_bond_site_symmetry_2
Zn1 N1 1_555 1_555
N1 C1 1_555 1_555
N2 C6 1_555 1_555
O1 Zn1 1_555 1_555
O2 C11 1_555 1_555
O5 C23 1_555 1_555
O6 C23 1_555 1_555
C1 H1 1_555 1_555
C2 C1 1_555 1_555
H2 C2 1_555 1_555
C3 C2 1_555 1_555
C4 C3 1_555 1_555
C5 C4 1_555 1_555
H3 C5 1_555 1_555
C6 C5 1_555 1_555
H4 C6 1_555 1_555
C7 N2 1_555 1_555
H5 C7 1_555 1_555
C8 C4 1_555 1_555
H6 C8 1_555 1_555
C9 C3 1_555 1_555
H7 C9 1_555 1_555
C10 N1 1_555 1_555
H8 C10 1_555 1_555
C11 O1 1_555 1_555
C12 C11 1_555 1_555
C13 C12 1_555 1_555
H9 C13 1_555 1_555
C14 C13 1_555 1_555
H10 C14 1_555 1_555
C15 C14 1_555 1_555
C16 C15 1_555 1_555
H11 C16 1_555 1_555
C17 C16 1_555 1_555
H12 C17 1_555 1_555
C18 C17 1_555 1_555
C20 C18 1_555 1_555
H13 C20 1_555 1_555
C21 C20 1_555 1_555
C22 C12 1_555 1_555
C23 C18 1_555 1_555
Zn1_2 N2 1_555 1_555
Zn1A O2 1_555 1_555
Zn1E O5 1_555 1_555
N2_2 Zn1 1_555 1_555
O2A Zn1 1_555 1_555
O5E Zn1 1_555 1_555
O6E Zn1 1_555 1_555
O6 Zn1E 1_555 1_555
C7 C8 1_555 1_555
C9 C10 1_555 1_555
C15 C22 1_555 1_555
C21 C22 1_555 1_555

#END
