
#######################################################################
#
#                 Cambridge Crystallographic Data Centre
#                                CCDC 
#
#######################################################################
#
# If this CIF has been generated from an entry in the Cambridge 
# Structural Database, then it will include bibliographic, chemical, 
# crystal, experimental, refinement or atomic coordinate data resulting 
# from the CCDC's data processing and validation procedures.
#
#######################################################################

data_CANYUN
_chemical_formula_moiety         
'(C48 H66 Fe3 N6 O13)n,3n(C2 H6 O1 S1),0.85n(H2 O1)'
_chemical_name_systematic        
'catena-((\m~3~-2,4,6-Tri(pyridin-4-yl)-1,3,5-triazine)-(\m~3~-oxo)-hexakis(\m~2~-pivalato)-tri-iron dimethyl sulfoxide solvate hydrate)'
_symmetry_cell_setting           trigonal
_symmetry_space_group_name_H-M   'P -3 1 c'
_symmetry_Int_Tables_number      163
_space_group_name_Hall           '-P 3 2c'
loop_
_symmetry_equiv_pos_site_id
_symmetry_equiv_pos_as_xyz
1 x,y,z
2 -y,x-y,z
3 -x+y,-x,z
4 -y,-x,1/2-z
5 -x+y,y,1/2-z
6 x,x-y,1/2-z
7 -x,-y,-z
8 y,-x+y,-z
9 x-y,x,-z
10 y,x,1/2+z
11 x-y,-y,1/2+z
12 -x,-x+y,1/2+z
_cell_length_a                   16.7748(19)
_cell_length_b                   16.7748(19)
_cell_length_c                   14.9728(18)
_cell_angle_alpha                90
_cell_angle_beta                 90
_cell_angle_gamma                120
_cell_volume                     3648.79
_exptl_crystal_colour            'dark green'
_exptl_crystal_description       rhombic
_cell_formula_units_Z            2
loop_
_atom_site_label
_atom_site_type_symbol
_atom_site_fract_x
_atom_site_fract_y
_atom_site_fract_z
Fe1 Fe 0.60180(4) 0.20361(7) 0.2500
N1 N 0.5270(2) 0.0539(4) 0.2500
N2 N 0.2863(3) -0.2863(3) 0.2500
O1 O 0.6667 0.3333 0.2500
O2 O 0.6792(4) 0.1897(3) 0.1540(4)
O3 O 0.8101(4) 0.3206(3) 0.1541(4)
C1 C 0.7552(4) 0.2446(5) 0.1220(4)
C2 C 0.7864(6) 0.2132(6) 0.0401(6)
C3 C 0.881(2) 0.272(2) 0.017(3)
H1 H 0.8952 0.2486 -0.0372
H2 H 0.9203 0.2738 0.0659
H3 H 0.8921 0.3344 0.0054
C4 C 0.778(3) 0.1213(19) 0.065(2)
H4 H 0.7132 0.0742 0.0701
H5 H 0.8090 0.1274 0.1226
H6 H 0.8077 0.1033 0.0190
C5 C 0.706(6) 0.189(12) -0.031(3)
H7 H 0.6458 0.1525 -0.0021
H8 H 0.7113 0.1543 -0.0808
H9 H 0.7111 0.2465 -0.0539
C6 C 0.4374(5) 0.0075(5) 0.2503(6)
H10 H 0.4051 0.0406 0.2509
C7 C 0.3860(5) -0.0899(5) 0.2498(6)
H11 H 0.3206 -0.1213 0.2493
C8 C 0.4312(3) -0.1375(6) 0.2500
C9 C 0.3802(3) -0.2396(6) 0.2500
Fe1B Fe 0.60181(8) -0.60180(4) 0.2500
Fe1A Fe -0.20361(7) -0.60181(8) 0.2500
Fe1B_2 Fe 0.60181(8) 0.39820(4) 0.2500
Fe1A_2 Fe 0.79639(7) 0.39819(8) 0.2500
Fe1_2 Fe 0.60180(4) -0.79639(7) 0.2500
Fe1C Fe 0.79639(7) -0.60180(4) 0.2500
N1B N 0.5269(4) -0.5270(2) 0.2500
N1A N -0.0539(4) -0.5269(4) 0.2500
N2A N 0.2863(3) -0.4274(4) 0.2500
N2B N 0.4274(4) -0.2863(3) 0.2500
O1B O 0.6666 -0.6667 0.2500
O1A O -0.3333 -0.6666 0.2500
O2D O 0.5105(5) 0.1897(3) 0.3460(4)
O2B O 0.5105(5) 0.3208(4) 0.1540(4)
O2C O 0.8103(3) 0.3208(4) 0.3460(4)
O2B_2 O 0.5105(5) -0.6792(4) 0.1540(4)
O2E O 0.6792(4) -0.5105(5) 0.3460(4)
O2A O -0.1897(3) -0.5105(5) 0.1540(4)
O2C_2 O -0.1897(3) -0.6792(4) 0.3460(4)
O3D O 0.5105(5) 0.3206(3) 0.3459(4)
O3B O 0.5105(5) 0.1899(4) 0.1541(4)
O3C O 0.6794(3) 0.1899(4) 0.3459(4)
O3B_2 O 0.5105(5) -0.8101(4) 0.1541(4)
O3E O 0.8101(4) -0.5105(5) 0.3459(4)
O3A O 0.6794(3) -0.5105(5) 0.1541(4)
O3D_2 O 0.5105(5) -0.6794(3) 0.3459(4)
O3_2 O -0.1899(4) -0.6794(3) 0.1541(4)
O3E_2 O -0.1899(4) -0.5105(5) 0.3459(4)
C1D C 0.4894(6) 0.2446(5) 0.3780(4)
C1B C 0.4894(6) 0.2448(4) 0.1220(4)
C1C C 0.7554(5) 0.2448(4) 0.3780(4)
C1B_2 C 0.4894(6) -0.7552(4) 0.1220(4)
C1E C 0.7552(4) -0.4894(6) 0.3780(4)
C2D C 0.4268(8) 0.2132(6) 0.4599(6)
C2B C 0.4268(8) 0.2136(6) 0.0401(6)
C2C C 0.7868(6) 0.2136(6) 0.4599(6)
C2B_2 C 0.4268(8) -0.7864(6) 0.0401(6)
C2E C 0.7864(6) -0.4268(8) 0.4599(6)
C3D C 0.391(3) 0.272(2) 0.483(3)
C3B C 0.391(3) 0.119(2) 0.017(3)
C3C C 0.728(2) 0.119(2) 0.483(3)
C3B_2 C 0.391(3) -0.881(2) 0.017(3)
C3E C 0.881(2) -0.391(3) 0.483(3)
H1D H 0.3534 0.2486 0.5372
H1B H 0.3534 0.1048 -0.0372
H1C H 0.7514 0.1048 0.5372
H1B_2 H 0.3534 -0.8952 -0.0372
H1E H 0.8952 -0.3534 0.5372
H2D H 0.3535 0.2738 0.4341
H2B H 0.3535 0.0797 0.0659
H2C H 0.7262 0.0797 0.4341
H2B_2 H 0.3535 -0.9203 0.0659
H2E H 0.9203 -0.3535 0.4341
H3D H 0.4423 0.3344 0.4946
H3B H 0.4423 0.1079 0.0054
H3C H 0.6656 0.1079 0.4946
H3B_2 H 0.4423 -0.8921 0.0054
H3E H 0.8921 -0.4423 0.4946
C4D C 0.3433(36) 0.1213(19) 0.435(2)
C4B C 0.3433(36) 0.222(3) 0.065(2)
C4C C 0.8787(19) 0.222(3) 0.435(2)
C4B_2 C 0.3433(36) -0.778(3) 0.065(2)
C4E C 0.778(3) -0.3433(36) 0.435(2)
H4D H 0.3610 0.0742 0.4299
H4B H 0.3610 0.2868 0.0701
H4C H 0.9258 0.2868 0.4299
H4B_2 H 0.3610 -0.7132 0.0701
H4E H 0.7132 -0.3610 0.4299
H5D H 0.3184 0.1274 0.3774
H5B H 0.3184 0.1910 0.1226
H5C H 0.8726 0.1910 0.3774
H5B_2 H 0.3184 -0.8090 0.1226
H5E H 0.8090 -0.3184 0.3774
H6D H 0.2956 0.1033 0.4810
H6B H 0.2956 0.1923 0.0190
H6C H 0.8967 0.1923 0.4810
H6B_2 H 0.2956 -0.8077 0.0190
H6E H 0.8077 -0.2956 0.4810
C5D C 0.483(13) 0.189(12) 0.531(3)
C5B C 0.483(13) 0.294(6) -0.031(3)
C5C C 0.811(12) 0.294(6) 0.531(3)
C5B_2 C 0.483(13) -0.706(6) -0.031(3)
C5E C 0.706(6) -0.483(13) 0.531(3)
H7D H 0.5067 0.1525 0.5021
H7B H 0.5067 0.3542 -0.0021
H7C H 0.8475 0.3542 0.5021
H7B_2 H 0.5067 -0.6458 -0.0021
H7E H 0.6458 -0.5067 0.5021
H8D H 0.4430 0.1543 0.5808
H8B H 0.4430 0.2887 -0.0808
H8C H 0.8457 0.2887 0.5808
H8B_2 H 0.4430 -0.7113 -0.0808
H8E H 0.7113 -0.4430 0.5808
H9D H 0.5354 0.2465 0.5539
H9B H 0.5354 0.2889 -0.0539
H9C H 0.7535 0.2889 0.5539
H9B_2 H 0.5354 -0.7111 -0.0539
H9E H 0.7111 -0.5354 0.5539
C6D C 0.5701(7) 0.0075(5) 0.2497(6)
C6B C 0.5701(7) -0.4374(5) 0.2503(6)
C6E C 0.4374(5) -0.5701(7) 0.2497(6)
C6A C -0.0075(5) -0.5701(7) 0.2503(6)
C6C C -0.0075(5) -0.4374(5) 0.2497(6)
H10D H 0.6355 0.0406 0.2491
H10E H 0.4051 -0.6355 0.2491
H10B H 0.6355 -0.4051 0.2509
H10C H -0.0406 -0.4051 0.2491
H10A H -0.0406 -0.6355 0.2509
C7D C 0.5241(7) -0.0899(5) 0.2502(6)
C7B C 0.5241(7) -0.3860(5) 0.2498(6)
C7E C 0.3860(5) -0.5241(7) 0.2502(6)
C7A C 0.0899(5) -0.5241(7) 0.2498(6)
C7C C 0.0899(5) -0.3860(5) 0.2502(6)
H11D H 0.5581 -0.1213 0.2507
H11E H 0.3206 -0.5581 0.2507
H11B H 0.5581 -0.3206 0.2493
H11C H 0.1213 -0.3206 0.2507
H11A H 0.1213 -0.5581 0.2493
C8B C 0.4313(7) -0.4312(3) 0.2500
C8A C 0.1375(6) -0.4313(7) 0.2500
C9A C 0.2396(6) -0.3802(7) 0.2500
C9B C 0.3802(7) -0.3802(3) 0.2500
O4 O 0.1773(5) -0.1773(5) 0.2500
S1 S 0.1176(8) -0.1176(8) 0.2500
C10 C 0.1585(18) -0.0110(15) 0.253(4)
H12 H 0.2251 0.0194 0.2631
H13 H 0.1297 0.0046 0.3018
H14 H 0.1464 0.0100 0.1962
C10C C 0.0110(15) -0.1585(18) 0.247(4)
H12C H -0.0194 -0.2251 0.2369
H13C H -0.0046 -0.1297 0.1982
H14C H -0.0100 -0.1464 0.3038
O5 O 0.0000 0.0000 0.0000
O6 O 0.0000 0.0000 0.145(3)
Ni1? Ni 0.60180(4) 0.20361(7) 0.2500
C11? C 0.868(2) 0.202(2) 0.071(2)
H15? H 0.9118 0.2564 0.1049
H16? H 0.8992 0.1946 0.0188
H17? H 0.8454 0.1472 0.1092
C12? C 0.713(2) 0.137(3) -0.003(3)
H18? H 0.6697 0.1542 -0.0274
H19? H 0.6813 0.0862 0.0395
H20? H 0.7376 0.1164 -0.0523
C13? C 0.805(5) 0.286(3) -0.0309(17)
H21? H 0.8589 0.3442 -0.0136
H22? H 0.7513 0.2940 -0.0362
H23? H 0.8166 0.2656 -0.0884
S2? S 0.1178(10) -0.1174(10) 0.2842(9)
loop_
_geom_bond_atom_site_label_1
_geom_bond_atom_site_label_2
_geom_bond_site_symmetry_1
_geom_bond_site_symmetry_2
Fe1 N1 1_555 1_555
N1 C6 1_555 1_555
N2 C9 1_555 1_555
O1 Fe1 1_555 1_555
O2 Fe1 1_555 1_555
O3 C1 1_555 1_555
C1 O2 1_555 1_555
C2 C1 1_555 1_555
C3 C2 1_555 1_555
H1 C3 1_555 1_555
H2 C3 1_555 1_555
H3 C3 1_555 1_555
C4 C2 1_555 1_555
H4 C4 1_555 1_555
H5 C4 1_555 1_555
H6 C4 1_555 1_555
C5 C2 1_555 1_555
H7 C5 1_555 1_555
H8 C5 1_555 1_555
H9 C5 1_555 1_555
C6 H10 1_555 1_555
C7 C6 1_555 1_555
H11 C7 1_555 1_555
C8 C7 1_555 1_555
C9 C8 1_555 1_555
O4 S1 1_555 1_555
S1 C10 1_555 1_555
C10 H12 1_555 1_555
H13 C10 1_555 1_555
H14 C10 1_555 1_555
Fe1B N1B 1_555 1_555
Fe1A N1A 1_555 1_555
Fe1B_2 O1 1_555 1_555
Fe1A_2 O1 1_555 1_555
Fe1_2 O1B 1_555 1_555
Fe1C O1B 1_555 1_555
N1B C6B 1_555 1_555
N1A C6A 1_555 1_555
N2A C9A 1_555 1_555
N2B C9 1_555 1_555
O1B Fe1B 1_555 1_555
O1A Fe1A 1_555 1_555
O2D Fe1 1_555 1_555
O2B Fe1B_2 1_555 1_555
O2C Fe1A_2 1_555 1_555
O2B_2 Fe1B 1_555 1_555
O2E Fe1B 1_555 1_555
O2A Fe1A 1_555 1_555
O2C_2 Fe1A 1_555 1_555
O3D Fe1B_2 1_555 1_555
O3B Fe1 1_555 1_555
O3C Fe1 1_555 1_555
O3B_2 Fe1_2 1_555 1_555
O3E Fe1C 1_555 1_555
O3A Fe1B 1_555 1_555
O3D_2 Fe1B 1_555 1_555
O3_2 Fe1A 1_555 1_555
O3E_2 Fe1A 1_555 1_555
C1D O2D 1_555 1_555
C1B O2B 1_555 1_555
C1C O2C 1_555 1_555
C1B_2 O2B_2 1_555 1_555
C1E O2E 1_555 1_555
C2D C1D 1_555 1_555
C2B C1B 1_555 1_555
C2C C1C 1_555 1_555
C2B_2 C1B_2 1_555 1_555
C2E C1E 1_555 1_555
C3D C2D 1_555 1_555
C3B C2B 1_555 1_555
C3C C2C 1_555 1_555
C3B_2 C2B_2 1_555 1_555
C3E C2E 1_555 1_555
H1D C3D 1_555 1_555
H1B C3B 1_555 1_555
H1C C3C 1_555 1_555
H1B_2 C3B_2 1_555 1_555
H1E C3E 1_555 1_555
H2D C3D 1_555 1_555
H2B C3B 1_555 1_555
H2C C3C 1_555 1_555
H2B_2 C3B_2 1_555 1_555
H2E C3E 1_555 1_555
H3D C3D 1_555 1_555
H3B C3B 1_555 1_555
H3C C3C 1_555 1_555
H3B_2 C3B_2 1_555 1_555
H3E C3E 1_555 1_555
C4D C2D 1_555 1_555
C4B C2B 1_555 1_555
C4C C2C 1_555 1_555
C4B_2 C2B_2 1_555 1_555
C4E C2E 1_555 1_555
H4D C4D 1_555 1_555
H4B C4B 1_555 1_555
H4C C4C 1_555 1_555
H4B_2 C4B_2 1_555 1_555
H4E C4E 1_555 1_555
H5D C4D 1_555 1_555
H5B C4B 1_555 1_555
H5C C4C 1_555 1_555
H5B_2 C4B_2 1_555 1_555
H5E C4E 1_555 1_555
H6D C4D 1_555 1_555
H6B C4B 1_555 1_555
H6C C4C 1_555 1_555
H6B_2 C4B_2 1_555 1_555
H6E C4E 1_555 1_555
C5D C2D 1_555 1_555
C5B C2B 1_555 1_555
C5C C2C 1_555 1_555
C5B_2 C2B_2 1_555 1_555
C5E C2E 1_555 1_555
H7D C5D 1_555 1_555
H7B C5B 1_555 1_555
H7C C5C 1_555 1_555
H7B_2 C5B_2 1_555 1_555
H7E C5E 1_555 1_555
H8D C5D 1_555 1_555
H8B C5B 1_555 1_555
H8C C5C 1_555 1_555
H8B_2 C5B_2 1_555 1_555
H8E C5E 1_555 1_555
H9D C5D 1_555 1_555
H9B C5B 1_555 1_555
H9C C5C 1_555 1_555
H9B_2 C5B_2 1_555 1_555
H9E C5E 1_555 1_555
C6D N1 1_555 1_555
C6B H10B 1_555 1_555
C6E N1B 1_555 1_555
C6A H10A 1_555 1_555
C6C N1A 1_555 1_555
H10D C6D 1_555 1_555
H10E C6E 1_555 1_555
H10C C6C 1_555 1_555
C7D C8 1_555 1_555
C7B C6B 1_555 1_555
C7E C6E 1_555 1_555
C7A C6A 1_555 1_555
C7C C6C 1_555 1_555
H11D C7D 1_555 1_555
H11E C7E 1_555 1_555
H11B C7B 1_555 1_555
H11C C7C 1_555 1_555
H11A C7A 1_555 1_555
C8B C7B 1_555 1_555
C8A C7A 1_555 1_555
C9A N2 1_555 1_555
C9B N2A 1_555 1_555
C10C S1 1_555 1_555
H12C C10C 1_555 1_555
H13C C10C 1_555 1_555
H14C C10C 1_555 1_555
O3 Fe1A_2 1_555 1_555
N2B C9B 1_555 1_555
O3D C1D 1_555 1_555
O3B C1B 1_555 1_555
O3C C1C 1_555 1_555
O3B_2 C1B_2 1_555 1_555
O3E C1E 1_555 1_555
C6D C7D 1_555 1_555
C7E C8B 1_555 1_555
C7C C8A 1_555 1_555
C8B C9B 1_555 1_555
C8A C9A 1_555 1_555

#END
