
#######################################################################
#
#                 Cambridge Crystallographic Data Centre
#                                CCDC 
#
#######################################################################
#
# If this CIF has been generated from an entry in the Cambridge 
# Structural Database, then it will include bibliographic, chemical, 
# crystal, experimental, refinement or atomic coordinate data resulting 
# from the CCDC's data processing and validation procedures.
#
#######################################################################

data_TASXIW
_chemical_formula_moiety         '(C34 H22 N4 O20 Zn4)n,8n(H2 O1)'
_chemical_name_systematic        
"catena-[(\m~6~-2,5-Dioxidobenzene-1,4-dicarboxylato)-bis(\m~4~-2,5-dihydroxybenzene-1,4-dicarboxylato)-(\m~2~-4,4'-diazene-1,2-diyldipyridine)-diaqua-tetra-zinc(ii) octahydrate]"
_symmetry_cell_setting           monoclinic
_symmetry_space_group_name_H-M   'C 2/c'
_symmetry_Int_Tables_number      15
_space_group_name_Hall           '-C 2yc'
loop_
_symmetry_equiv_pos_site_id
_symmetry_equiv_pos_as_xyz
1 x,y,z
2 -x,y,1/2-z
3 1/2+x,1/2+y,z
4 1/2-x,1/2+y,1/2-z
5 -x,-y,-z
6 x,-y,1/2+z
7 1/2-x,1/2-y,-z
8 1/2+x,1/2-y,1/2+z
_cell_length_a                   20.5126(15)
_cell_length_b                   25.971(3)
_cell_length_c                   13.9517(9)
_cell_angle_alpha                90
_cell_angle_beta                 123.508(3)
_cell_angle_gamma                90
_cell_volume                     6197.31
_exptl_crystal_colour            'light yellow'
_exptl_crystal_description       block
_cell_formula_units_Z            4
_chemical_properties_physical    air-sensitive
loop_
_atom_site_label
_atom_site_type_symbol
_atom_site_fract_x
_atom_site_fract_y
_atom_site_fract_z
C1 C 0.7271(10) 0.1444(7) 0.5365(17)
C2 C 0.7387(10) 0.1990(7) 0.5181(16)
C3 C 0.7140(11) 0.2179(9) 0.4092(15)
H1 H 0.6890 0.1949 0.3456
C4 C 0.7761(12) 0.2336(9) 0.6088(15)
C5 C 0.8342(8) 0.0184(6) 0.6532(15)
C6 C 0.9200(8) 0.0129(6) 0.6993(14)
C7 C 0.9730(10) 0.0119(6) 0.8190(13)
H2 H 0.9532 0.0104 0.8666
C8 C 0.9489(9) 0.0129(6) 0.6312(12)
C9 C 0.6255(9) -0.0036(7) 0.7423(13)
C10 C 0.5617(8) 0.0000(6) 0.6153(12)
C11 C 0.5751(9) 0.0205(6) 0.5318(13)
C12 C 0.4884(9) -0.0207(6) 0.5800(12)
H3 H 0.4824 -0.0356 0.6369
C13 C 0.7992(10) 0.1010(7) 0.9617(15)
H4 H 0.7478 0.0968 0.9446
C14 C 0.8604(12) 0.1093(7) 1.0747(14)
H5 H 0.8523 0.1105 1.1354
C15 C 0.9338(11) 0.1158(7) 1.0945(17)
C16 C 0.9470(10) 0.1163(7) 1.0079(17)
H6 H 0.9970 0.1222 1.0211
C17 C 0.8835(13) 0.1077(7) 0.9045(15)
H7 H 0.8910 0.1081 0.8431
N1 N 0.8107(7) 0.0986(5) 0.8746(10)
N2 N 1.0068(10) 0.1181(6) 1.2154(14)
O1 O 0.7515(7) 0.1297(4) 0.6348(10)
O2 O 0.6940(7) 0.1159(5) 0.4519(10)
O3 O 0.8041(10) 0.2195(6) 0.7200(11)
H8 H 0.7948 0.1881 0.7219
O4 O 0.8123(5) 0.0242(4) 0.7176(9)
O5 O 0.7885(6) 0.0184(4) 0.5416(9)
O6 O 0.9030(5) 0.0125(4) 0.5147(8)
H9 H 0.8558 0.0133 0.4929
O7 O 0.6438(5) 0.0390(4) 0.5597(7)
O8 O 0.6901(6) 0.0174(4) 0.7824(8)
O9 O 0.6083(5) -0.0293(5) 0.8018(8)
O10 O 0.6387(7) 0.1246(5) 0.7010(11)
Zn1 Zn 0.72336(9) 0.07091(7) 0.71225(13)
Zn2 Zn 0.68103(9) 0.04035(8) 0.46078(13)
C1F C 0.7729(10) 0.3556(7) 0.4635(17)
C2F C 0.7613(10) 0.3010(7) 0.4819(16)
C3F C 0.7860(11) 0.2821(9) 0.5908(15)
H1F H 0.8110 0.3051 0.6544
C4F C 0.7239(12) 0.2664(9) 0.3912(15)
C5A C 1.1658(8) 0.0184(6) 0.8468(15)
C6A C 1.0800(8) 0.0129(6) 0.8007(14)
C7A C 1.0270(10) 0.0119(6) 0.6810(13)
H2A H 1.0468 0.0104 0.6334
C8A C 1.0511(9) 0.0129(6) 0.8688(12)
C9D C 0.3745(9) 0.0036(7) 0.2577(13)
C10D C 0.4383(8) 0.0000(6) 0.3847(12)
C11D C 0.4249(9) -0.0205(6) 0.4682(13)
C12D C 0.5116(9) 0.0207(6) 0.4200(12)
H3D H 0.5176 0.0356 0.3631
C13A C 1.2008(10) 0.1010(7) 1.5383(15)
H4A H 1.2522 0.0968 1.5554
C14A C 1.1396(12) 0.1093(7) 1.4253(14)
H5A H 1.1477 0.1105 1.3646
C15A C 1.0662(11) 0.1158(7) 1.4055(17)
C16A C 1.0530(10) 0.1163(7) 1.4921(17)
H6A H 1.0030 0.1222 1.4789
C17A C 1.1165(13) 0.1077(7) 1.5955(15)
H7A H 1.1090 0.1081 1.6569
N1A N 1.1893(7) 0.0986(5) 1.6254(10)
N2A N 0.9932(10) 0.1181(6) 1.2846(14)
O1F O 0.7485(7) 0.3703(4) 0.3652(10)
O1A O 1.2485(7) 0.1297(4) 1.8652(10)
O2F O 0.8060(7) 0.3841(5) 0.5481(10)
O3F O 0.6959(10) 0.2805(6) 0.2800(11)
H8F H 0.7052 0.3119 0.2781
O4A O 1.1877(5) 0.0242(4) 0.7824(9)
O4A_2 O 1.1877(5) 0.0242(4) 1.7824(9)
O5A O 1.2115(6) 0.0184(4) 0.9584(9)
O5F O 0.7115(6) 0.4816(4) 0.4584(9)
O6A O 1.0970(5) 0.0125(4) 0.9853(8)
H9A H 1.1442 0.0133 1.0071
O7D O 0.3562(5) -0.0390(4) 0.4403(7)
O7A O 1.3562(5) 0.0390(4) 1.9403(7)
O7F O 0.8562(5) 0.4610(4) 0.4403(7)
O8D O 0.3099(6) -0.0174(4) 0.2176(8)
O8A O 1.3099(6) 0.0174(4) 1.7176(8)
O9D O 0.3917(5) 0.0293(5) 0.1982(8)
O9E O 0.6083(5) 0.0293(5) 0.3018(8)
O9C O 0.8917(5) 0.4707(5) 0.6982(8)
O10A O 1.3613(7) 0.1246(5) 1.7990(11)
Zn1A Zn 1.27664(9) 0.07091(7) 1.78775(13)
Zn1F Zn 0.77664(9) 0.42909(7) 0.28775(13)
Zn1A_2 Zn 1.27664(9) 0.07091(7) 0.78775(13)
Zn1D Zn 0.27664(9) -0.07091(7) 0.28775(13)
Zn2F Zn 0.81897(9) 0.45965(8) 0.53922(13)
Zn2E Zn 0.68103(9) -0.04035(8) 0.96078(13)
Zn2A Zn 1.31897(9) 0.04035(8) 1.03922(13)
Zn2A_2 Zn 0.31897(9) 0.04035(8) 0.03922(13)
Zn2D Zn 0.31897(9) -0.04035(8) 0.53922(13)
O11 O 0.532(3) 0.1659(18) 0.456(4)
O12 O 0.821(4) -0.097(3) 0.816(5)
O13 O 0.5000 0.273(5) 0.2500
O14 O 0.5000 -0.136(2) 0.7500
O15 O 0.960(6) 0.248(3) 1.155(6)
loop_
_geom_bond_atom_site_label_1
_geom_bond_atom_site_label_2
_geom_bond_site_symmetry_1
_geom_bond_site_symmetry_2
C1 C2 1_555 1_555
C2 C3 1_555 1_555
C3 H1 1_555 1_555
C4 C2 1_555 1_555
C5 C6 1_555 1_555
C6 C7 1_555 1_555
C7 H2 1_555 1_555
C8 C6 1_555 1_555
C9 C10 1_555 1_555
C10 C11 1_555 1_555
C11 O7 1_555 1_555
C12 C10 1_555 1_555
H3 C12 1_555 1_555
C13 H4 1_555 1_555
C14 C13 1_555 1_555
H5 C14 1_555 1_555
C15 C14 1_555 1_555
C16 C15 1_555 1_555
H6 C16 1_555 1_555
C17 C16 1_555 1_555
H7 C17 1_555 1_555
N1 C13 1_555 1_555
N2 C15 1_555 1_555
O1 C1 1_555 1_555
O2 C1 1_555 1_555
O3 C4 1_555 1_555
H8 O3 1_555 1_555
O4 C5 1_555 1_555
O5 C5 1_555 1_555
O6 C8 1_555 1_555
H9 O6 1_555 1_555
O7 Zn1 1_555 1_555
O8 C9 1_555 1_555
O9 C9 1_555 1_555
O10 Zn1 1_555 1_555
Zn1 N1 1_555 1_555
Zn2 O2 1_555 1_555
C1F C2F 1_555 1_555
C2F C3F 1_555 1_555
C3F C4 1_555 1_555
H1F C3F 1_555 1_555
C4F C3 1_555 1_555
C5A C6A 1_555 1_555
C6A C7A 1_555 1_555
C7A C8 1_555 1_555
H2A C7A 1_555 1_555
C8A C7 1_555 1_555
C9D C10D 1_555 1_555
C10D C11D 1_555 1_555
C11D C12 1_555 1_555
C12D C11 1_555 1_555
H3D C12D 1_555 1_555
C13A H4A 1_555 1_555
C14A C13A 1_555 1_555
H5A C14A 1_555 1_555
C15A C14A 1_555 1_555
C16A C15A 1_555 1_555
H6A C16A 1_555 1_555
C17A C16A 1_555 1_555
H7A C17A 1_555 1_555
N1A C13A 1_555 1_555
N2A N2 1_555 1_555
O1F C1F 1_555 1_555
O1A Zn1A 1_555 1_555
O2F C1F 1_555 1_555
O3F C4F 1_555 1_555
H8F O3F 1_555 1_555
O4A C5A 1_555 1_555
O4A_2 Zn1A 1_555 1_555
O5A C5A 1_555 1_555
O5F Zn2F 1_555 1_555
O6A C8A 1_555 1_555
H9A O6A 1_555 1_555
O7D C11D 1_555 1_555
O7A Zn1A 1_555 1_555
O7F Zn1F 1_555 1_555
O8D C9D 1_555 1_555
O8A Zn1A 1_555 1_555
O9D C9D 1_555 1_555
O9E Zn2 1_555 1_555
O9C Zn2F 1_555 1_555
O10A Zn1A 1_555 1_555
Zn1A N1A 1_555 1_555
Zn1F O1F 1_555 1_555
Zn1A_2 O4A 1_555 1_555
Zn1D O7D 1_555 1_555
Zn2F O2F 1_555 1_555
Zn2E O9 1_555 1_555
Zn2A O5A 1_555 1_555
Zn2A_2 O9D 1_555 1_555
Zn2D O7D 1_555 1_555
C17 N1 1_555 1_555
O1 Zn1 1_555 1_555
O4 Zn1 1_555 1_555
O5 Zn2 1_555 1_555
O7 Zn2 1_555 1_555
O8 Zn1 1_555 1_555
C2F C4F 1_555 1_555
C6A C8A 1_555 1_555
C10D C12D 1_555 1_555
C15A N2A 1_555 1_555
C17A N1A 1_555 1_555
O7F Zn2F 1_555 1_555
O8D Zn1D 1_555 1_555

#END
