
#######################################################################
#
#                 Cambridge Crystallographic Data Centre
#                                CCDC 
#
#######################################################################
#
# If this CIF has been generated from an entry in the Cambridge 
# Structural Database, then it will include bibliographic, chemical, 
# crystal, experimental, refinement or atomic coordinate data resulting 
# from the CCDC's data processing and validation procedures.
#
#######################################################################

data_PILJAX
_chemical_formula_moiety         '(C62 H50 Cd3 K2 N2 O24)n,2n(H2 O1)'
_chemical_name_systematic        
"catena-[bis(\m~6~-4,4'-Oxydibenzoato)-bis(\m~5~-4,4'-oxydibenzoato)-diaqua-bis(N,N-dimethylformamide-O)-tri-cadmium-di-potassium dihydrate]"
_symmetry_cell_setting           triclinic
_symmetry_space_group_name_H-M   'P -1'
_symmetry_Int_Tables_number      2
_space_group_name_Hall           '-P 1'
loop_
_symmetry_equiv_pos_site_id
_symmetry_equiv_pos_as_xyz
1 x,y,z
2 -x,-y,-z
_cell_length_a                   12.4009(3)
_cell_length_b                   12.5958(2)
_cell_length_c                   14.5577(4)
_cell_angle_alpha                77.831(9)
_cell_angle_beta                 82.597(10)
_cell_angle_gamma                72.818(7)
_cell_volume                     2118.2
_exptl_crystal_colour            white
_exptl_crystal_description       prism
_cell_formula_units_Z            1
loop_
_atom_site_label
_atom_site_type_symbol
_atom_site_fract_x
_atom_site_fract_y
_atom_site_fract_z
Cd1 Cd 0.0000 0.0000 0.5000
Cd2 Cd -0.07943(2) 0.303489(19) 0.423796(18)
K1 K -0.13103(8) 0.50600(8) 0.62236(8)
O1 O -0.1079(3) 0.2988(2) 0.58343(19)
O2 O -0.1431(2) 0.1542(2) 0.54350(17)
O3 O 0.0996(2) 0.1333(2) 0.4630(2)
O4 O 0.1035(2) 0.2899(2) 0.3634(2)
O5 O -0.2475(15) 0.0350(15) 0.9820(15)
O6 O -0.1233(3) 0.2273(2) 1.3150(2)
O7 O -0.0615(3) 0.0405(2) 1.3585(2)
O8 O 0.6067(3) -0.0007(2) 0.2877(3)
O9 O 0.9135(2) -0.4984(2) 0.4218(2)
O10 O 0.7796(3) -0.5383(2) 0.3643(3)
C1 C -0.1377(3) 0.2088(3) 0.6064(3)
C2 C -0.1722(4) 0.1710(3) 0.7065(3)
C3 C -0.2259(5) 0.0869(4) 0.7309(3)
H1 H -0.2419 0.0540 0.6830
C4 C -0.2568(5) 0.0499(5) 0.8231(3)
H2 H -0.2928 -0.0091 0.8392
C5 C -0.2349(5) 0.0997(5) 0.8934(3)
C6 C -0.1783(5) 0.1813(4) 0.8703(3)
H3 H -0.1587 0.2120 0.9180
C7 C -0.1503(4) 0.2185(4) 0.7762(3)
H4 H -0.1152 0.2781 0.7596
C8 C -0.2269(5) 0.0800(5) 1.0594(3)
C9 C -0.2749(5) 0.1770(5) 1.0922(4)
H5 H -0.3360 0.2328 1.0619
C10 C -0.2341(5) 0.1948(5) 1.1707(3)
H6 H -0.2661 0.2639 1.1930
C11 C -0.1478(4) 0.1129(4) 1.2161(3)
C12 C -0.1026(5) 0.0153(5) 1.1823(3)
H7 H -0.0435 -0.0426 1.2133
C13 C -0.1428(5) -0.0001(5) 1.1018(4)
H8 H -0.1100 -0.0678 1.0775
C14 C -0.1072(3) 0.1283(3) 1.3036(3)
C15 C 0.1509(3) 0.1900(3) 0.4014(3)
C16 C 0.2721(3) 0.1399(3) 0.3732(3)
C17 C 0.3339(3) 0.0402(3) 0.4251(3)
H9 H 0.2989 0.0050 0.4802
C18 C 0.4455(4) -0.0091(3) 0.3983(3)
H10 H 0.4873 -0.0771 0.4350
C19 C 0.4949(3) 0.0414(3) 0.3180(3)
C20 C 0.4358(4) 0.1419(3) 0.2656(4)
H11 H 0.4712 0.1770 0.2106
C21 C 0.3248(4) 0.1908(3) 0.2940(4)
H12 H 0.2841 0.2604 0.2587
C22 C 0.6582(4) -0.1172(3) 0.3116(4)
C23 C 0.6108(4) -0.1940(4) 0.2902(4)
H13 H 0.5409 -0.1692 0.2616
C24 C 0.6663(4) -0.3079(4) 0.3109(4)
H14 H 0.6346 -0.3616 0.2958
C25 C 0.7679(3) -0.3444(3) 0.3538(3)
C26 C 0.8132(3) -0.2652(3) 0.3736(3)
H15 H 0.8830 -0.2892 0.4025
C27 C 0.7586(3) -0.1506(3) 0.3521(3)
H16 H 0.7909 -0.0963 0.3654
C28 C 0.8237(3) -0.4683(3) 0.3807(3)
O11 O -0.3335(10) 0.5891(13) 0.5848(11)
O12 O -0.0621(14) 0.4522(13) 0.8065(8)
N1 N -0.5209(10) 0.6625(11) 0.6087(10)
C29 C -0.4254(13) 0.6657(15) 0.5695(13)
H17 H -0.4216 0.7313 0.5243
C30 C -0.5353(17) 0.5926(17) 0.7037(12)
H18 H -0.4617 0.5419 0.7222
H19 H -0.5870 0.5477 0.7012
H20 H -0.5667 0.6422 0.7498
C31 C -0.6177(18) 0.735(2) 0.5641(17)
H21 H -0.6343 0.8103 0.5810
H22 H -0.6825 0.7046 0.5849
H23 H -0.6032 0.7420 0.4957
Cd2A Cd 0.07943(2) -0.303489(19) 0.576204(18)
K1A K 0.13103(8) -0.50600(8) 0.37764(8)
O1A O 0.1079(3) -0.2988(2) 0.41657(19)
O2A O 0.1431(2) -0.1542(2) 0.45650(17)
O3A O -0.0996(2) -0.1333(2) 0.5370(2)
O4A O -0.1035(2) -0.2899(2) 0.6366(2)
O5A O 0.2475(15) -0.0350(15) 0.0180(15)
O6A O 0.1233(3) -0.2273(2) -0.3150(2)
O7A O 0.0615(3) -0.0405(2) -0.3585(2)
O8A O -0.6067(3) 0.0007(2) 0.7123(3)
O9A O -0.9135(2) 0.4984(2) 0.5782(2)
O10A O -0.7796(3) 0.5383(2) 0.6357(3)
C1A C 0.1377(3) -0.2088(3) 0.3936(3)
C2A C 0.1722(4) -0.1710(3) 0.2935(3)
C3A C 0.2259(5) -0.0869(4) 0.2691(3)
H1A H 0.2419 -0.0540 0.3170
C4A C 0.2568(5) -0.0499(5) 0.1769(3)
H2A H 0.2928 0.0091 0.1608
C5A C 0.2349(5) -0.0997(5) 0.1066(3)
C6A C 0.1783(5) -0.1813(4) 0.1297(3)
H3A H 0.1587 -0.2120 0.0820
C7A C 0.1503(4) -0.2185(4) 0.2238(3)
H4A H 0.1152 -0.2781 0.2404
C8A C 0.2269(5) -0.0800(5) -0.0594(3)
C9A C 0.2749(5) -0.1770(5) -0.0922(4)
H5A H 0.3360 -0.2328 -0.0619
C10A C 0.2341(5) -0.1948(5) -0.1707(3)
H6A H 0.2661 -0.2639 -0.1930
C11A C 0.1478(4) -0.1129(4) -0.2161(3)
C12A C 0.1026(5) -0.0153(5) -0.1823(3)
H7A H 0.0435 0.0426 -0.2133
C13A C 0.1428(5) 0.0001(5) -0.1018(4)
H8A H 0.1100 0.0678 -0.0775
C14A C 0.1072(3) -0.1283(3) -0.3036(3)
C15A C -0.1509(3) -0.1900(3) 0.5986(3)
C16A C -0.2721(3) -0.1399(3) 0.6268(3)
C17A C -0.3339(3) -0.0402(3) 0.5749(3)
H9A H -0.2989 -0.0050 0.5198
C18A C -0.4455(4) 0.0091(3) 0.6017(3)
H10A H -0.4873 0.0771 0.5650
C19A C -0.4949(3) -0.0414(3) 0.6820(3)
C20A C -0.4358(4) -0.1419(3) 0.7344(4)
H11A H -0.4712 -0.1770 0.7894
C21A C -0.3248(4) -0.1908(3) 0.7060(4)
H12A H -0.2841 -0.2604 0.7413
C22A C -0.6582(4) 0.1172(3) 0.6884(4)
C23A C -0.6108(4) 0.1940(4) 0.7098(4)
H13A H -0.5409 0.1692 0.7384
C24A C -0.6663(4) 0.3079(4) 0.6891(4)
H14A H -0.6346 0.3616 0.7042
C25A C -0.7679(3) 0.3444(3) 0.6462(3)
C26A C -0.8132(3) 0.2652(3) 0.6264(3)
H15A H -0.8830 0.2892 0.5975
C27A C -0.7586(3) 0.1506(3) 0.6479(3)
H16A H -0.7909 0.0963 0.6346
C28A C -0.8237(3) 0.4683(3) 0.6193(3)
O11A O 0.3335(10) -0.5891(13) 0.4152(11)
O12A O 0.0621(14) -0.4522(13) 0.1935(8)
N1A N 0.5209(10) -0.6625(11) 0.3913(10)
C29A C 0.4254(13) -0.6657(15) 0.4305(13)
H17A H 0.4216 -0.7313 0.4757
C30A C 0.5353(17) -0.5926(17) 0.2963(12)
H18A H 0.4617 -0.5419 0.2778
H19A H 0.5870 -0.5477 0.2988
H20A H 0.5667 -0.6422 0.2502
C31A C 0.6177(18) -0.735(2) 0.4359(17)
H21A H 0.6343 -0.8103 0.4190
H22A H 0.6825 -0.7046 0.4151
H23A H 0.6032 -0.7420 0.5043
Cd1_2 Cd 0.0000 0.0000 -0.5000
Cd1_3 Cd 0.0000 0.0000 1.5000
Cd2_2 Cd -0.07943(2) 0.303489(19) 1.423796(18)
Cd2_3 Cd 0.92057(2) -0.696511(19) 0.423796(18)
Cd2A_2 Cd -0.92057(2) 0.696511(19) 0.576204(18)
Cd2A_3 Cd 0.07943(2) -0.303489(19) -0.423796(18)
K1_2 K -1.13103(8) 0.50600(8) 0.62236(8)
K1_3 K -0.13103(8) -0.49400(8) 0.62236(8)
K1_4 K 0.86897(8) -0.49400(8) 0.62236(8)
K1A_2 K -0.86897(8) 0.49400(8) 0.37764(8)
K1A_3 K 0.13103(8) 0.49400(8) 0.37764(8)
K1A_4 K 1.13103(8) -0.50600(8) 0.37764(8)
O4_2 O 0.1035(2) -0.7101(2) 0.3634(2)
O4A_2 O -0.1035(2) 0.7101(2) 0.6366(2)
O6_2 O -0.1233(3) 0.2273(2) 0.3150(2)
O6A_2 O 0.1233(3) -0.2273(2) 0.6850(2)
O7_2 O -0.0615(3) 0.0405(2) 0.3585(2)
O7A_2 O 0.0615(3) -0.0405(2) 0.6415(2)
O9_2 O -0.0865(2) -0.4984(2) 0.4218(2)
O9_3 O -0.0865(2) 0.5016(2) 0.4218(2)
O9A_2 O 0.0865(2) -0.5016(2) 0.5782(2)
O9A_3 O 0.0865(2) 0.4984(2) 0.5782(2)
O10_2 O -0.2204(3) 0.4617(2) 0.3643(3)
O10A_2 O 0.2204(3) -0.4617(2) 0.6357(3)
O13? O -0.2918(14) 0.0789(15) 0.9856(15)
O14? O -0.3570(15) 0.5610(17) 0.6193(12)
O15? O -0.199(2) 0.5004(14) 0.8136(9)
N2? N -0.5202(8) 0.6431(10) 0.5437(9)
C32? C -0.4184(15) 0.5865(19) 0.5484(16)
H24? H -0.3821 0.5591 0.4930
C33? C -0.600(2) 0.723(2) 0.6027(17)
H25? H -0.6342 0.7947 0.5619
H26? H -0.5587 0.7363 0.6498
H27? H -0.6603 0.6892 0.6345
C34? C -0.5875(17) 0.6549(18) 0.4694(13)
H28? H -0.5728 0.7139 0.4177
H29? H -0.6676 0.6760 0.4918
H30? H -0.5690 0.5831 0.4469
loop_
_geom_bond_atom_site_label_1
_geom_bond_atom_site_label_2
_geom_bond_site_symmetry_1
_geom_bond_site_symmetry_2
Cd1 O2 1_555 1_555
Cd2 O1 1_555 1_555
K1 O1 1_555 1_555
O1 C1 1_555 1_555
O2 Cd2 1_555 1_555
O3 Cd1 1_555 1_555
O4 Cd2 1_555 1_555
O5 C5 1_555 1_555
O6 C14 1_555 1_555
O7 C14 1_555 1_555
O8 C19 1_555 1_555
O9 C28 1_555 1_555
O10 C28 1_555 1_555
C1 O2 1_555 1_555
C2 C1 1_555 1_555
C3 C2 1_555 1_555
H1 C3 1_555 1_555
C4 C3 1_555 1_555
H2 C4 1_555 1_555
C5 C4 1_555 1_555
C6 C5 1_555 1_555
H3 C6 1_555 1_555
C7 C2 1_555 1_555
H4 C7 1_555 1_555
C8 O5 1_555 1_555
C9 C8 1_555 1_555
H5 C9 1_555 1_555
C10 C9 1_555 1_555
H6 C10 1_555 1_555
C11 C10 1_555 1_555
C12 C11 1_555 1_555
H7 C12 1_555 1_555
C13 C8 1_555 1_555
H8 C13 1_555 1_555
C14 C11 1_555 1_555
C15 O3 1_555 1_555
C16 C15 1_555 1_555
C17 C16 1_555 1_555
H9 C17 1_555 1_555
C18 C17 1_555 1_555
H10 C18 1_555 1_555
C19 C18 1_555 1_555
C20 C19 1_555 1_555
H11 C20 1_555 1_555
C21 C16 1_555 1_555
H12 C21 1_555 1_555
C22 O8 1_555 1_555
C23 C22 1_555 1_555
H13 C23 1_555 1_555
C24 C23 1_555 1_555
H14 C24 1_555 1_555
C25 C24 1_555 1_555
C26 C25 1_555 1_555
H15 C26 1_555 1_555
C27 C22 1_555 1_555
H16 C27 1_555 1_555
C28 C25 1_555 1_555
O11 K1 1_555 1_555
O12 K1 1_555 1_555
N1 C29 1_555 1_555
C29 O11 1_555 1_555
H17 C29 1_555 1_555
C30 N1 1_555 1_555
H18 C30 1_555 1_555
H19 C30 1_555 1_555
H20 C30 1_555 1_555
C31 N1 1_555 1_555
H21 C31 1_555 1_555
H22 C31 1_555 1_555
H23 C31 1_555 1_555
Cd2A O1A 1_555 1_555
K1A O1A 1_555 1_555
O1A C1A 1_555 1_555
O2A Cd1 1_555 1_555
O3A Cd1 1_555 1_555
O4A Cd2A 1_555 1_555
O5A C5A 1_555 1_555
O6A C14A 1_555 1_555
O7A C14A 1_555 1_555
O8A C19A 1_555 1_555
O9A C28A 1_555 1_555
O10A C28A 1_555 1_555
C1A O2A 1_555 1_555
C2A C1A 1_555 1_555
C3A C2A 1_555 1_555
H1A C3A 1_555 1_555
C4A C3A 1_555 1_555
H2A C4A 1_555 1_555
C5A C4A 1_555 1_555
C6A C5A 1_555 1_555
H3A C6A 1_555 1_555
C7A C2A 1_555 1_555
H4A C7A 1_555 1_555
C8A O5A 1_555 1_555
C9A C8A 1_555 1_555
H5A C9A 1_555 1_555
C10A C9A 1_555 1_555
H6A C10A 1_555 1_555
C11A C10A 1_555 1_555
C12A C11A 1_555 1_555
H7A C12A 1_555 1_555
C13A C8A 1_555 1_555
H8A C13A 1_555 1_555
C14A C11A 1_555 1_555
C15A O3A 1_555 1_555
C16A C15A 1_555 1_555
C17A C16A 1_555 1_555
H9A C17A 1_555 1_555
C18A C17A 1_555 1_555
H10A C18A 1_555 1_555
C19A C18A 1_555 1_555
C20A C19A 1_555 1_555
H11A C20A 1_555 1_555
C21A C16A 1_555 1_555
H12A C21A 1_555 1_555
C22A O8A 1_555 1_555
C23A C22A 1_555 1_555
H13A C23A 1_555 1_555
C24A C23A 1_555 1_555
H14A C24A 1_555 1_555
C25A C24A 1_555 1_555
C26A C25A 1_555 1_555
H15A C26A 1_555 1_555
C27A C22A 1_555 1_555
H16A C27A 1_555 1_555
C28A C25A 1_555 1_555
O11A K1A 1_555 1_555
O12A K1A 1_555 1_555
N1A C29A 1_555 1_555
C29A O11A 1_555 1_555
H17A C29A 1_555 1_555
C30A N1A 1_555 1_555
H18A C30A 1_555 1_555
H19A C30A 1_555 1_555
H20A C30A 1_555 1_555
C31A N1A 1_555 1_555
H21A C31A 1_555 1_555
H22A C31A 1_555 1_555
H23A C31A 1_555 1_555
Cd1_2 O7A 1_555 1_555
Cd1_3 O7 1_555 1_555
Cd2_2 O6 1_555 1_555
Cd2_3 O9 1_555 1_555
Cd2A_2 O9A 1_555 1_555
Cd2A_3 O6A 1_555 1_555
K1_2 O9A 1_555 1_555
K1_3 O4A 1_555 1_555
K1_4 O9 1_555 1_555
K1A_2 O9A 1_555 1_555
K1A_3 O4 1_555 1_555
K1A_4 O9 1_555 1_555
O4_2 K1A 1_555 1_555
O4A_2 K1 1_555 1_555
O6_2 Cd2 1_555 1_555
O6A_2 Cd2A 1_555 1_555
O7_2 Cd1 1_555 1_555
O7A_2 Cd1 1_555 1_555
O9_2 K1A 1_555 1_555
O9_3 Cd2 1_555 1_555
O9A_2 Cd2A 1_555 1_555
O9A_3 K1 1_555 1_555
O10_2 Cd2 1_555 1_555
O10A_2 Cd2A 1_555 1_555
Cd2 O3 1_555 1_555
K1 O9_3 1_555 1_555
O4 C15 1_555 1_555
O10 Cd2_3 1_555 1_555
C6 C7 1_555 1_555
C12 C13 1_555 1_555
C20 C21 1_555 1_555
C26 C27 1_555 1_555
Cd2A O2A 1_555 1_555
Cd2A O3A 1_555 1_555
K1A O9A_2 1_555 1_555
O4A C15A 1_555 1_555
O10A Cd2A_2 1_555 1_555
C6A C7A 1_555 1_555
C12A C13A 1_555 1_555
C20A C21A 1_555 1_555
C26A C27A 1_555 1_555
K1_3 O9_2 1_555 1_555
K1_3 O9A_2 1_555 1_555
K1A_3 O9_3 1_555 1_555
K1A_3 O9A_3 1_555 1_555

#END
