
#######################################################################
#
#                 Cambridge Crystallographic Data Centre
#                                CCDC 
#
#######################################################################
#
# If this CIF has been generated from an entry in the Cambridge 
# Structural Database, then it will include bibliographic, chemical, 
# crystal, experimental, refinement or atomic coordinate data resulting 
# from the CCDC's data processing and validation procedures.
#
#######################################################################

data_WAJHOG
_chemical_formula_moiety         '(C9 H5 Li1 O7 Zn1)n,n(C2 H6 O1)'
_chemical_name_systematic        
'catena-((\m~7~-Benzene-1,3,5-tricarboxylato)-aqua-lithium-zinc ethanol clathrate)'
_symmetry_cell_setting           tetragonal
_symmetry_space_group_name_H-M   'P 41 21 2'
_symmetry_Int_Tables_number      92
_space_group_name_Hall           'P 4abw 2nw'
loop_
_symmetry_equiv_pos_site_id
_symmetry_equiv_pos_as_xyz
1 x,y,z
2 -x,-y,1/2+z
3 1/2-y,1/2+x,1/4+z
4 1/2+y,1/2-x,3/4+z
5 1/2-x,1/2+y,1/4-z
6 1/2+x,1/2-y,3/4-z
7 y,x,-z
8 -y,-x,1/2-z
_cell_length_a                   16.6332(9)
_cell_length_b                   16.6332(9)
_cell_length_c                   10.7833(11)
_cell_angle_alpha                90
_cell_angle_beta                 90
_cell_angle_gamma                90
_cell_volume                     2983.34
_exptl_crystal_colour            colorless
_exptl_crystal_description       block
_cell_formula_units_Z            8
loop_
_atom_site_label
_atom_site_type_symbol
_atom_site_fract_x
_atom_site_fract_y
_atom_site_fract_z
_atom_site_U_iso_or_equiv
_atom_site_thermal_displace_type
Li1 Li 0.2558(6) 0.5676(6) 0.9393(8) 0.0470 Uani
Zn1 Zn 0.15210(3) 0.41480(3) 0.85041(5) 0.0260 Uani
O1 O 0.17430(19) 0.48898(19) 1.0002(3) 0.0275 Uani
O2 O 0.1139(2) 0.5459(2) 1.1619(3) 0.0370 Uani
O3 O 0.3454(2) 0.2500(2) 1.1401(3) 0.0421 Uani
O4 O 0.2900(2) 0.1658(3) 1.2669(4) 0.0643 Uani
O5 O 0.0515(2) 0.2482(3) 1.5141(3) 0.0450 Uani
O6 O -0.0117(2) 0.3631(2) 1.4640(3) 0.0463 Uani
O7 O 0.3590(3) 0.5498(4) 1.0085(7) 0.1243 Uani
C1 C 0.1448(3) 0.4864(3) 1.1080(4) 0.0280 Uani
C2 C 0.2879(3) 0.2310(3) 1.2123(5) 0.0373 Uani
C3 C 0.0440(3) 0.3100(3) 1.4495(4) 0.0357 Uani
C4 C 0.1508(3) 0.4109(3) 1.1809(4) 0.0283 Uani
C5 C 0.2130(3) 0.3562(3) 1.1604(4) 0.0320 Uani
H1 H 0.2501 0.3659 1.0978 0.0380 Uiso
C6 C 0.2200(3) 0.2870(3) 1.2332(4) 0.0337 Uani
C7 C 0.1642(3) 0.2738(3) 1.3249(4) 0.0377 Uani
H2 H 0.1688 0.2279 1.3735 0.0450 Uiso
C8 C 0.1023(3) 0.3259(3) 1.3471(4) 0.0357 Uani
C9 C 0.0959(3) 0.3961(3) 1.2763(4) 0.0333 Uani
H3 H 0.0552 0.4329 1.2928 0.0400 Uiso
Li1D Li 0.2442(6) 0.0676(6) 1.3107(8) 0.0470 Uani
Li1C Li 0.0676(6) 0.2442(6) 1.6893(8) 0.0470 Uani
Zn1B Zn 0.08520(3) 0.65210(3) 1.10041(5) 0.0260 Uani
Zn1F Zn 0.41480(3) 0.15210(3) 1.14959(5) 0.0260 Uani
Zn1C Zn -0.08520(3) 0.34790(3) 1.60041(5) 0.0260 Uani
O2C O 0.0459(2) 0.3861(2) 0.9119(3) 0.0370 Uani
O3F O 0.2500(2) 0.3454(2) 0.8599(3) 0.0421 Uani
O4D O 0.2100(2) 0.6658(3) 0.9831(4) 0.0643 Uani
O4F O 0.1658(3) 0.2900(2) 0.7331(4) 0.0643 Uani
O5B O 0.2518(3) 0.5515(2) 0.7641(3) 0.0450 Uani
O6B O 0.1369(2) 0.4883(2) 0.7140(3) 0.0463 Uani
loop_
_atom_site_aniso_label
_atom_site_aniso_U_11
_atom_site_aniso_U_22
_atom_site_aniso_U_33
_atom_site_aniso_U_23
_atom_site_aniso_U_13
_atom_site_aniso_U_12
Li1 0.046(5) 0.051(6) 0.044(5) -0.005(5) -0.005(4) -0.015(5)
Zn1 0.0251 0.0265 0.0264 0.0016 0.0006 0.0012
O1 0.036 0.0288 0.0176 0.0004 0.0031 -0.0038
O2 0.046 0.0289 0.0361 0.0072 0.0119 0.0148
O3 0.045 0.0374 0.044 0.0062 0.011 0.0188
O4 0.069 0.036 0.088 0.022 0.016 0.019
O5 0.071 0.034 0.03 0.0081 0.0129 -0.0055
O6 0.047 0.052 0.04 0.0113 0.0206 0.01
O7 0.067(4) 0.139(5) 0.167(6) 0.022(5) -0.040(4) 0.006(4)
C1 0.023 0.03 0.031 0.002 0 -0.001
C2 0.045 0.032 0.035 0.001 -0.005 0.012
C3 0.042 0.045 0.02 0 0.004 0.003
C4 0.031 0.028 0.026 0.01 0.005 0.007
C5 0.037 0.031 0.028 0.003 0.008 0.004
C6 0.042 0.034 0.025 0.001 0.005 0.01
C7 0.052 0.023 0.038 0.009 0 0.003
C8 0.04 0.035 0.032 0.005 0.012 0.004
C9 0.036 0.031 0.033 0.004 0.008 0.011
Li1D 0.046 0.051 0.044 0.005 -0.005 0.015
Li1C 0.051 0.046 0.044 0.005 -0.005 0.015
Zn1B 0.0265 0.0251 0.0264 0.0006 -0.0016 -0.0012
Zn1F 0.0265 0.0251 0.0264 -0.0006 -0.0016 0.0012
Zn1C 0.0265 0.0251 0.0264 -0.0006 0.0016 -0.0012
O2C 0.0289 0.046 0.0361 -0.0119 0.0072 -0.0148
O3F 0.0374 0.045 0.044 -0.011 -0.0062 0.0188
O4D 0.069 0.036 0.088 -0.022 0.016 -0.019
O4F 0.036 0.069 0.088 -0.016 -0.022 0.019
O5B 0.034(2) 0.071(3) 0.0300(18) 0.0129(19) -0.0081(18) 0.0055(19)
O6B 0.052(2) 0.047(2) 0.040(2) 0.0206(19) -0.0113(18) -0.010(2)
loop_
_geom_bond_atom_site_label_1
_geom_bond_atom_site_label_2
_geom_bond_site_symmetry_1
_geom_bond_site_symmetry_2
Li1 O1 1_555 1_555
Zn1 O1 1_555 1_555
O1 C1 1_555 1_555
O2 C1 1_555 1_555
O3 C2 1_555 1_555
O4 C2 1_555 1_555
O5 C3 1_555 1_555
O6 C3 1_555 1_555
O7 Li1 1_555 1_555
C1 C4 1_555 1_555
C2 C6 1_555 1_555
C3 C8 1_555 1_555
C4 C5 1_555 1_555
C5 H1 1_555 1_555
C6 C5 1_555 1_555
C7 C6 1_555 1_555
H2 C7 1_555 1_555
C8 C7 1_555 1_555
C9 C4 1_555 1_555
H3 C9 1_555 1_555
Li1D O4 1_555 1_555
Li1C O5 1_555 1_555
Zn1B O2 1_555 1_555
Zn1F O3 1_555 1_555
Zn1C O6 1_555 1_555
O2C Zn1 1_555 1_555
O3F Zn1 1_555 1_555
O4D Li1 1_555 1_555
O4F Zn1 1_555 1_555
O5B Li1 1_555 1_555
O6B Zn1 1_555 1_555
O4 Zn1F 1_555 1_555
C8 C9 1_555 1_555
Zn1B O4D 1_555 1_555

#END
