
#######################################################################
#
#                 Cambridge Crystallographic Data Centre
#                                CCDC 
#
#######################################################################
#
# If this CIF has been generated from an entry in the Cambridge 
# Structural Database, then it will include bibliographic, chemical, 
# crystal, experimental, refinement or atomic coordinate data resulting 
# from the CCDC's data processing and validation procedures.
#
#######################################################################

data_WAJHUM
_chemical_name_common            MCF-27
_chemical_formula_moiety         '(C9 H3 Li1 O6 Zn1)n'
_chemical_name_systematic        
catena-((\m~8~-Benzene-1,3,5-tricarboxylato)-lithium-zinc)
_symmetry_cell_setting           tetragonal
_symmetry_space_group_name_H-M   'P 41 21 2'
_symmetry_Int_Tables_number      92
_space_group_name_Hall           'P 4abw 2nw'
loop_
_symmetry_equiv_pos_site_id
_symmetry_equiv_pos_as_xyz
1 x,y,z
2 -x,-y,1/2+z
3 1/2-y,1/2+x,1/4+z
4 1/2+y,1/2-x,3/4+z
5 1/2-x,1/2+y,1/4-z
6 1/2+x,1/2-y,3/4-z
7 y,x,-z
8 -y,-x,1/2-z
_cell_length_a                   16.3463(10)
_cell_length_b                   16.3463(10)
_cell_length_c                   11.2519(13)
_cell_angle_alpha                90
_cell_angle_beta                 90
_cell_angle_gamma                90
_cell_volume                     3006.52
_exptl_crystal_colour            colorless
_exptl_crystal_description       block
_cell_formula_units_Z            8
_exptl_crystal_preparation       
'The compound undergoes spontaneous resolution to a racemic conglomerate'
loop_
_atom_site_label
_atom_site_type_symbol
_atom_site_fract_x
_atom_site_fract_y
_atom_site_fract_z
_atom_site_U_iso_or_equiv
_atom_site_thermal_displace_type
Li1 Li 0.1744(4) 0.5965(4) 0.8741(5) 0.0267 Uani
Zn1 Zn 0.08343(2) 0.67284(3) 0.08938(4) 0.0239 Uani
O1 O 0.00294(15) 0.68118(15) 0.2274(2) 0.0239 Uani
O2 O -0.05893(16) 0.61046(19) 0.3707(2) 0.0377 Uani
O3 O 0.25047(16) 0.82921(17) 0.4058(3) 0.0357 Uani
O4 O 0.31589(19) 0.77127(18) 0.5571(3) 0.0433 Uani
O5 O 0.19332(17) 0.51569(16) 0.7404(2) 0.0303 Uani
O6 O 0.1240(2) 0.43860(17) 0.6153(3) 0.0436 Uani
C1 C 0.0024(2) 0.6449(2) 0.3266(3) 0.0236 Uani
C2 C 0.2614(2) 0.7722(2) 0.4824(4) 0.0300 Uani
C3 C 0.1562(2) 0.5041(2) 0.6424(3) 0.0277 Uani
C4 C 0.0777(2) 0.6419(2) 0.4011(3) 0.0250 Uani
C5 C 0.1357(2) 0.7040(2) 0.3987(3) 0.0271 Uani
H1 H 0.1312 0.7460 0.3434 0.0330 Uiso
C6 C 0.2005(2) 0.7034(2) 0.4791(4) 0.0303 Uani
C7 C 0.2077(2) 0.6389(2) 0.5596(3) 0.0300 Uani
H2 H 0.2504 0.6385 0.6143 0.0360 Uiso
C8 C 0.1511(2) 0.5753(2) 0.5582(3) 0.0281 Uani
C9 C 0.0862(2) 0.5773(2) 0.4795(3) 0.0271 Uani
H3 H 0.0481 0.5351 0.4794 0.0320 Uiso
Li1B Li -0.0965(4) 0.6744(4) 0.1241(5) 0.0267 Uani
Li1G Li 0.4035(4) 0.8256(4) 0.6259(5) 0.0267 Uani
Li1C Li 0.0965(4) 0.3256(4) 0.6241(5) 0.0267 Uani
Zn1B Zn -0.17284(3) 0.58343(2) 0.33938(4) 0.0239 Uani
Zn1G Zn 0.32716(3) 0.91657(2) 0.41062(4) 0.0239 Uani
Zn1C Zn 0.17284(3) 0.41657(2) 0.83938(4) 0.0239 Uani
O1C O 0.18118(15) 0.49706(15) 0.9774(2) 0.0239 Uani
O2C O 0.11046(19) 0.55893(16) 0.1207(2) 0.0377 Uani
O3G O 0.17079(17) 0.74953(16) 0.0942(3) 0.0357 Uani
O4G O 0.22873(18) 0.68411(19) 0.9429(3) 0.0433 Uani
O5B O -0.01569(16) 0.69332(17) -0.0096(2) 0.0303 Uani
O6B O 0.06140(17) 0.6240(2) 0.8653(3) 0.0436 Uani
loop_
_atom_site_aniso_label
_atom_site_aniso_U_11
_atom_site_aniso_U_22
_atom_site_aniso_U_33
_atom_site_aniso_U_23
_atom_site_aniso_U_13
_atom_site_aniso_U_12
Li1 0.020(3) 0.021(3) 0.039(3) -0.002(2) -0.002(3) -0.001(2)
Zn1 0.0186(2) 0.0232(2) 0.0300(2) 0.00067(17) -0.00056(18) -0.00193(18)
O1 0.0214(12) 0.0237(13) 0.0265(13) 0.0006(11) -0.0001(10) 0.0009(11)
O2 0.0230(14) 0.0518(18) 0.0384(16) 0.0123(13) -0.0049(11) -0.0138(12)
O3 0.0323(14) 0.0275(14) 0.0472(15) 0.0069(14) -0.0071(13) -0.0136(12)
O4 0.0362(17) 0.0408(17) 0.0528(18) 0.0083(14) -0.0184(14) -0.0192(14)
O5 0.0367(16) 0.0288(14) 0.0254(13) 0.0026(11) 0.0018(11) 0.0053(12)
O6 0.0502(19) 0.0291(16) 0.0516(19) 0.0094(13) -0.0102(15) -0.0116(14)
C1 0.0237(18) 0.0213(18) 0.0259(19) -0.0030(15) -0.0019(15) 0.0006(14)
C2 0.026(2) 0.026(2) 0.038(2) 0.0026(16) 0.0000(17) -0.0060(16)
C3 0.026(2) 0.0273(19) 0.0299(19) 0.0057(16) -0.0003(15) 0.0024(15)
C4 0.0237(18) 0.0245(17) 0.0268(17) 0.0044(14) -0.0023(16) -0.0024(15)
C5 0.0256(19) 0.0262(19) 0.0296(19) 0.0081(16) -0.0021(16) -0.0042(15)
C6 0.029(2) 0.026(2) 0.036(2) 0.0024(16) -0.0029(17) -0.0057(16)
C7 0.030(2) 0.030(2) 0.030(2) 0.0073(15) -0.0071(15) -0.0023(16)
C8 0.031(2) 0.0253(19) 0.0281(18) 0.0062(15) -0.0017(14) 0.0001(16)
C9 0.0275(18) 0.0221(17) 0.0316(18) 0.0046(15) -0.0008(16) -0.0067(17)
Li1B 0.021 0.02 0.039 -0.002 0.002 0.001
Li1G 0.021 0.02 0.039 -0.002 -0.002 -0.001
Li1C 0.021 0.02 0.039 0.002 -0.002 0.001
Zn1B 0.0232 0.0186 0.03 -0.00056 -0.00067 0.00193
Zn1G 0.0232 0.0186 0.03 -0.00056 0.00067 -0.00193
Zn1C 0.0232 0.0186 0.03 0.00056 0.00067 0.00193
O1C 0.0237 0.0214 0.0265 0.0001 0.0006 -0.0009
O2C 0.0518 0.023 0.0384 0.0049 0.0123 0.0138
O3G 0.0275 0.0323 0.0472 -0.0071 0.0069 -0.0136
O4G 0.0408 0.0362 0.0528 -0.0184 0.0083 -0.0192
O5B 0.0288 0.0367 0.0254 0.0018 -0.0026 -0.0053
O6B 0.0291 0.0502 0.0516 -0.0102 -0.0094 0.0116
loop_
_geom_bond_atom_site_label_1
_geom_bond_atom_site_label_2
_geom_bond_site_symmetry_1
_geom_bond_site_symmetry_2
Li1 O5 1_555 1_555
Zn1 O1 1_555 1_555
O1 C1 1_555 1_555
O2 C1 1_555 1_555
O3 C2 1_555 1_555
O4 C2 1_555 1_555
O5 C3 1_555 1_555
O6 C3 1_555 1_555
C1 C4 1_555 1_555
C2 C6 1_555 1_555
C3 C8 1_555 1_555
C4 C5 1_555 1_555
C5 H1 1_555 1_555
C6 C5 1_555 1_555
C7 C6 1_555 1_555
H2 C7 1_555 1_555
C8 C7 1_555 1_555
C9 C4 1_555 1_555
H3 C9 1_555 1_555
Li1B O1 1_555 1_555
Li1G O4 1_555 1_555
Li1C O6 1_555 1_555
Zn1B O2 1_555 1_555
Zn1G O3 1_555 1_555
Zn1C O5 1_555 1_555
O1C Li1 1_555 1_555
O2C Zn1 1_555 1_555
O3G Zn1 1_555 1_555
O4G Li1 1_555 1_555
O5B Zn1 1_555 1_555
O6B Li1 1_555 1_555
C8 C9 1_555 1_555
Li1B O5B 1_555 1_555
Zn1C O1C 1_555 1_555

#END
