
#######################################################################
#
#                 Cambridge Crystallographic Data Centre
#                                CCDC 
#
#######################################################################
#
# If this CIF has been generated from an entry in the Cambridge 
# Structural Database, then it will include bibliographic, chemical, 
# crystal, experimental, refinement or atomic coordinate data resulting 
# from the CCDC's data processing and validation procedures.
#
#######################################################################

data_WAJHIA
_chemical_formula_moiety         '(C27 H20 Li2 N2 O14 Zn2)n,0.5n(C2 H6 O1)'
_chemical_name_systematic        
'catena-(bis(\m~7~-Benzene-1,3,5-tricarboxylato)-(\m~2~-2-(oxopyrrolidinyl)methylpyrrolidin-2-one-O,O)-di-lithium-di-zinc ethanol clathrate)'
_symmetry_cell_setting           tetragonal
_symmetry_space_group_name_H-M   'P 41 21 2'
_symmetry_Int_Tables_number      92
_space_group_name_Hall           'P 4abw 2nw'
loop_
_symmetry_equiv_pos_site_id
_symmetry_equiv_pos_as_xyz
1 x,y,z
2 -x,-y,1/2+z
3 1/2-y,1/2+x,1/4+z
4 1/2+y,1/2-x,3/4+z
5 1/2-x,1/2+y,1/4-z
6 1/2+x,1/2-y,3/4-z
7 y,x,-z
8 -y,-x,1/2-z
_cell_length_a                   16.592(2)
_cell_length_b                   16.592(2)
_cell_length_c                   10.856(3)
_cell_angle_alpha                90
_cell_angle_beta                 90
_cell_angle_gamma                90
_cell_volume                     2988.6
_exptl_crystal_colour            colorless
_exptl_crystal_description       block
_cell_formula_units_Z            4
loop_
_atom_site_label
_atom_site_type_symbol
_atom_site_fract_x
_atom_site_fract_y
_atom_site_fract_z
Zn1 Zn 0.08030(3) 0.65483(3) 0.09936(5)
Li1 Li -0.0752(6) 0.7535(7) 0.1855(8)
O1 O 0.00672(18) 0.67619(18) 0.2481(3)
O2 O -0.04891(18) 0.6149(2) 0.4104(3)
O3 O 0.2457(2) 0.85129(19) 0.3895(3)
O4 O 0.3290(2) 0.7980(3) 0.5216(4)
O5 O 0.2465(2) 0.5585(2) 0.7654(3)
O6 O 0.1337(2) 0.4930(2) 0.7137(3)
O7 O -0.0673(4) 0.8593(5) 0.2492(7)
C1 C 0.0095(2) 0.6473(3) 0.3566(4)
C2 C 0.2635(3) 0.7966(3) 0.4626(5)
C3 C 0.1847(3) 0.5506(3) 0.7006(4)
C4 C 0.0855(3) 0.6551(3) 0.4309(4)
C5 C 0.1385(3) 0.7182(3) 0.4087(4)
H1 H 0.1288 0.7547 0.3430
C6 C 0.2070(3) 0.7276(3) 0.4844(5)
C7 C 0.2202(3) 0.6731(3) 0.5786(5)
H2 H 0.2662 0.6792 0.6300
C8 C 0.1672(3) 0.6092(3) 0.5993(5)
C9 C 0.1000(2) 0.6001(2) 0.5272(4)
H3 H 0.0635 0.5570 0.5420
C10 C -0.1187(2) 0.9082(2) 0.3033(4)
C11 C -0.1436(2) 0.9862(2) 0.2482(4)
H4 H -0.1774 0.9782 0.1740
H5 H -0.0964 1.0200 0.2267
C12 C -0.1925 1.0231 0.3553
H6 H -0.1616 1.0669 0.3955
H7 H -0.2441 1.0453 0.3248
C13 C -0.2079 0.9537 0.4467
H8 H -0.1993 0.9719 0.5325
H9 H -0.2637 0.9333 0.4386
C14 C -0.1610 0.8390 0.5000
N1 N -0.1547 0.8966 0.4163
Zn1C Zn 0.15483(3) 0.41970(3) -0.15064(5)
Zn1B Zn -0.15483(3) 0.58030(3) 0.34936(5)
Zn1G Zn 0.34517(3) 0.91970(3) 0.40064(5)
Zn1C_2 Zn 0.15483(3) 0.41970(3) 0.84936(5)
Zn1D Zn 0.41970(3) 0.15483(3) 0.15064(5)
Zn1A Zn -0.08030(3) 0.34517(3) 0.59936(5)
Li1C Li 0.2535(7) 0.5752(6) -0.0645(8)
Li1E Li 0.4248(6) 0.7465(7) 0.5645(8)
Li1C_2 Li 0.2535(7) 0.5752(6) 0.9355(8)
Li1F Li -0.2465(7) 0.9248(6) 0.8145(8)
Li1G Li 0.2465(7) 0.0752(6) 0.3145(8)
Li1A Li 0.0752(6) 0.2465(7) 0.6855(8)
O1C O 0.17619(18) 0.49328(18) -0.0019(3)
O2C O 0.1149(2) 0.54891(18) 0.1604(3)
O2A O 0.04891(18) 0.3851(2) -0.0896(3)
O3C O 0.35129(19) 0.2543(2) 0.1395(3)
O3G O 0.14871(19) 0.7543(2) 0.1105(3)
O3D O 0.2543(2) 0.35129(19) -0.1395(3)
O4C O 0.2980(3) 0.1710(2) 0.2716(4)
O4G O 0.2020(3) 0.6710(2) -0.0216(4)
O4E O -0.1710(2) 0.7020(3) 0.2284(4)
O4D O 0.1710(2) 0.2980(3) -0.2716(4)
O5C O 0.0585(2) 0.2535(2) 0.5154(3)
O5B O -0.0585(2) 0.7465(2) 0.0154(3)
O5_2 O 0.2465(2) 0.5585(2) -0.2346(3)
O6C O -0.0070(2) 0.3663(2) 0.4637(3)
O6B O 0.0070(2) 0.6337(2) -0.0363(3)
O6_2 O 0.1337(2) 0.4930(2) -0.2863(3)
O7F O -0.1407(5) 0.9327(4) 0.7508(7)
O7C O 0.3593(5) 0.5673(4) -0.0008(7)
C1C C 0.1473(3) 0.4905(2) 0.1066(4)
C2C C 0.2966(3) 0.2365(3) 0.2126(5)
C3C C 0.0506(3) 0.3153(3) 0.4506(4)
C4C C 0.1551(3) 0.4145(3) 0.1809(4)
C5C C 0.2182(3) 0.3615(3) 0.1587(4)
H1C H 0.2547 0.3712 0.0930
C6C C 0.2276(3) 0.2930(3) 0.2344(5)
C7C C 0.1731(3) 0.2798(3) 0.3286(5)
H2C H 0.1792 0.2338 0.3800
C8C C 0.1092(3) 0.3328(3) 0.3493(5)
C9C C 0.1001(2) 0.4000(2) 0.2772(4)
H3C H 0.0570 0.4365 0.2920
C10F C -0.0918(2) 0.8813(2) 0.6967(4)
C11F C -0.0138(2) 0.8564(2) 0.7518(4)
H4F H -0.0218 0.8226 0.8260
H5F H 0.0200 0.9036 0.7733
C12F C 0.0231 0.8075 0.6447
H6F H 0.0669 0.8384 0.6045
H7F H 0.0453 0.7559 0.6752
C13F C -0.0463 0.7921 0.5533
H8F H -0.0281 0.8007 0.4675
H9F H -0.0667 0.7363 0.5614
N1F N -0.1034 0.8453 0.5837
O8? O 0.3593(4) 0.5673(5) 0.9992(7)
loop_
_geom_bond_atom_site_label_1
_geom_bond_atom_site_label_2
_geom_bond_site_symmetry_1
_geom_bond_site_symmetry_2
Zn1 O1 1_555 1_555
Li1 O1 1_555 1_555
O1 C1 1_555 1_555
O2 C1 1_555 1_555
O3 C2 1_555 1_555
O4 C2 1_555 1_555
O5 C3 1_555 1_555
O6 C3 1_555 1_555
O7 Li1 1_555 1_555
C1 C4 1_555 1_555
C2 C6 1_555 1_555
C3 C8 1_555 1_555
C4 C5 1_555 1_555
C5 H1 1_555 1_555
C6 C5 1_555 1_555
C7 C6 1_555 1_555
H2 C7 1_555 1_555
C8 C7 1_555 1_555
C9 C4 1_555 1_555
H3 C9 1_555 1_555
C10 O7 1_555 1_555
C11 C10 1_555 1_555
H4 C11 1_555 1_555
H5 C11 1_555 1_555
C12 C11 1_555 1_555
H6 C12 1_555 1_555
H7 C12 1_555 1_555
C13 C12 1_555 1_555
H8 C13 1_555 1_555
H9 C13 1_555 1_555
C14 N1 1_555 1_555
N1 C10 1_555 1_555
Zn1C O1C 1_555 1_555
Zn1B O2 1_555 1_555
Zn1G O3 1_555 1_555
Zn1C_2 O6 1_555 1_555
Zn1D O3C 1_555 1_555
Zn1A O6C 1_555 1_555
Li1C O1C 1_555 1_555
Li1E O4 1_555 1_555
Li1C_2 O5 1_555 1_555
Li1F O7F 1_555 1_555
Li1G O4C 1_555 1_555
Li1A O5C 1_555 1_555
O1C C1C 1_555 1_555
O2C Zn1 1_555 1_555
O2A Zn1C 1_555 1_555
O3C C2C 1_555 1_555
O3G Zn1 1_555 1_555
O3D Zn1C 1_555 1_555
O4C Zn1D 1_555 1_555
O4G Zn1 1_555 1_555
O4E Li1 1_555 1_555
O4D Zn1C 1_555 1_555
O5C C3C 1_555 1_555
O5B Li1 1_555 1_555
O5_2 Li1C 1_555 1_555
O6C C3C 1_555 1_555
O6B Zn1 1_555 1_555
O6_2 Zn1C 1_555 1_555
O7F C10F 1_555 1_555
O7C Li1C 1_555 1_555
C1C O2C 1_555 1_555
C2C O4C 1_555 1_555
C3C C8C 1_555 1_555
C4C C1C 1_555 1_555
C5C C4C 1_555 1_555
H1C C5C 1_555 1_555
C6C C2C 1_555 1_555
C7C C6C 1_555 1_555
H2C C7C 1_555 1_555
C8C C7C 1_555 1_555
C9C C4C 1_555 1_555
H3C C9C 1_555 1_555
C10F C11F 1_555 1_555
C11F H4F 1_555 1_555
H5F C11F 1_555 1_555
C12F C11F 1_555 1_555
H6F C12F 1_555 1_555
H7F C12F 1_555 1_555
C13F C12F 1_555 1_555
H8F C13F 1_555 1_555
H9F C13F 1_555 1_555
N1F C14 1_555 1_555
O4 Zn1G 1_555 1_555
C8 C9 1_555 1_555
C13 N1 1_555 1_555
Zn1B O4E 1_555 1_555
Li1C O4G 1_555 1_555
C5C C6C 1_555 1_555
C8C C9C 1_555 1_555
C10F N1F 1_555 1_555
C13F N1F 1_555 1_555

#END
