
#######################################################################
#
#                 Cambridge Crystallographic Data Centre
#                                CCDC 
#
#######################################################################
#
# If this CIF has been generated from an entry in the Cambridge 
# Structural Database, then it will include bibliographic, chemical, 
# crystal, experimental, refinement or atomic coordinate data resulting 
# from the CCDC's data processing and validation procedures.
#
#######################################################################

data_WAJJOI
_chemical_formula_moiety         '(C9 H3 Li1 O6 Zn1)n,n(C1 O2)'
_chemical_name_systematic        
'catena-((\m~8~-Benzene-1,3,5-tricarboxylato)-lithium-zinc carbon dioxide clathrate)'
_symmetry_cell_setting           tetragonal
_symmetry_space_group_name_H-M   'P 41 21 2'
_symmetry_Int_Tables_number      92
_space_group_name_Hall           'P 4abw 2nw'
loop_
_symmetry_equiv_pos_site_id
_symmetry_equiv_pos_as_xyz
1 x,y,z
2 -x,-y,1/2+z
3 1/2-y,1/2+x,1/4+z
4 1/2+y,1/2-x,3/4+z
5 1/2-x,1/2+y,1/4-z
6 1/2+x,1/2-y,3/4-z
7 y,x,-z
8 -y,-x,1/2-z
_cell_length_a                   16.3136(1)
_cell_length_b                   16.3136(1)
_cell_length_c                   11.3049(2)
_cell_angle_alpha                90
_cell_angle_beta                 90
_cell_angle_gamma                90
_cell_volume                     3008.61
_exptl_crystal_colour            colorless
_exptl_crystal_description       block
_cell_formula_units_Z            8
loop_
_atom_site_label
_atom_site_type_symbol
_atom_site_fract_x
_atom_site_fract_y
_atom_site_fract_z
_atom_site_U_iso_or_equiv
_atom_site_thermal_displace_type
Li1 Li 0.0962(7) 0.3246(7) 0.6231(11) 0.0177 Uani
Zn1 Zn 0.17293(5) 0.41666(5) -0.16115(8) 0.0140 Uani
O1 O 0.1805(3) 0.4970(3) -0.0235(4) 0.0157 Uani
O2 O 0.1079(3) 0.5578(3) 0.1182(5) 0.0257 Uani
O3 O 0.3291(3) 0.2491(3) 0.1558(5) 0.0237 Uani
O4 O 0.2686(3) 0.1817(3) 0.3033(5) 0.0293 Uani
O5 O 0.0156(3) 0.3065(3) 0.4905(4) 0.0163 Uani
O6 O -0.0627(3) 0.3751(3) 0.3665(5) 0.0260 Uani
C1 C 0.1429(4) 0.4974(4) 0.0753(7) 0.0187 Uani
C2 C 0.2708(4) 0.2379(4) 0.2317(6) 0.0170 Uani
C3 C 0.0036(4) 0.3429(4) 0.3924(7) 0.0197 Uani
C4 C 0.1402(4) 0.4213(4) 0.1494(6) 0.0137 Uani
C5 C 0.2017(4) 0.3635(4) 0.1464(6) 0.0160 Uani
H1 H 0.2433 0.3674 0.0904 0.0190 Uiso
C6 C 0.2016(4) 0.2991(5) 0.2275(7) 0.0193 Uani
C7 C 0.1384(5) 0.2913(4) 0.3087(6) 0.0187 Uani
H2 H 0.1385 0.2490 0.3638 0.0230 Uiso
C8 C 0.0740(4) 0.3486(4) 0.3062(6) 0.0147 Uani
C9 C 0.0755(5) 0.4124(4) 0.2288(6) 0.0180 Uani
H3 H 0.0330 0.4505 0.2289 0.0210 Uiso
O5B O 0.1935(3) 0.5156(3) -0.2595(4) 0.0163 Uani
O2C O 0.0578(3) 0.3921(3) -0.1318(5) 0.0257 Uani
O3F O 0.2491(3) 0.3291(3) -0.1558(5) 0.0237 Uani
Zn1B Zn 0.08334(5) 0.67293(5) 0.08885(8) 0.0140 Uani
Zn1F Zn 0.41666(5) 0.17293(5) 0.16115(8) 0.0140 Uani
Li1F Li 0.3246(7) 0.0962(7) 0.3769(11) 0.0177 Uani
Li1B Li 0.1754(7) 0.5962(7) -0.1269(11) 0.0177 Uani
Zn1C Zn -0.08334(5) 0.32707(5) 0.58885(8) 0.0140 Uani
Li1C Li -0.1754(7) 0.4038(7) 0.3731(11) 0.0177 Uani
O1C O -0.0030(3) 0.3195(3) 0.7265(4) 0.0157 Uani
O4F O 0.1817(3) 0.2686(3) 0.6967(5) 0.0293 Uani
O6B O 0.1249(3) 0.4373(3) 0.6165(5) 0.0260 Uani
loop_
_atom_site_aniso_label
_atom_site_aniso_U_11
_atom_site_aniso_U_22
_atom_site_aniso_U_33
_atom_site_aniso_U_23
_atom_site_aniso_U_13
_atom_site_aniso_U_12
Li1 0.016 0.015 0.022 -0.002 0.001 -0.002
Zn1 0.0138 0.0114 0.0168 -0.0003 0.0007 0.0013
O1 0.016 0.015 0.016 0 0.003 -0.0023
O2 0.032 0.016 0.029 0.002 0.009 0.01
O3 0.019 0.028 0.024 0.007 0.003 0.009
O4 0.026 0.027 0.035 0.014 0.01 0.013
O5 0.017 0.021 0.011 0 0.0032 -0.0017
O6 0.018 0.036 0.024 0.005 0.006 0.008
C1 0.009 0.02 0.027 0.003 0.001 0.002
C2 0.015 0.018 0.018 0 0.001 0.007
C3 0.017 0.013 0.029 0.003 0.004 0.001
C4 0.018 0.015 0.008 0.001 0.004 -0.001
C5 0.017 0.019 0.012 0.005 0.004 0.001
C6 0.018 0.018 0.022 -0.003 -0.003 0.009
C7 0.023 0.018 0.015 0.001 0.004 0.002
C8 0.015 0.019 0.01 0 0.004 0.002
C9 0.02 0.021 0.013 -0.004 -0.005 0.008
O5B 0.021 0.017 0.011 0.0032 0 0.0017
O2C 0.016 0.032 0.029 -0.009 0.002 -0.01
O3F 0.028 0.019 0.024 -0.003 -0.007 0.009
Zn1B 0.0114(5) 0.0138(5) 0.0168(6) 0.0007(4) 0.0003(4) -0.0013(3)
Zn1F 0.0114 0.0138 0.0168 -0.0007 0.0003 0.0013
Li1F 0.015 0.016 0.022 -0.001 0.002 -0.002
Li1B 0.015 0.016 0.022 0.001 0.002 0.002
Zn1C 0.0114 0.0138 0.0168 -0.0007 -0.0003 -0.0013
Li1C 0.015 0.016 0.022 -0.001 -0.002 0.002
O1C 0.015 0.016 0.016 -0.003 0 0.0023
O4F 0.027 0.026 0.035 -0.01 -0.014 0.013
O6B 0.036(3) 0.018(3) 0.024(3) 0.006(2) -0.005(2) -0.008(2)
loop_
_geom_bond_atom_site_label_1
_geom_bond_atom_site_label_2
_geom_bond_site_symmetry_1
_geom_bond_site_symmetry_2
Li1 O5 1_555 1_555
Zn1 O1 1_555 1_555
O1 C1 1_555 1_555
O2 C1 1_555 1_555
O3 C2 1_555 1_555
O4 C2 1_555 1_555
O5 C3 1_555 1_555
O6 C3 1_555 1_555
C1 C4 1_555 1_555
C2 C6 1_555 1_555
C3 C8 1_555 1_555
C4 C5 1_555 1_555
C5 H1 1_555 1_555
C6 C5 1_555 1_555
C7 C6 1_555 1_555
H2 C7 1_555 1_555
C8 C7 1_555 1_555
C9 C4 1_555 1_555
H3 C9 1_555 1_555
O5B Zn1 1_555 1_555
O2C Zn1 1_555 1_555
O3F Zn1 1_555 1_555
Zn1B O2 1_555 1_555
Zn1F O3 1_555 1_555
Li1F O4 1_555 1_555
Li1B O1 1_555 1_555
Zn1C O5 1_555 1_555
Li1C O6 1_555 1_555
O1C Li1 1_555 1_555
O4F Li1 1_555 1_555
O6B Li1 1_555 1_555
C8 C9 1_555 1_555
O5B Li1B 1_555 1_555
Zn1C O1C 1_555 1_555

#END
