
#######################################################################
#
#                 Cambridge Crystallographic Data Centre
#                                CCDC 
#
#######################################################################
#
# If this CIF has been generated from an entry in the Cambridge 
# Structural Database, then it will include bibliographic, chemical, 
# crystal, experimental, refinement or atomic coordinate data resulting 
# from the CCDC's data processing and validation procedures.
#
#######################################################################

data_WAJJOI01
_chemical_formula_moiety         '(C9 H3 Li1 O6 Zn1)n,n(C1 O2)'
_chemical_name_systematic        
'catena-((\m~8~-Benzene-1,3,5-tricarboxylato)-lithium-zinc carbon dioxide clathrate)'
_symmetry_cell_setting           tetragonal
_symmetry_space_group_name_H-M   'P 41 21 2'
_symmetry_Int_Tables_number      92
_space_group_name_Hall           'P 4abw 2nw'
loop_
_symmetry_equiv_pos_site_id
_symmetry_equiv_pos_as_xyz
1 x,y,z
2 -x,-y,1/2+z
3 1/2-y,1/2+x,1/4+z
4 1/2+y,1/2-x,3/4+z
5 1/2-x,1/2+y,1/4-z
6 1/2+x,1/2-y,3/4-z
7 y,x,-z
8 -y,-x,1/2-z
_cell_length_a                   16.31360(10)
_cell_length_b                   16.31360(10)
_cell_length_c                   11.3049(2)
_cell_angle_alpha                90
_cell_angle_beta                 90
_cell_angle_gamma                90
_cell_volume                     3008.61
_exptl_crystal_colour            colorless
_exptl_crystal_description       block
_cell_formula_units_Z            8
loop_
_atom_site_label
_atom_site_type_symbol
_atom_site_fract_x
_atom_site_fract_y
_atom_site_fract_z
_atom_site_U_iso_or_equiv
_atom_site_thermal_displace_type
Li1 Li 0.1756(4) 0.5967(4) 0.8741(7) 0.0187 Uani
Zn1 Zn 0.08333(3) 0.67293(3) 0.08885(4) 0.0129 Uani
O1 O 0.00281(15) 0.68046(16) 0.2269(2) 0.0171 Uani
O2 O -0.05774(18) 0.60761(19) 0.3682(3) 0.0256 Uani
O3 O 0.25087(18) 0.82935(19) 0.4060(3) 0.0252 Uani
O4 O 0.3180(2) 0.76889(19) 0.5533(3) 0.0308 Uani
O5 O 0.19342(17) 0.51544(17) 0.7402(2) 0.0189 Uani
O6 O 0.1244(2) 0.43746(18) 0.6162(3) 0.0263 Uani
C1 C 0.0026(3) 0.6428(2) 0.3250(4) 0.0188 Uani
C2 C 0.2621(2) 0.7713(2) 0.4819(4) 0.0190 Uani
C3 C 0.1568(2) 0.5038(2) 0.6419(4) 0.0191 Uani
C4 C 0.0786(2) 0.6399(2) 0.3989(4) 0.0151 Uani
C5 C 0.1363(2) 0.7016(3) 0.3964(4) 0.0181 Uani
H1 H 0.1321 0.7433 0.3408 0.0230 Uiso
C6 C 0.2007(2) 0.7014(3) 0.4771(4) 0.0197 Uani
C7 C 0.2090(3) 0.6381(3) 0.5588(4) 0.0207 Uani
H2 H 0.2515 0.6383 0.6138 0.0190 Uiso
C8 C 0.1516(2) 0.5740(2) 0.5561(4) 0.0160 Uani
C9 C 0.0878(3) 0.5761(3) 0.4785(3) 0.0173 Uani
H3 H 0.0497 0.5338 0.4790 0.0290 Uiso
Li1B Li -0.0967(4) 0.6756(4) 0.1241(7) 0.0187 Uani
Li1G Li 0.4033(4) 0.8244(4) 0.6259(7) 0.0187 Uani
Li1C Li 0.0967(4) 0.3244(4) 0.6241(7) 0.0187 Uani
Zn1B Zn -0.17293(3) 0.58333(3) 0.33885(4) 0.0129 Uani
Zn1G Zn 0.32707(3) 0.91667(3) 0.41115(4) 0.0129 Uani
Zn1C Zn 0.17293(3) 0.41667(3) 0.83885(4) 0.0129 Uani
O1C O 0.18046(16) 0.49719(15) 0.9769(2) 0.0171 Uani
O2C O 0.10761(19) 0.55774(18) 0.1182(3) 0.0256 Uani
O3G O 0.17065(19) 0.74913(18) 0.0940(3) 0.0252 Uani
O4G O 0.23111(19) 0.6820(2) 0.9467(3) 0.0308 Uani
O5B O -0.01544(17) 0.69342(17) -0.0098(2) 0.0189 Uani
O6B O 0.06254(18) 0.6244(2) 0.8662(3) 0.0263 Uani
loop_
_atom_site_aniso_label
_atom_site_aniso_U_11
_atom_site_aniso_U_22
_atom_site_aniso_U_33
_atom_site_aniso_U_23
_atom_site_aniso_U_13
_atom_site_aniso_U_12
Li1 0.020(3) 0.016(3) 0.020(3) -0.002(3) 0.004(3) 0.004(3)
Zn1 0.0109(3) 0.0127(3) 0.0151(3) 0.0007(2) 0.0002(2) -0.00127(19)
O1 0.0149(13) 0.0163(13) 0.0201(15) 0.0029(12) -0.0008(12) 0.0007(11)
O2 0.0176(15) 0.0307(16) 0.0284(18) 0.0104(13) -0.0030(13) -0.0096(12)
O3 0.0266(15) 0.0205(15) 0.0286(17) 0.0011(13) -0.0086(14) -0.0101(12)
O4 0.0312(17) 0.0260(16) 0.0351(18) 0.0090(14) -0.0154(15) -0.0150(13)
O5 0.0236(15) 0.0204(14) 0.0128(15) 0.0045(12) 0.0007(12) 0.0024(11)
O6 0.0366(17) 0.0188(15) 0.0236(18) 0.0056(13) -0.0060(13) -0.0073(13)
C1 0.021(2) 0.0113(18) 0.024(2) -0.0013(16) -0.0028(18) -0.0014(15)
C2 0.020(2) 0.016(2) 0.021(2) 0.0015(18) 0.0004(19) -0.0064(16)
C3 0.0113(19) 0.018(2) 0.028(2) 0.0037(18) -0.0020(17) -0.0017(14)
C4 0.0173(19) 0.0151(19) 0.013(2) 0.0062(16) 0.0013(16) -0.0001(15)
C5 0.0174(19) 0.021(2) 0.016(2) 0.0060(18) -0.0030(17) 0.0000(15)
C6 0.017(2) 0.021(2) 0.021(2) -0.0022(18) 0.0025(18) -0.0085(16)
C7 0.022(2) 0.023(2) 0.017(2) 0.0056(17) -0.0005(17) -0.0052(16)
C8 0.018(2) 0.016(2) 0.014(2) 0.0053(16) -0.0012(16) -0.0032(16)
C9 0.0200(19) 0.022(2) 0.010(2) -0.0071(16) 0.0002(16) -0.0068(16)
Li1B 0.016 0.02 0.02 0.004 0.002 -0.004
Li1G 0.016 0.02 0.02 0.004 -0.002 0.004
Li1C 0.016 0.02 0.02 -0.004 -0.002 -0.004
Zn1B 0.0127 0.0109 0.0151 0.0002 -0.0007 0.00127
Zn1G 0.0127 0.0109 0.0151 0.0002 0.0007 -0.00127
Zn1C 0.0127 0.0109 0.0151 -0.0002 0.0007 0.00127
O1C 0.0163 0.0149 0.0201 0.0008 0.0029 -0.0007
O2C 0.0307 0.0176 0.0284 0.003 0.0104 0.0096
O3G 0.0205 0.0266 0.0286 -0.0086 0.0011 -0.0101
O4G 0.026 0.0312 0.0351 -0.0154 0.009 -0.015
O5B 0.0204 0.0236 0.0128 0.0007 -0.0045 -0.0024
O6B 0.0188 0.0366 0.0236 -0.006 -0.0056 0.0073
loop_
_geom_bond_atom_site_label_1
_geom_bond_atom_site_label_2
_geom_bond_site_symmetry_1
_geom_bond_site_symmetry_2
Li1 O5 1_555 1_555
Zn1 O1 1_555 1_555
O1 C1 1_555 1_555
O2 C1 1_555 1_555
O3 C2 1_555 1_555
O4 C2 1_555 1_555
O5 C3 1_555 1_555
O6 C3 1_555 1_555
C1 C4 1_555 1_555
C2 C6 1_555 1_555
C3 C8 1_555 1_555
C4 C5 1_555 1_555
C5 H1 1_555 1_555
C6 C5 1_555 1_555
C7 C6 1_555 1_555
H2 C7 1_555 1_555
C8 C7 1_555 1_555
C9 C4 1_555 1_555
H3 C9 1_555 1_555
Li1B O1 1_555 1_555
Li1G O4 1_555 1_555
Li1C O6 1_555 1_555
Zn1B O2 1_555 1_555
Zn1G O3 1_555 1_555
Zn1C O5 1_555 1_555
O1C Li1 1_555 1_555
O2C Zn1 1_555 1_555
O3G Zn1 1_555 1_555
O4G Li1 1_555 1_555
O5B Zn1 1_555 1_555
O6B Li1 1_555 1_555
C8 C9 1_555 1_555
Li1B O5B 1_555 1_555
Zn1C O1C 1_555 1_555

#END
