
#######################################################################
#
#                 Cambridge Crystallographic Data Centre
#                                CCDC 
#
#######################################################################
#
# If this CIF has been generated from an entry in the Cambridge 
# Structural Database, then it will include bibliographic, chemical, 
# crystal, experimental, refinement or atomic coordinate data resulting 
# from the CCDC's data processing and validation procedures.
#
#######################################################################

data_XIXCIT
_chemical_name_common            SION-8
_chemical_formula_moiety         '(C44 H26 Ca2 O10)n,2(C3 H7 N1 O1)'
_chemical_name_systematic        
"catena-[bis(\m-aqua)-(\m-4,4',4'',4'''-(pyrene-1,3,6,8-tetrayl)tetrabenzoato)-di-calcium N,N-dimethylformamide solvate]"
_symmetry_cell_setting           orthorhombic
_symmetry_space_group_name_H-M   'P b a m'
_symmetry_Int_Tables_number      55
_space_group_name_Hall           '-P 2 2ab'
loop_
_symmetry_equiv_pos_site_id
_symmetry_equiv_pos_as_xyz
1 x,y,z
2 -x,-y,z
3 1/2-x,1/2+y,-z
4 1/2+x,1/2-y,-z
5 -x,-y,-z
6 x,y,-z
7 1/2+x,1/2-y,z
8 1/2-x,1/2+y,z
_cell_length_a                   6.88590(11)
_cell_length_b                   20.0624(4)
_cell_length_c                   16.6453(4)
_cell_angle_alpha                90
_cell_angle_beta                 90
_cell_angle_gamma                90
_cell_volume                     2299.51
_exptl_crystal_colour            yellow
_exptl_crystal_description       plate
_cell_formula_units_Z            2
loop_
_atom_site_label
_atom_site_type_symbol
_atom_site_fract_x
_atom_site_fract_y
_atom_site_fract_z
Ca1 Ca 0.59489(13) 0.22589(4) 0.5000
O1 O 0.1605(5) 0.35287(15) 0.3914(2)
O2 O 0.3889(4) 0.27938(15) 0.4115(2)
O3 O 0.7760(5) 0.33551(16) 0.5000
C1 C 0.3175(6) 0.32579(18) 0.3704(2)
C2 C 0.4120(6) 0.3441(2) 0.2935(3)
C3 C 0.5937(6) 0.3854(2) 0.1483(3)
C4 C 0.6866(7) 0.4096(2) 0.0735(3)
C5 C 0.6079(10) 0.3885(4) 0.0000
H1 H 0.4991 0.3594 0.0000
C6 C 0.8466(6) 0.4553(2) 0.0754(2)
C7 C 0.9208(7) 0.4783(3) 0.1480(3)
H2 H 0.8640 0.4646 0.1973
C8 C 0.9235(9) 0.4768(4) 0.0000
C9 C 0.3059(12) 0.3772(4) 0.2319(4)
H3 H 0.1712 0.3856 0.2388
C10 C 0.3985(11) 0.3971(4) 0.1618(5)
H4 H 0.3252 0.4196 0.1218
C11 C 0.6062(10) 0.3318(4) 0.2786(4)
H5 H 0.6796 0.3069 0.3165
C12 C 0.6954(10) 0.3547(4) 0.2097(5)
H6 H 0.8318 0.3493 0.2043
O1A O 1.8395(5) 0.64713(15) 0.3914(2)
O2A O 1.6111(4) 0.72062(15) 0.4115(2)
C1A C 1.6825(6) 0.67421(18) 0.3704(2)
C2A C 1.5880(6) 0.6559(2) 0.2935(3)
C3A C 1.4063(6) 0.6146(2) 0.1483(3)
C4A C 1.3134(7) 0.5904(2) 0.0735(3)
C5A C 1.3921(10) 0.6115(4) 0.0000
H1A H 1.5009 0.6406 0.0000
C6A C 1.1534(6) 0.5447(2) 0.0754(2)
C7A C 1.0792(7) 0.5217(3) 0.1480(3)
H2A H 1.1360 0.5354 0.1973
C8A C 1.0765(9) 0.5232(4) 0.0000
C9A C 1.6941(12) 0.6228(4) 0.2319(4)
H3A H 1.8288 0.6144 0.2388
C10A C 1.6015(11) 0.6029(4) 0.1618(5)
H4A H 1.6748 0.5804 0.1218
C11A C 1.3938(10) 0.6682(4) 0.2786(4)
H5A H 1.3204 0.6931 0.3165
C12A C 1.3046(10) 0.6453(4) 0.2097(5)
H6A H 1.1682 0.6507 0.2043
O1D O 1.8395(5) 0.64713(15) -0.3914(2)
O2D O 1.6111(4) 0.72062(15) -0.4115(2)
C1D C 1.6825(6) 0.67421(18) -0.3704(2)
C2D C 1.5880(6) 0.6559(2) -0.2935(3)
C3D C 1.4063(6) 0.6146(2) -0.1483(3)
C4D C 1.3134(7) 0.5904(2) -0.0735(3)
C6D C 1.1534(6) 0.5447(2) -0.0754(2)
C7D C 1.0792(7) 0.5217(3) -0.1480(3)
H2D H 1.1360 0.5354 -0.1973
C9D C 1.6941(12) 0.6228(4) -0.2319(4)
H3D H 1.8288 0.6144 -0.2388
C10D C 1.6015(11) 0.6029(4) -0.1618(5)
H4D H 1.6748 0.5804 -0.1218
C11D C 1.3938(10) 0.6682(4) -0.2786(4)
H5D H 1.3204 0.6931 -0.3165
C12D C 1.3046(10) 0.6453(4) -0.2097(5)
H6D H 1.1682 0.6507 -0.2043
O1E O 0.1605(5) 0.35287(15) -0.3914(2)
O2E O 0.3889(4) 0.27938(15) -0.4115(2)
C1E C 0.3175(6) 0.32579(18) -0.3704(2)
C2E C 0.4120(6) 0.3441(2) -0.2935(3)
C3E C 0.5937(6) 0.3854(2) -0.1483(3)
C4E C 0.6866(7) 0.4096(2) -0.0735(3)
C6E C 0.8466(6) 0.4553(2) -0.0754(2)
C7E C 0.9208(7) 0.4783(3) -0.1480(3)
H2E H 0.8640 0.4646 -0.1973
C9E C 0.3059(12) 0.3772(4) -0.2319(4)
H3E H 0.1712 0.3856 -0.2388
C10E C 0.3985(11) 0.3971(4) -0.1618(5)
H4E H 0.3252 0.4196 -0.1218
C11E C 0.6062(10) 0.3318(4) -0.2786(4)
H5E H 0.6796 0.3069 -0.3165
C12E C 0.6954(10) 0.3547(4) -0.2097(5)
H6E H 0.8318 0.3493 -0.2043
Ca1A Ca 1.40511(13) 0.77411(4) 0.5000
O3A O 1.2240(5) 0.66449(16) 0.5000
Ca1_2 Ca 0.59489(13) 0.22589(4) -0.5000
Ca1A_2 Ca 1.40511(13) 0.77411(4) -0.5000
Ca1B Ca 0.90511(13) 0.72589(4) 0.5000
Ca1B_2 Ca 1.90511(13) 0.72589(4) -0.5000
Ca1B_3 Ca 1.90511(13) 0.72589(4) 0.5000
Ca1C Ca 0.09489(13) 0.27411(4) -0.5000
Ca1C_2 Ca 0.09489(13) 0.27411(4) 0.5000
Ca1C_3 Ca 1.09489(13) 0.27411(4) 0.5000
O1B O 1.3395(5) 0.85287(15) 0.6086(2)
O1C O 0.6605(5) 0.14713(15) 0.6086(2)
O1F O 0.6605(5) 0.14713(15) 0.3914(2)
O1G O 1.3395(5) 0.85287(15) 0.3914(2)
O2B O 1.1111(4) 0.77938(15) 0.5885(2)
O2C O 0.8889(4) 0.22062(15) 0.5885(2)
O2D_2 O 1.6111(4) 0.72062(15) 0.5885(2)
O2E_2 O 0.3889(4) 0.27938(15) 0.5885(2)
O2F O 0.8889(4) 0.22062(15) 0.4115(2)
O2G O 1.1111(4) 0.77938(15) 0.4115(2)
O3B O 1.7240(5) 0.83551(16) 0.5000
O3C O 0.2760(5) 0.16449(16) 0.5000
C13? C 0.386(2) 0.4070(7) 0.2585(10)
H7? H 0.2998 0.4385 0.2816
C14? C 0.484(3) 0.4218(8) 0.1932(10)
H8? H 0.4728 0.4668 0.1762
C15? C 0.540(2) 0.3019(9) 0.2576(9)
H9? H 0.5700 0.2606 0.2827
C16? C 0.630(3) 0.3184(9) 0.1836(10)
H10? H 0.7111 0.2872 0.1570
loop_
_geom_bond_atom_site_label_1
_geom_bond_atom_site_label_2
_geom_bond_site_symmetry_1
_geom_bond_site_symmetry_2
Ca1 O2 1_555 1_555
O1 C1 1_555 1_555
O2 C1 1_555 1_555
O3 Ca1 1_555 1_555
C1 C2 1_555 1_555
C2 C9 1_555 1_555
C3 C4 1_555 1_555
C4 C5 1_555 1_555
C5 H1 1_555 1_555
C6 C4 1_555 1_555
C7 C6 1_555 1_555
H2 C7 1_555 1_555
C8 C6 1_555 1_555
C9 H3 1_555 1_555
C10 C3 1_555 1_555
H4 C10 1_555 1_555
C11 C2 1_555 1_555
H5 C11 1_555 1_555
C12 C3 1_555 1_555
H6 C12 1_555 1_555
O1A C1A 1_555 1_555
O2A C1A 1_555 1_555
C1A C2A 1_555 1_555
C2A C9A 1_555 1_555
C3A C4A 1_555 1_555
C4A C5A 1_555 1_555
C5A H1A 1_555 1_555
C6A C4A 1_555 1_555
C7A C7 1_555 1_555
H2A C7A 1_555 1_555
C8A C8 1_555 1_555
C9A H3A 1_555 1_555
C10A C3A 1_555 1_555
H4A C10A 1_555 1_555
C11A C2A 1_555 1_555
H5A C11A 1_555 1_555
C12A C3A 1_555 1_555
H6A C12A 1_555 1_555
O1D C1D 1_555 1_555
O2D C1D 1_555 1_555
C1D C2D 1_555 1_555
C2D C9D 1_555 1_555
C3D C4D 1_555 1_555
C4D C5A 1_555 1_555
C6D C8A 1_555 1_555
C7D C6D 1_555 1_555
H2D C7D 1_555 1_555
C9D H3D 1_555 1_555
C10D C3D 1_555 1_555
H4D C10D 1_555 1_555
C11D C2D 1_555 1_555
H5D C11D 1_555 1_555
C12D C3D 1_555 1_555
H6D C12D 1_555 1_555
O1E C1E 1_555 1_555
O2E C1E 1_555 1_555
C1E C2E 1_555 1_555
C2E C9E 1_555 1_555
C3E C4E 1_555 1_555
C4E C5 1_555 1_555
C6E C8 1_555 1_555
C7E C7D 1_555 1_555
H2E C7E 1_555 1_555
C9E H3E 1_555 1_555
C10E C3E 1_555 1_555
H4E C10E 1_555 1_555
C11E C2E 1_555 1_555
H5E C11E 1_555 1_555
C12E C3E 1_555 1_555
H6E C12E 1_555 1_555
Ca1A O2A 1_555 1_555
O3A Ca1A 1_555 1_555
Ca1_2 O2E 1_555 1_555
Ca1A_2 O2D 1_555 1_555
Ca1B O3A 1_555 1_555
Ca1B_2 O1D 1_555 1_555
Ca1B_3 O1A 1_555 1_555
Ca1C O1E 1_555 1_555
Ca1C_2 O1 1_555 1_555
Ca1C_3 O3 1_555 1_555
O1B Ca1A 1_555 1_555
O1C Ca1 1_555 1_555
O1F Ca1 1_555 1_555
O1G Ca1A 1_555 1_555
O2B Ca1A 1_555 1_555
O2C Ca1 1_555 1_555
O2D_2 Ca1A 1_555 1_555
O2E_2 Ca1 1_555 1_555
O2F Ca1 1_555 1_555
O2G Ca1A 1_555 1_555
O3B Ca1A 1_555 1_555
O3C Ca1 1_555 1_555
O2 Ca1C_2 1_555 1_555
C9 C10 1_555 1_555
C11 C12 1_555 1_555
O2A Ca1B_3 1_555 1_555
C6A C7A 1_555 1_555
C6A C8A 1_555 1_555
C9A C10A 1_555 1_555
C11A C12A 1_555 1_555
O2D Ca1B_2 1_555 1_555
C4D C6D 1_555 1_555
C9D C10D 1_555 1_555
C11D C12D 1_555 1_555
O2E Ca1C 1_555 1_555
C4E C6E 1_555 1_555
C6E C7E 1_555 1_555
C9E C10E 1_555 1_555
C11E C12E 1_555 1_555
Ca1B O2B 1_555 1_555
Ca1B O2G 1_555 1_555
Ca1B_3 O2D_2 1_555 1_555
Ca1B_3 O3B 1_555 1_555
Ca1C_2 O2E_2 1_555 1_555
Ca1C_2 O3C 1_555 1_555
Ca1C_3 O2C 1_555 1_555
Ca1C_3 O2F 1_555 1_555

#END
