
#######################################################################
#
#                 Cambridge Crystallographic Data Centre
#                                CCDC 
#
#######################################################################
#
# If this CIF has been generated from an entry in the Cambridge 
# Structural Database, then it will include bibliographic, chemical, 
# crystal, experimental, refinement or atomic coordinate data resulting 
# from the CCDC's data processing and validation procedures.
#
#######################################################################

data_DAZCAK
_chemical_name_common            PCN-124
_chemical_formula_moiety         
'(C23 H13 Cu2 N3 O11)n,3n(C4 H9 N1 O1),3n(H2 O1)'
_chemical_name_systematic        
"catena-((\m~9~-5,5'-((pyridine-3,5-diyl)dicarbonyldiamino)-bis(isophthalato))-aqua-di-copper N,N-dimethylacetamide solvate trihydrate)"
_symmetry_cell_setting           cubic
_symmetry_space_group_name_H-M   'I m -3 m'
_symmetry_Int_Tables_number      229
_space_group_name_Hall           '-I 4 2 3'
loop_
_symmetry_equiv_pos_site_id
_symmetry_equiv_pos_as_xyz
1 x,y,z
2 -x,-y,z
3 -x,y,-z
4 x,-y,-z
5 z,x,y
6 z,-x,-y
7 -z,-x,y
8 -z,x,-y
9 y,z,x
10 -y,z,-x
11 y,-z,-x
12 -y,-z,x
13 y,x,-z
14 -y,-x,-z
15 y,-x,z
16 -y,x,z
17 x,z,-y
18 -x,z,y
19 -x,-z,-y
20 x,-z,y
21 z,y,-x
22 z,-y,x
23 -z,y,x
24 -z,-y,-x
25 1/2+x,1/2+y,1/2+z
26 1/2-x,1/2-y,1/2+z
27 1/2-x,1/2+y,1/2-z
28 1/2+x,1/2-y,1/2-z
29 1/2+z,1/2+x,1/2+y
30 1/2+z,1/2-x,1/2-y
31 1/2-z,1/2-x,1/2+y
32 1/2-z,1/2+x,1/2-y
33 1/2+y,1/2+z,1/2+x
34 1/2-y,1/2+z,1/2-x
35 1/2+y,1/2-z,1/2-x
36 1/2-y,1/2-z,1/2+x
37 1/2+y,1/2+x,1/2-z
38 1/2-y,1/2-x,1/2-z
39 1/2+y,1/2-x,1/2+z
40 1/2-y,1/2+x,1/2+z
41 1/2+x,1/2+z,1/2-y
42 1/2-x,1/2+z,1/2+y
43 1/2-x,1/2-z,1/2-y
44 1/2+x,1/2-z,1/2+y
45 1/2+z,1/2+y,1/2-x
46 1/2+z,1/2-y,1/2+x
47 1/2-z,1/2+y,1/2+x
48 1/2-z,1/2-y,1/2-x
49 -x,-y,-z
50 x,y,-z
51 x,-y,z
52 -x,y,z
53 -z,-x,-y
54 -z,x,y
55 z,x,-y
56 z,-x,y
57 -y,-z,-x
58 y,-z,x
59 -y,z,x
60 y,z,-x
61 -y,-x,z
62 y,x,z
63 -y,x,-z
64 y,-x,-z
65 -x,-z,y
66 x,-z,-y
67 x,z,y
68 -x,z,-y
69 -z,-y,x
70 -z,y,-x
71 z,-y,-x
72 z,y,x
73 1/2-x,1/2-y,1/2-z
74 1/2+x,1/2+y,1/2-z
75 1/2+x,1/2-y,1/2+z
76 1/2-x,1/2+y,1/2+z
77 1/2-z,1/2-x,1/2-y
78 1/2-z,1/2+x,1/2+y
79 1/2+z,1/2+x,1/2-y
80 1/2+z,1/2-x,1/2+y
81 1/2-y,1/2-z,1/2-x
82 1/2+y,1/2-z,1/2+x
83 1/2-y,1/2+z,1/2+x
84 1/2+y,1/2+z,1/2-x
85 1/2-y,1/2-x,1/2+z
86 1/2+y,1/2+x,1/2+z
87 1/2-y,1/2+x,1/2-z
88 1/2+y,1/2-x,1/2-z
89 1/2-x,1/2-z,1/2+y
90 1/2+x,1/2-z,1/2-y
91 1/2+x,1/2+z,1/2+y
92 1/2-x,1/2+z,1/2-y
93 1/2-z,1/2-y,1/2+x
94 1/2-z,1/2+y,1/2-x
95 1/2+z,1/2-y,1/2-x
96 1/2+z,1/2+y,1/2+x
_cell_length_a                   30.585(12)
_cell_length_b                   30.585(12)
_cell_length_c                   30.585(12)
_cell_angle_alpha                90
_cell_angle_beta                 90
_cell_angle_gamma                90
_cell_volume                     28610.5
_exptl_crystal_colour            blue
_exptl_crystal_description       block
_cell_formula_units_Z            24
loop_
_atom_site_label
_atom_site_type_symbol
_atom_site_fract_x
_atom_site_fract_y
_atom_site_fract_z
Cu1 Cu 0.18402(2) 0.8160 0.00000(2)
Cu2 Cu 0.24503(2) 0.75497(2) 0.0000
O1 O 0.27236(13) 0.79105(12) 0.04484(12)
O2 O 0.13450(19) 0.86550(19) 0.0000
O3 O 0.22016(11) 0.84271(11) 0.04498(12)
O4 O 0.4146(3) 0.8358(4) 0.0813(3)
N1 N 0.5000 0.7945(3) 0.2055(3)
N2 N 0.3859(2) 0.84810(19) 0.15190(19)
H1 H 0.3926 0.8195 0.1520
C1 C 0.25534(17) 0.82592(15) 0.05872(17)
C2 C 0.2580(2) 0.88480(16) 0.11520(16)
H2 H 0.2297 0.8944 0.1056
C3 C 0.27847(16) 0.85019(17) 0.09450(18)
C4 C 0.3206(2) 0.8379(2) 0.1063(2)
H3 H 0.3345 0.8137 0.0921
C5 C 0.3415(3) 0.8606(2) 0.1394(2)
C6 C 0.4180(4) 0.8371(6) 0.1221(4)
C7 C 0.4631(3) 0.8035(5) 0.1844(4)
H4 H 0.4361 0.7973 0.2027
C8 C 0.4614(4) 0.8242(5) 0.1435(4)
C9 C 0.5000 0.8364(8) 0.1238(6)
H5 H 0.5000 0.8492 0.0951
Cu1P Cu 0.18402(2) 1.00000(2) 0.1840
Cu1R Cu 0.81598(2) 1.00000(2) 0.1840
Cu1B Cu 0.81598(2) 0.8160 0.00000(2)
Cu2BA Cu 0.5000 0.74503(2) 0.25497(2)
Cu2K Cu 0.24503(2) 1.0000 0.24503(2)
Cu2H Cu 0.75497(2) 1.0000 0.24503(2)
Cu2B Cu 0.75497(2) 0.75497(2) 0.0000
O1MB O 0.27236(13) 0.95516(12) 0.20895(12)
O1R O 0.72764(13) 0.95516(12) 0.20895(12)
O1YA O 0.72764(13) 0.79105(12) 0.04484(12)
O1M O 0.20895(12) 0.72764(13) -0.04484(12)
O1WA O 0.27236(13) 0.79105(12) -0.04484(12)
O1HB O 0.20895(12) 0.72764(13) 0.04484(12)
O3MB O 0.22016(11) 0.95502(12) 0.15729(11)
O3R O 0.77984(11) 0.95502(12) 0.15729(11)
O3YA O 0.77984(11) 0.84271(11) 0.04498(12)
O3M O 0.15729(11) 0.77984(11) -0.04498(12)
O3WA O 0.22016(11) 0.84271(11) -0.04498(12)
O3HB O 0.15729(11) 0.77984(11) 0.04498(12)
O4MB O 0.4146(3) 0.9187(3) 0.1642(4)
O4R O 0.5854(3) 0.9187(3) 0.1642(4)
O4YA O 0.5854(3) 0.8358(4) 0.0813(3)
N1FA N 0.2945(3) 0.7055(3) 0.0000
N2R N 0.6141(2) 0.84810(19) 0.15190(19)
H1MB H 0.3926 0.8480 0.1805
H1R H 0.6074 0.8480 0.1805
H1YA H 0.6074 0.8195 0.1520
C1MB C 0.25534(17) 0.94128(17) 0.17408(15)
C1R C 0.74466(17) 0.94128(17) 0.17408(15)
C1YA C 0.74466(17) 0.82592(15) 0.05872(17)
C2R C 0.7420(2) 0.88480(16) 0.11520(16)
H2R H 0.7703 0.8944 0.1056
C3MB C 0.27847(16) 0.90550(18) 0.14981(17)
C3R C 0.72153(16) 0.90550(18) 0.14981(17)
C3YA C 0.72153(16) 0.85019(17) 0.09450(18)
C4MB C 0.3206(2) 0.8937(2) 0.1621(2)
C4R C 0.6794(2) 0.8937(2) 0.1621(2)
C4YA C 0.6794(2) 0.8379(2) 0.1063(2)
H3MB H 0.3345 0.9079 0.1863
H3YA H 0.6655 0.8137 0.0921
H3R H 0.6655 0.9079 0.1863
C5R C 0.6585(3) 0.8606(2) 0.1394(2)
C6MB C 0.4180(4) 0.8779(4) 0.1629(6)
C6R C 0.5820(4) 0.8779(4) 0.1629(6)
C6YA C 0.5820(4) 0.8371(6) 0.1221(4)
C7R C 0.5369(3) 0.8156(4) 0.1965(5)
C7YA C 0.5369(3) 0.8035(5) 0.1844(4)
C7MB C 0.4631(3) 0.8156(4) 0.1965(5)
H4R H 0.5639 0.7973 0.2027
C8MB C 0.4614(4) 0.8565(4) 0.1758(5)
C8R C 0.5386(4) 0.8565(4) 0.1758(5)
C8YA C 0.5386(4) 0.8242(5) 0.1435(4)
C9R C 0.5000 0.8762(6) 0.1636(8)
H5R H 0.5000 0.9049 0.1508
loop_
_geom_bond_atom_site_label_1
_geom_bond_atom_site_label_2
_geom_bond_site_symmetry_1
_geom_bond_site_symmetry_2
Cu1 O2 1_555 1_555
Cu2 O1 1_555 1_555
O1 C1 1_555 1_555
O3 Cu1 1_555 1_555
O4 C6 1_555 1_555
N1 C7 1_555 1_555
N2 H1 1_555 1_555
C1 O3 1_555 1_555
C2 H2 1_555 1_555
C3 C1 1_555 1_555
C4 C3 1_555 1_555
H3 C4 1_555 1_555
C5 N2 1_555 1_555
C6 N2 1_555 1_555
C7 H4 1_555 1_555
H4 C7MB 1_555 1_555
C8 C6 1_555 1_555
C9 C8 1_555 1_555
H5 C9 1_555 1_555
Cu1P O3MB 1_555 1_555
Cu1R O3R 1_555 1_555
Cu1B O3YA 1_555 1_555
Cu2BA N1 1_555 1_555
Cu2K O1MB 1_555 1_555
Cu2H O1R 1_555 1_555
Cu2B O1YA 1_555 1_555
O1MB C1MB 1_555 1_555
O1R C1R 1_555 1_555
O1YA C1YA 1_555 1_555
O1M Cu2 1_555 1_555
O1WA Cu2 1_555 1_555
O1HB Cu2 1_555 1_555
O3MB C1MB 1_555 1_555
O3R C1R 1_555 1_555
O3YA C1YA 1_555 1_555
O3M Cu1 1_555 1_555
O3WA Cu1 1_555 1_555
O3HB Cu1 1_555 1_555
O4MB C6MB 1_555 1_555
O4R C6R 1_555 1_555
O4YA C6YA 1_555 1_555
N1FA Cu2 1_555 1_555
N2R H1R 1_555 1_555
H1MB N2 1_555 1_555
H1YA N2R 1_555 1_555
C1MB C3MB 1_555 1_555
C1R C3R 1_555 1_555
C1YA C3YA 1_555 1_555
C2R H2R 1_555 1_555
C3MB C2 1_555 1_555
C3R C2R 1_555 1_555
C3YA C2R 1_555 1_555
C4MB C5 1_555 1_555
C4R C3R 1_555 1_555
C4YA C3YA 1_555 1_555
H3MB C4MB 1_555 1_555
H3YA C4YA 1_555 1_555
H3R C4R 1_555 1_555
C5R N2R 1_555 1_555
C6MB N2 1_555 1_555
C6R N2R 1_555 1_555
C6YA N2R 1_555 1_555
C7R N1 1_555 1_555
C7YA N1 1_555 1_555
C7MB N1 1_555 1_555
H4R C7R 1_555 1_555
C8MB C7 1_555 1_555
C8R C6R 1_555 1_555
C8YA C9 1_555 1_555
C9R C9 1_555 1_555
H5R C9R 1_555 1_555
C2 C3 1_555 1_555
C4 C5 1_555 1_555
C7 C8 1_555 1_555
C7 C7MB 1_555 1_555
C8 C7MB 1_555 1_555
C8 C8MB 1_555 1_555
C3MB C4MB 1_555 1_555
C4R C5R 1_555 1_555
C4YA C5R 1_555 1_555
C6MB C8MB 1_555 1_555
C6YA C8YA 1_555 1_555
C7R C7YA 1_555 1_555
C7R C8R 1_555 1_555
C7R C8YA 1_555 1_555
C7YA H4R 1_555 1_555
C7YA C8R 1_555 1_555
C7YA C8YA 1_555 1_555
C7MB C8MB 1_555 1_555
C8MB C9R 1_555 1_555
C8R C8YA 1_555 1_555
C8R C9R 1_555 1_555

#END
