
#######################################################################
#
#                 Cambridge Crystallographic Data Centre
#                                CCDC 
#
#######################################################################
#
# If this CIF has been generated from an entry in the Cambridge 
# Structural Database, then it will include bibliographic, chemical, 
# crystal, experimental, refinement or atomic coordinate data resulting 
# from the CCDC's data processing and validation procedures.
#
#######################################################################

data_CIFLUA
_chemical_formula_moiety         
'(C60 H42 Co3 N1 O15 1-)n,n(C4 H12 N1 1+),25n(C5 H11 N1 O1)'
_chemical_name_systematic        
"catena-(Diethylammonium bis(\m~5~-4,4',4''-(benzene-1,3,5-triyl)tribenzoato)-(\m~3~-formato)-diethylformamide-tri-cobalt diethylformamide solvate)"
_symmetry_cell_setting           monoclinic
_symmetry_space_group_name_H-M   'P 21/c'
_symmetry_Int_Tables_number      14
_space_group_name_Hall           '-P 2ybc'
loop_
_symmetry_equiv_pos_site_id
_symmetry_equiv_pos_as_xyz
1 x,y,z
2 -x,1/2+y,1/2-z
3 -x,-y,-z
4 x,1/2-y,1/2+z
_cell_length_a                   18.490(4)
_cell_length_b                   27.509(5)
_cell_length_c                   22.860(9)
_cell_angle_alpha                90
_cell_angle_beta                 123.23(2)
_cell_angle_gamma                90
_cell_volume                     9726.18
_exptl_crystal_colour            pink
_exptl_crystal_description       block
_cell_formula_units_Z            4
loop_
_atom_site_label
_atom_site_type_symbol
_atom_site_fract_x
_atom_site_fract_y
_atom_site_fract_z
N3 N 0.1300(15) 0.8909(10) 0.2245(14)
H54 H 0.1160 0.8596 0.2249
H55 H 0.1879 0.8920 0.2533
C66 C 0.1158(15) 0.8963(10) 0.1558(14)
H56 H 0.1535 0.9226 0.1607
H57 H 0.0573 0.9087 0.1263
C67 C 0.1243(15) 0.8580(13) 0.1110(14)
H58 H 0.1691 0.8354 0.1409
H59 H 0.1385 0.8738 0.0811
H60 H 0.0704 0.8410 0.0829
C68 C 0.1013(16) 0.9148(9) 0.2646(13)
H61 H 0.1143 0.9489 0.2642
H62 H 0.1411 0.9039 0.3123
C69 C 0.0129(15) 0.9144(11) 0.2546(13)
H63 H -0.0311 0.9203 0.2063
H64 H 0.0107 0.9394 0.2830
H65 H 0.0032 0.8833 0.2683
O1 O 0.3423(6) 0.2103(3) 0.5510(5)
O2 O 0.2737(6) 0.2202(3) 0.4354(5)
C1 C 0.2968(8) 0.2338(4) 0.4959(7)
O3 O 0.5365(7) 0.6382(4) 0.1978(7)
O4 O 0.5435(7) 0.5778(4) 0.1391(7)
C2 C 0.5080(9) 0.5989(5) 0.1668(9)
C3 C 0.4321(9) 0.5755(5) 0.1618(9)
C4 C 0.3859(10) 0.5994(5) 0.1829(10)
H1 H 0.3998 0.6313 0.1984
C5 C 0.3178(10) 0.5764(5) 0.1815(10)
H2 H 0.2871 0.5930 0.1966
C6 C 0.2956(8) 0.5291(5) 0.1579(8)
C7 C 0.2239(8) 0.5032(4) 0.1565(7)
C8 C 0.1466(8) 0.5257(5) 0.1324(8)
H3 H 0.1387 0.5580 0.1179
C9 C 0.0778(8) 0.4995(4) 0.1296(7)
C10 C -0.0080(7) 0.5240(4) 0.0970(7)
C11 C -0.0425(9) 0.5498(5) 0.0345(7)
H4 H -0.0124 0.5508 0.0126
C12 C -0.1195(8) 0.5737(5) 0.0051(7)
H5 H -0.1415 0.5903 -0.0367
C13 C -0.1660(8) 0.5734(4) 0.0371(6)
O5 O 0.5091(7) 0.6443(3) 0.8412(5)
O6 O 0.5250(6) 0.5779(3) 0.8987(5)
C14 C 0.4871(8) 0.6007(5) 0.8420(7)
C15 C 0.4165(8) 0.5770(5) 0.7768(7)
C16 C 0.3768(10) 0.6017(5) 0.7148(7)
H6 H 0.3909 0.6341 0.7141
C17 C 0.3134(9) 0.5779(5) 0.6508(7)
H7 H 0.2874 0.5943 0.6083
C18 C 0.2919(8) 0.5311(4) 0.6532(6)
C19 C 0.2338(8) 0.5036(4) 0.5863(7)
C20 C 0.1588(8) 0.5255(4) 0.5305(6)
H8 H 0.1438 0.5568 0.5354
C21 C 0.1072(8) 0.5007(4) 0.4683(6)
C22 C 0.0268(8) 0.5240(4) 0.4117(6)
C23 C -0.0290(10) 0.5481(6) 0.4233(7)
H9 H -0.0146 0.5499 0.4691
C24 C -0.1046(8) 0.5699(5) 0.3724(6)
H10 H -0.1408 0.5854 0.3829
C25 C -0.1246(8) 0.5678(4) 0.3039(6)
C26 C 0.2505(9) 0.4561(4) 0.5783(7)
H11 H 0.2988 0.4409 0.6156
C27 C -0.2058(8) 0.5925(4) 0.2471(7)
O7 O -0.2620(5) 0.6061(3) 0.2590(4)
C28 C 0.2529(9) 0.2287(4) 0.2701(7)
C29 C 0.1507(8) 0.3539(4) 0.2295(7)
H12 H 0.1148 0.3715 0.2384
C30 C 0.1698(8) 0.3059(4) 0.2507(7)
H13 H 0.1447 0.2913 0.2722
C31 C 0.2248(8) 0.2797(4) 0.2407(6)
C32 C 0.2567(9) 0.3008(4) 0.2042(7)
H14 H 0.2920 0.2830 0.1949
C33 C 0.2360(8) 0.3483(5) 0.1818(7)
H15 H 0.2574 0.3620 0.1571
C34 C 0.4068(8) 0.5273(5) 0.1348(8)
H16 H 0.4353 0.5111 0.1173
C35 C 0.3407(8) 0.5051(5) 0.1348(8)
H17 H 0.3259 0.4732 0.1189
C36 C 0.2348(8) 0.4551(4) 0.1765(7)
H18 H 0.2871 0.4400 0.1912
C37 C 0.1696(8) 0.4281(4) 0.1755(6)
C38 C 0.0906(7) 0.4519(4) 0.1513(7)
H19 H 0.0461 0.4351 0.1500
C39 C -0.1328(8) 0.5482(5) 0.0979(7)
H20 H -0.1625 0.5482 0.1200
C40 C -0.0565(7) 0.5228(4) 0.1274(6)
H21 H -0.0369 0.5046 0.1677
O8 O 0.2164(6) 0.2076(3) 0.2948(5)
O9 O 0.3178(6) 0.2116(3) 0.2698(5)
C41 C 0.1843(8) 0.3759(4) 0.1952(7)
Co1 Co -0.36115(10) 0.64638(5) 0.19276(9)
Co2 Co -0.39019(10) 0.64471(5) -0.05475(8)
Co3 Co -0.24599(10) 0.65964(5) 0.12383(8)
O10 O -0.2885(5) 0.6098(3) -0.0605(4)
O11 O -0.2808(5) 0.6126(3) 0.0381(4)
O12 O -0.2106(6) 0.6005(3) 0.1895(5)
O13 O -0.3751(5) 0.6529(3) 0.0948(5)
O14 O -0.4649(6) 0.6611(4) -0.0173(5)
C42 C -0.2494(7) 0.6003(4) 0.0032(7)
C43 C -0.0718(10) 0.5427(6) 0.2883(7)
H22 H -0.0865 0.5401 0.2425
C44 C 0.0031(9) 0.5217(6) 0.3428(8)
H23 H 0.0391 0.5054 0.3328
C45 C 0.1286(8) 0.4533(4) 0.4627(6)
H24 H 0.0944 0.4368 0.4205
C46 C 0.1989(8) 0.4301(4) 0.5176(6)
C47 C 0.3307(8) 0.5068(4) 0.7184(7)
H25 H 0.3143 0.4752 0.7206
C48 C 0.3918(8) 0.5300(4) 0.7776(6)
H26 H 0.4178 0.5136 0.8201
C49 C 0.2227(9) 0.3798(4) 0.5114(6)
C50 C 0.2634(10) 0.3478(5) 0.5708(8)
H27 H 0.2749 0.3588 0.6135
C51 C 0.2852(10) 0.3019(5) 0.5654(7)
H28 H 0.3119 0.2817 0.6044
C52 C 0.2676(9) 0.2846(4) 0.5009(7)
C53 C 0.2292(12) 0.3145(5) 0.4444(8)
H29 H 0.2187 0.3032 0.4021
C54 C 0.2056(11) 0.3613(5) 0.4486(7)
H30 H 0.1777 0.3807 0.4088
C55 C -0.4473(10) 0.6613(5) 0.0434(8)
H31 H -0.4914 0.6682 0.0503
O15 O -0.1189(5) 0.6629(3) 0.1500(4)
C56 C -0.0578(16) 0.6649(16) 0.2119(13)
H32 H -0.0775 0.6660 0.2415
N1 N 0.0275(17) 0.6658(16) 0.248(2)
C57 C 0.066(3) 0.641(2) 0.216(2)
H33 H 0.1157 0.6594 0.2245
H34 H 0.0246 0.6392 0.1661
C58 C 0.095(5) 0.590(2) 0.246(4)
H35 H 0.1458 0.5916 0.2925
H36 H 0.1068 0.5712 0.2168
H37 H 0.0493 0.5741 0.2477
C59 C 0.093(2) 0.658(2) 0.320(2)
H38 H 0.1409 0.6804 0.3334
H39 H 0.1149 0.6256 0.3264
C60 C 0.064(4) 0.667(3) 0.371(3)
H40 H 0.0601 0.7007 0.3767
H41 H 0.1049 0.6520 0.4150
H42 H 0.0082 0.6518 0.3517
O1A O -0.3423(6) 0.7103(3) -0.0510(5)
O2A O -0.2737(6) 0.7202(3) 0.0646(5)
O3_2 O -0.4635(7) 0.6382(4) 0.1978(7)
O4_2 O -0.4565(7) 0.5778(4) 0.1391(7)
O5_2 O -0.4909(7) 0.6443(3) -0.1588(5)
O6_2 O -0.4750(6) 0.5779(3) -0.1013(5)
O8A O -0.2164(6) 0.7076(3) 0.2052(5)
O9A O -0.3178(6) 0.7116(3) 0.2302(5)
Co1_2 Co 0.63885(10) 0.64638(5) 0.19276(9)
Co1A Co 0.36115(10) 0.14638(5) 0.30724(9)
Co2_2 Co 0.60981(10) 0.64471(5) 0.94525(8)
Co2A Co 0.39019(10) 0.14471(5) 0.55475(8)
Co3A Co 0.24599(10) 0.15964(5) 0.37617(8)
O16? O -0.1189(5) 0.6629(3) 0.1500(4)
C61? C -0.0759(18) 0.6984(10) 0.174(2)
H43? H -0.1031 0.7265 0.1752
N2? N 0.0065(18) 0.7010(18) 0.200(2)
C62? C 0.036(4) 0.679(2) 0.159(2)
H44? H 0.0501 0.7043 0.1377
H45? H -0.0107 0.6596 0.1222
C63? C 0.115(4) 0.647(3) 0.204(5)
H46? H 0.1306 0.6479 0.2519
H47? H 0.1619 0.6584 0.2018
H48? H 0.1012 0.6140 0.1875
C64? C 0.064(4) 0.7419(18) 0.2280(19)
H49? H 0.0328 0.7709 0.2022
H50? H 0.1116 0.7370 0.2226
C65? C 0.098(3) 0.7491(9) 0.3055(14)
H51? H 0.0527 0.7610 0.3100
H52? H 0.1448 0.7722 0.3254
H53? H 0.1189 0.7186 0.3296
N4? N 0.0874(15) 0.9051(9) 0.3375(13)
H66? H 0.0298 0.9073 0.3168
H67? H 0.1065 0.9360 0.3480
C70? C 0.0950(16) 0.8944(9) 0.2793(13)
H68? H 0.1476 0.8754 0.2995
H69? H 0.1080 0.9255 0.2671
C71? C 0.0322(15) 0.8701(9) 0.2090(13)
H70? H 0.0174 0.8383 0.2168
H71? H 0.0588 0.8672 0.1831
H72? H -0.0193 0.8894 0.1830
C72? C 0.1155(15) 0.8852(10) 0.4056(13)
H73? H 0.1392 0.8536 0.4063
H74? H 0.0623 0.8787 0.4031
C73? C 0.1766(16) 0.9051(9) 0.4789(13)
H75? H 0.1950 0.9372 0.4761
H76? H 0.2261 0.8842 0.5041
H77? H 0.1473 0.9065 0.5029
loop_
_geom_bond_atom_site_label_1
_geom_bond_atom_site_label_2
_geom_bond_site_symmetry_1
_geom_bond_site_symmetry_2
O1 C1 1_555 1_555
O2 C1 1_555 1_555
C1 C52 1_555 1_555
O3 C2 1_555 1_555
O4 C2 1_555 1_555
C2 C3 1_555 1_555
C3 C4 1_555 1_555
C4 H1 1_555 1_555
C5 C4 1_555 1_555
H2 C5 1_555 1_555
C6 C5 1_555 1_555
C7 C6 1_555 1_555
C8 C7 1_555 1_555
H3 C8 1_555 1_555
C9 C8 1_555 1_555
C10 C9 1_555 1_555
C11 C10 1_555 1_555
H4 C11 1_555 1_555
C12 C11 1_555 1_555
H5 C12 1_555 1_555
C13 C12 1_555 1_555
O5 C14 1_555 1_555
O6 C14 1_555 1_555
C14 C15 1_555 1_555
C15 C16 1_555 1_555
C16 H6 1_555 1_555
C17 C16 1_555 1_555
H7 C17 1_555 1_555
C18 C17 1_555 1_555
C19 C18 1_555 1_555
C20 C19 1_555 1_555
H8 C20 1_555 1_555
C21 C20 1_555 1_555
C22 C21 1_555 1_555
C23 C22 1_555 1_555
H9 C23 1_555 1_555
C24 C23 1_555 1_555
H10 C24 1_555 1_555
C25 C24 1_555 1_555
C26 C19 1_555 1_555
H11 C26 1_555 1_555
C27 C25 1_555 1_555
O7 C27 1_555 1_555
C28 C31 1_555 1_555
C29 H12 1_555 1_555
C30 C29 1_555 1_555
H13 C30 1_555 1_555
C31 C30 1_555 1_555
C32 C31 1_555 1_555
H14 C32 1_555 1_555
C33 C32 1_555 1_555
H15 C33 1_555 1_555
C34 C3 1_555 1_555
H16 C34 1_555 1_555
C35 C6 1_555 1_555
H17 C35 1_555 1_555
C36 C7 1_555 1_555
H18 C36 1_555 1_555
C37 C36 1_555 1_555
C38 C9 1_555 1_555
H19 C38 1_555 1_555
C39 C13 1_555 1_555
H20 C39 1_555 1_555
C40 C10 1_555 1_555
H21 C40 1_555 1_555
O8 C28 1_555 1_555
O9 C28 1_555 1_555
C41 C29 1_555 1_555
Co1 O7 1_555 1_555
Co2 O10 1_555 1_555
Co3 O11 1_555 1_555
O10 C42 1_555 1_555
O11 Co2 1_555 1_555
O12 C27 1_555 1_555
O13 Co1 1_555 1_555
O14 Co2 1_555 1_555
C42 C13 1_555 1_555
C43 C25 1_555 1_555
H22 C43 1_555 1_555
C44 C22 1_555 1_555
H23 C44 1_555 1_555
C45 C21 1_555 1_555
H24 C45 1_555 1_555
C46 C26 1_555 1_555
C47 C18 1_555 1_555
H25 C47 1_555 1_555
C48 C15 1_555 1_555
H26 C48 1_555 1_555
C49 C46 1_555 1_555
C50 C49 1_555 1_555
H27 C50 1_555 1_555
C51 C50 1_555 1_555
H28 C51 1_555 1_555
C52 C51 1_555 1_555
C53 C52 1_555 1_555
H29 C53 1_555 1_555
C54 C49 1_555 1_555
H30 C54 1_555 1_555
C55 O13 1_555 1_555
H31 C55 1_555 1_555
O15 Co3 1_555 1_555
C56 O15 1_555 1_555
H32 C56 1_555 1_555
N1 C56 1_555 1_555
C57 N1 1_555 1_555
H33 C57 1_555 1_555
H34 C57 1_555 1_555
C58 C57 1_555 1_555
H35 C58 1_555 1_555
H36 C58 1_555 1_555
H37 C58 1_555 1_555
C59 N1 1_555 1_555
H38 C59 1_555 1_555
H39 C59 1_555 1_555
C60 C59 1_555 1_555
H40 C60 1_555 1_555
H41 C60 1_555 1_555
H42 C60 1_555 1_555
N3 H54 1_555 1_555
H55 N3 1_555 1_555
C66 N3 1_555 1_555
H56 C66 1_555 1_555
H57 C66 1_555 1_555
C67 C66 1_555 1_555
H58 C67 1_555 1_555
H59 C67 1_555 1_555
H60 C67 1_555 1_555
C68 N3 1_555 1_555
H61 C68 1_555 1_555
H62 C68 1_555 1_555
C69 C68 1_555 1_555
H63 C69 1_555 1_555
H64 C69 1_555 1_555
H65 C69 1_555 1_555
O1A Co2 1_555 1_555
O2A Co3 1_555 1_555
O3_2 Co1 1_555 1_555
O4_2 Co1 1_555 1_555
O5_2 Co2 1_555 1_555
O6_2 Co2 1_555 1_555
O8A Co3 1_555 1_555
O9A Co1 1_555 1_555
Co1_2 O3 1_555 1_555
Co1A O9 1_555 1_555
Co2_2 O5 1_555 1_555
Co2A O1 1_555 1_555
Co3A O2 1_555 1_555
O4 Co1_2 1_555 1_555
O6 Co2_2 1_555 1_555
C33 C41 1_555 1_555
C34 C35 1_555 1_555
C37 C38 1_555 1_555
C37 C41 1_555 1_555
C39 C40 1_555 1_555
O8 Co3A 1_555 1_555
Co3 O12 1_555 1_555
Co3 O13 1_555 1_555
O11 C42 1_555 1_555
O14 C55 1_555 1_555
C43 C44 1_555 1_555
C45 C46 1_555 1_555
C47 C48 1_555 1_555
C53 C54 1_555 1_555

#END
