
#######################################################################
#
#                 Cambridge Crystallographic Data Centre
#                                CCDC 
#
#######################################################################
#
# If this CIF has been generated from an entry in the Cambridge 
# Structural Database, then it will include bibliographic, chemical, 
# crystal, experimental, refinement or atomic coordinate data resulting 
# from the CCDC's data processing and validation procedures.
#
#######################################################################

data_IXUQUO
_chemical_formula_moiety         
'(C72 H56 N16 O16 Zn4)n,4n(C3 H7 N1 O1),4n(H2 O1)'
_chemical_name_systematic        
'catena-(tetrakis(\m~2~-benzene-1,4-dicarboxylato)-tetrakis(\m~2~-1,2-bis(4-pyridyl)hydrazine)-tetra-zinc N,N-dimethylformamide solvate tetrahydrate)'
_symmetry_cell_setting           orthorhombic
_symmetry_space_group_name_H-M   'F d d 2'
_symmetry_Int_Tables_number      43
_space_group_name_Hall           'F 2 -2d'
loop_
_symmetry_equiv_pos_site_id
_symmetry_equiv_pos_as_xyz
1 x,y,z
2 -x,-y,z
3 1/4+x,1/4-y,1/4+z
4 1/4-x,1/4+y,1/4+z
5 x,1/2+y,1/2+z
6 -x,1/2-y,1/2+z
7 1/4+x,3/4-y,3/4+z
8 1/4-x,3/4+y,3/4+z
9 1/2+x,y,1/2+z
10 1/2-x,-y,1/2+z
11 3/4+x,1/4-y,3/4+z
12 3/4-x,1/4+y,3/4+z
13 1/2+x,1/2+y,z
14 1/2-x,1/2-y,z
15 3/4+x,3/4-y,1/4+z
16 3/4-x,3/4+y,1/4+z
_cell_length_a                   28.942(3)
_cell_length_b                   58.653(5)
_cell_length_c                   21.5267(19)
_cell_angle_alpha                90
_cell_angle_beta                 90
_cell_angle_gamma                90
_cell_volume                     36542.3
_exptl_crystal_colour            'pale yellow'
_exptl_crystal_description       block
_cell_formula_units_Z            16
loop_
_atom_site_label
_atom_site_type_symbol
_atom_site_fract_x
_atom_site_fract_y
_atom_site_fract_z
Zn1 Zn 0.872750(15) 1.257425(7) 0.97408(3)
Zn2 Zn 0.616331(14) 1.109214(6) 0.97080(2)
Zn3 Zn 0.377740(14) 1.251820(6) 0.97810(3)
Zn4 Zn 1.135150(15) 1.114010(6) 0.98392(3)
C1 C 0.85696(14) 1.22209(6) 1.0697(2)
H1 H 0.8876 1.2252 1.0794
C2 C 0.83300(14) 1.20569(7) 1.1042(2)
H2 H 0.8480 1.1980 1.1361
C3 C 0.78780(15) 1.20089(6) 1.0916(3)
C4 C 0.76652(15) 1.21213(7) 1.0416(3)
H3 H 0.7359 1.2092 1.0312
C5 C 0.79169(14) 1.22734(7) 1.0092(2)
H4 H 0.7777 1.2342 0.9752
C6 C 0.69861(12) 1.13552(5) 1.01770(19)
H5 H 0.7155 1.1259 0.9919
C7 C 0.72253(13) 1.15123(5) 1.05150(19)
H6 H 0.7546 1.1517 1.0504
C8 C 0.69867(16) 1.16604(6) 1.0864(3)
C9 C 0.65049(16) 1.16450(7) 1.0880(2)
H7 H 0.6332 1.1750 1.1106
C10 C 0.62785(14) 1.14627(8) 1.0537(3)
H8 H 0.5961 1.1442 1.0568
C11 C 0.68669(14) 1.09150(5) 0.89643(19)
C12 C 0.71770(12) 1.07371(5) 0.87213(18)
C13 C 0.75109(18) 1.07871(6) 0.8291(2)
H9 H 0.7547 1.0938 0.8170
C14 C 0.78034(14) 1.06223(6) 0.8020(2)
H10 H 0.8036 1.0665 0.7744
C15 C 0.77339(13) 1.03942(6) 0.81769(19)
C16 C 0.73867(13) 1.03441(6) 0.85959(19)
H11 H 0.7327 1.0193 0.8699
C17 C 0.71264(13) 1.05167(5) 0.88639(19)
H12 H 0.6905 1.0477 0.9158
C18 C 0.80016(13) 1.02133(5) 0.79085(19)
C19 C 0.44120(18) 1.02791(8) 1.1893(3)
C20 C 0.46963(16) 1.04410(7) 1.1479(3)
C21 C 0.4784(2) 1.03858(8) 1.0870(3)
H13 H 0.4651 1.0257 1.0693
C22 C 0.5071(2) 1.05236(8) 1.0525(3)
H14 H 0.5158 1.0475 1.0130
C23 C 0.52271(17) 1.07212(7) 1.0729(3)
C24 C 0.51330(19) 1.07596(7) 1.1346(2)
H15 H 0.5257 1.0890 1.1525
C25 C 0.48778(19) 1.06244(7) 1.1710(3)
H16 H 0.4831 1.0662 1.2125
C26 C 0.55314(18) 1.08616(8) 1.0404(3)
C27 C 0.38158(14) 1.21716(7) 0.8757(2)
H17 H 0.3504 1.2208 0.8728
C28 C 0.39816(14) 1.20132(5) 0.8357(2)
H18 H 0.3793 1.1950 0.8052
C29 C 0.44387(14) 1.19474(5) 0.84153(19)
C30 C 0.47056(13) 1.20524(5) 0.88676(19)
H19 H 0.5014 1.2013 0.8918
C31 C 0.45125(13) 1.22122(6) 0.9232(2)
H20 H 0.4696 1.2281 0.9531
C32 C 0.52981(14) 1.16098(6) 0.83598(19)
C33 C 0.50789(13) 1.14718(5) 0.87963(19)
H21 H 0.4760 1.1481 0.8843
C34 C 0.53231(13) 1.13242(6) 0.9155(2)
H22 H 0.5156 1.1235 0.9434
C35 C 0.60158(15) 1.14371(6) 0.8716(2)
H23 H 0.6336 1.1429 0.8681
C36 C 0.57836(14) 1.15876(6) 0.8352(2)
H24 H 0.5952 1.1680 0.8085
C37 C 1.37484(12) 1.21741(6) 1.0814(2)
H25 H 1.4065 1.2199 1.0832
C38 C 1.35585(15) 1.20179(6) 1.1188(2)
H26 H 1.3746 1.1939 1.1465
C39 C 1.30882(14) 1.19713(5) 1.1173(2)
C40 C 1.28296(15) 1.21009(6) 1.0780(2)
H27 H 1.2511 1.2081 1.0765
C41 C 1.30323(14) 1.22579(6) 1.0410(2)
H28 H 1.2844 1.2342 1.0147
C42 C 1.21901(15) 1.16374(6) 1.1204(2)
C43 C 1.24378(14) 1.14935(6) 1.0780(2)
H29 H 1.2758 1.1500 1.0753
C44 C 1.21807(16) 1.13425(6) 1.0406(3)
H30 H 1.2334 1.1244 1.0137
C45 C 1.15206(15) 1.14756(7) 1.0799(3)
H31 H 1.1199 1.1478 1.0787
C46 C 1.17259(16) 1.16280(8) 1.1227(3)
H32 H 1.1553 1.1715 1.1504
C47 C 1.05472(15) 1.13927(6) 0.9308(2)
H33 H 1.0367 1.1288 0.9522
C48 C 1.03293(14) 1.15541(7) 0.8971(2)
H34 H 1.0008 1.1556 0.8960
C49 C 1.05608(15) 1.17068(6) 0.8661(2)
C50 C 1.10328(16) 1.16936(7) 0.8703(3)
H35 H 1.1212 1.1803 0.8502
C51 C 1.12338(14) 1.15364(7) 0.9010(3)
H36 H 1.1555 1.1529 0.9004
C52 C 0.96412(15) 1.20484(7) 0.8591(2)
C53 C 0.91711(17) 1.20643(6) 0.8470(2)
H37 H 0.9023 1.1973 0.8178
C54 C 0.89407(14) 1.22276(6) 0.8817(2)
H38 H 0.8626 1.2242 0.8743
C55 C 0.95505(15) 1.23267(7) 0.9315(2)
H39 H 0.9684 1.2417 0.9621
C56 C 0.98387(17) 1.21830(7) 0.9035(2)
H40 H 1.0151 1.2175 0.9135
C57 C 1.0541(2) 1.33989(8) 1.1733(3)
C58 C 1.02151(18) 1.32623(7) 1.1349(3)
C59 C 1.0052(2) 1.30536(7) 1.1552(3)
H41 H 1.0124 1.3005 1.1952
C60 C 0.97935(18) 1.29201(7) 1.1191(2)
H42 H 0.9709 1.2776 1.1333
C61 C 0.96506(13) 1.29883(6) 1.06216(18)
C62 C 0.98186(19) 1.31993(7) 1.0413(2)
H43 H 0.9741 1.3253 1.0020
C63 C 1.01084(19) 1.33296(7) 1.0807(3)
H44 H 1.0224 1.3468 1.0665
C64 C 0.93299(15) 1.28389(8) 1.0219(2)
C65 C 0.68684(14) 1.34722(6) 0.8047(2)
C66 C 0.71774(14) 1.32833(6) 0.82961(19)
C67 C 0.71259(14) 1.30602(5) 0.8115(2)
H45 H 0.6892 1.3020 0.7840
C68 C 0.74138(14) 1.29001(6) 0.8335(2)
H46 H 0.7383 1.2751 0.8197
C69 C 0.77571(14) 1.29519(6) 0.8764(2)
C70 C 0.78016(17) 1.31718(7) 0.8976(3)
H47 H 0.8017 1.3207 0.9282
C71 C 0.75129(14) 1.33452(6) 0.8722(2)
H48 H 0.7549 1.3497 0.8839
C72 C 0.80875(16) 1.27768(6) 0.9048(3)
N1 N 0.65241(11) 1.13287(5) 1.01876(19)
N2 N 0.71862(14) 1.18273(6) 1.1233(2)
H49 H 0.7015 1.1922 1.1434
N3 N 0.76787(12) 1.18410(6) 1.1277(2)
H50 H 0.7838 1.1752 1.1511
N4 N 0.83636(12) 1.23341(5) 1.02265(18)
N5 N 0.40631(11) 1.22784(5) 0.91867(17)
N6 N 0.46267(15) 1.17885(5) 0.8017(2)
H51 H 0.4448 1.1706 0.7790
N7 N 0.50938(13) 1.17603(5) 0.7980(2)
H52 H 0.5254 1.1838 0.7718
N8 N 0.57941(11) 1.12937(5) 0.91440(17)
N9 N 1.34829(10) 1.22996(5) 1.03996(17)
N10 N 1.29118(12) 1.18082(5) 1.15433(17)
H53 H 1.3094 1.1723 1.1756
N11 N 1.24192(13) 1.17766(5) 1.1585(2)
H54 H 1.2268 1.1850 1.1864
N12 N 1.17088(11) 1.13392(5) 1.04353(18)
N13 N 1.09914(11) 1.13749(5) 0.93532(16)
N14 N 1.03706(16) 1.18636(8) 0.8340(3)
H55 H 1.0554 1.1960 0.8168
N15 N 0.98898(15) 1.18979(7) 0.8234(2)
H56 H 0.9753 1.1824 0.7943
N16 N 0.91115(11) 1.23602(5) 0.92283(17)
O1 O 0.68718(12) 1.11089(4) 0.87466(16)
O2 O 0.66152(9) 1.08605(4) 0.94313(13)
O3 O 0.83140(10) 1.02717(4) 0.75200(14)
O4 O 0.79156(10) 1.00120(4) 0.80421(15)
O5 O 0.43839(13) 1.03278(6) 1.2480(2)
O6 O 0.41617(11) 1.01543(5) 1.1661(2)
O7 O 0.56301(13) 1.08351(6) 0.98753(19)
O8 O 0.57300(13) 1.10179(6) 1.0580(2)
O9 O 1.07425(13) 1.35611(6) 1.1566(2)
O10 O 1.05665(13) 1.33539(5) 1.2330(2)
O11 O 0.90950(10) 1.26910(5) 1.04766(16)
O12 O 0.93453(12) 1.28727(6) 0.96305(18)
O13 O 0.66018(9) 1.34080(4) 0.75681(14)
O14 O 0.68669(12) 1.36609(4) 0.82565(16)
O15 O 0.82976(12) 1.28112(5) 0.95200(19)
O16 O 0.81384(14) 1.25962(5) 0.8733(2)
Zn3_2 Zn 1.377740(14) 1.251820(6) 0.97810(3)
Zn3G Zn 0.872260(14) 1.001820(6) 0.72810(3)
Zn3O Zn 0.372260(14) 1.001820(6) 1.22810(3)
Zn4C Zn 1.114850(15) 1.364010(6) 1.23392(3)
Zn4K Zn 0.614850(15) 1.364010(6) 0.73392(3)
N9_2 N 0.34829(10) 1.22996(5) 1.03996(17)
O3C O 0.41860(10) 1.27717(4) 1.00200(14)
O6K O 0.33383(11) 1.26543(5) 0.9161(2)
O9G O 1.17575(13) 1.10611(6) 0.9066(2)
O13O O 1.08982(9) 1.09080(4) 1.00681(14)
loop_
_geom_bond_atom_site_label_1
_geom_bond_atom_site_label_2
_geom_bond_site_symmetry_1
_geom_bond_site_symmetry_2
Zn1 N4 1_555 1_555
Zn2 N1 1_555 1_555
Zn3 N5 1_555 1_555
Zn4 N12 1_555 1_555
C1 H1 1_555 1_555
C2 C1 1_555 1_555
H2 C2 1_555 1_555
C3 C2 1_555 1_555
C4 C3 1_555 1_555
H3 C4 1_555 1_555
C5 C4 1_555 1_555
H4 C5 1_555 1_555
C6 H5 1_555 1_555
C7 C6 1_555 1_555
H6 C7 1_555 1_555
C8 C7 1_555 1_555
C9 C8 1_555 1_555
H7 C9 1_555 1_555
C10 C9 1_555 1_555
H8 C10 1_555 1_555
C11 C12 1_555 1_555
C12 C13 1_555 1_555
C13 H9 1_555 1_555
C14 C13 1_555 1_555
H10 C14 1_555 1_555
C15 C14 1_555 1_555
C16 C15 1_555 1_555
H11 C16 1_555 1_555
C17 C12 1_555 1_555
H12 C17 1_555 1_555
C18 C15 1_555 1_555
C19 C20 1_555 1_555
C20 C21 1_555 1_555
C21 H13 1_555 1_555
C22 C21 1_555 1_555
H14 C22 1_555 1_555
C23 C22 1_555 1_555
C24 C23 1_555 1_555
H15 C24 1_555 1_555
C25 C20 1_555 1_555
H16 C25 1_555 1_555
C26 C23 1_555 1_555
C27 H17 1_555 1_555
C28 C27 1_555 1_555
H18 C28 1_555 1_555
C29 C28 1_555 1_555
C30 C29 1_555 1_555
H19 C30 1_555 1_555
C31 C30 1_555 1_555
H20 C31 1_555 1_555
C32 C33 1_555 1_555
C33 H21 1_555 1_555
C34 C33 1_555 1_555
H22 C34 1_555 1_555
C35 H23 1_555 1_555
C36 C32 1_555 1_555
H24 C36 1_555 1_555
C37 H25 1_555 1_555
C38 C37 1_555 1_555
H26 C38 1_555 1_555
C39 C38 1_555 1_555
C40 C39 1_555 1_555
H27 C40 1_555 1_555
C41 C40 1_555 1_555
H28 C41 1_555 1_555
C42 C43 1_555 1_555
C43 H29 1_555 1_555
C44 C43 1_555 1_555
H30 C44 1_555 1_555
C45 H31 1_555 1_555
C46 C42 1_555 1_555
H32 C46 1_555 1_555
C47 H33 1_555 1_555
C48 C47 1_555 1_555
H34 C48 1_555 1_555
C49 C48 1_555 1_555
C50 C49 1_555 1_555
H35 C50 1_555 1_555
C51 C50 1_555 1_555
H36 C51 1_555 1_555
C52 C53 1_555 1_555
C53 H37 1_555 1_555
C54 C53 1_555 1_555
H38 C54 1_555 1_555
C55 H39 1_555 1_555
C56 C52 1_555 1_555
H40 C56 1_555 1_555
C57 C58 1_555 1_555
C58 C59 1_555 1_555
C59 H41 1_555 1_555
C60 C59 1_555 1_555
H42 C60 1_555 1_555
C61 C60 1_555 1_555
C62 C61 1_555 1_555
H43 C62 1_555 1_555
C63 C58 1_555 1_555
H44 C63 1_555 1_555
C64 C61 1_555 1_555
C65 C66 1_555 1_555
C66 C67 1_555 1_555
C67 H45 1_555 1_555
C68 C67 1_555 1_555
H46 C68 1_555 1_555
C69 C68 1_555 1_555
C70 C69 1_555 1_555
H47 C70 1_555 1_555
C71 C66 1_555 1_555
H48 C71 1_555 1_555
C72 C69 1_555 1_555
N1 C6 1_555 1_555
N2 C8 1_555 1_555
H49 N2 1_555 1_555
N3 C3 1_555 1_555
H50 N3 1_555 1_555
N4 C1 1_555 1_555
N5 C27 1_555 1_555
N6 C29 1_555 1_555
H51 N6 1_555 1_555
N7 C32 1_555 1_555
H52 N7 1_555 1_555
N8 Zn2 1_555 1_555
N9 C37 1_555 1_555
N10 C39 1_555 1_555
H53 N10 1_555 1_555
N11 C42 1_555 1_555
H54 N11 1_555 1_555
N12 C44 1_555 1_555
N13 Zn4 1_555 1_555
N14 C49 1_555 1_555
H55 N14 1_555 1_555
N15 C52 1_555 1_555
H56 N15 1_555 1_555
N16 Zn1 1_555 1_555
O1 C11 1_555 1_555
O2 Zn2 1_555 1_555
O3 C18 1_555 1_555
O4 C18 1_555 1_555
O5 C19 1_555 1_555
O6 C19 1_555 1_555
O7 Zn2 1_555 1_555
O8 C26 1_555 1_555
O9 C57 1_555 1_555
O10 C57 1_555 1_555
O11 Zn1 1_555 1_555
O12 C64 1_555 1_555
O13 C65 1_555 1_555
O14 C65 1_555 1_555
O15 Zn1 1_555 1_555
O16 C72 1_555 1_555
Zn3_2 N9 1_555 1_555
Zn3G O3 1_555 1_555
Zn3O O6 1_555 1_555
Zn4C O9 1_555 1_555
Zn4K O13 1_555 1_555
N9_2 Zn3 1_555 1_555
O3C Zn3 1_555 1_555
O6K Zn3 1_555 1_555
O9G Zn4 1_555 1_555
O13O Zn4 1_555 1_555
C5 N4 1_555 1_555
C10 N1 1_555 1_555
C11 O2 1_555 1_555
C16 C17 1_555 1_555
C24 C25 1_555 1_555
C26 O7 1_555 1_555
C31 N5 1_555 1_555
C34 N8 1_555 1_555
C35 C36 1_555 1_555
C35 N8 1_555 1_555
C41 N9 1_555 1_555
C45 C46 1_555 1_555
C45 N12 1_555 1_555
C47 N13 1_555 1_555
C51 N13 1_555 1_555
C54 N16 1_555 1_555
C55 C56 1_555 1_555
C55 N16 1_555 1_555
C62 C63 1_555 1_555
C64 O11 1_555 1_555
C70 C71 1_555 1_555
C72 O15 1_555 1_555
N2 N3 1_555 1_555
N6 N7 1_555 1_555
N10 N11 1_555 1_555
N14 N15 1_555 1_555

#END
