
#######################################################################
#
#                 Cambridge Crystallographic Data Centre
#                                CCDC 
#
#######################################################################
#
# If this CIF has been generated from an entry in the Cambridge 
# Structural Database, then it will include bibliographic, chemical, 
# crystal, experimental, refinement or atomic coordinate data resulting 
# from the CCDC's data processing and validation procedures.
#
#######################################################################

data_IXUREZ
_chemical_formula_moiety         '(C52 H36 N8 O16 Zn4)n,3n(C2 H6 O1),2n(H2 O1)'
_chemical_name_systematic        
'catena-(tetrakis(\m~4~-benzene-1,4-dicarboxylato)-bis(\m~2~-1,2-bis(4-pyridyl)hydrazine)-tetra-zinc ethanol solvate dihydrate)'
_symmetry_cell_setting           triclinic
_symmetry_space_group_name_H-M   'P -1'
_symmetry_Int_Tables_number      2
_space_group_name_Hall           '-P 1'
loop_
_symmetry_equiv_pos_site_id
_symmetry_equiv_pos_as_xyz
1 x,y,z
2 -x,-y,-z
_cell_length_a                   10.877(7)
_cell_length_b                   17.619(12)
_cell_length_c                   20.499(14)
_cell_angle_alpha                110.788(12)
_cell_angle_beta                 93.326(13)
_cell_angle_gamma                90.408(12)
_cell_volume                     3664.92
_exptl_crystal_colour            'pale yellow'
_exptl_crystal_description       block
_cell_formula_units_Z            2
loop_
_atom_site_label
_atom_site_type_symbol
_atom_site_fract_x
_atom_site_fract_y
_atom_site_fract_z
Zn1 Zn 0.81675(5) 0.56118(4) 0.77262(3)
Zn2 Zn 0.82175(5) 0.44178(3) 0.84484(3)
Zn3 Zn 0.85660(5) 1.06026(4) 1.27563(3)
Zn4 Zn 0.86766(5) 0.94199(4) 0.34917(3)
C1 C 0.8203(5) 0.6204(3) 0.9272(3)
C2 C 0.8198(5) 0.6876(3) 0.9965(3)
C3 C 0.8009(5) 0.7669(3) 1.0024(3)
H1 H 0.7833 0.7787 0.9622
C4 C 0.8072(5) 0.8274(3) 1.0646(3)
H2 H 0.7951 0.8804 1.0669
C5 C 0.8314(5) 0.8121(3) 1.1253(3)
C6 C 0.8464(5) 0.7332(3) 1.1211(3)
H3 H 0.8603 0.7219 1.1618
C7 C 0.8411(5) 0.6704(3) 1.0571(3)
H4 H 0.8518 0.6172 1.0547
C8 C 0.8436(5) 0.8796(3) 1.1954(3)
C9 C 0.5838(5) 0.5008(3) 0.8042(3)
C10 C 0.4457(5) 0.5023(3) 0.8055(3)
C11 C 0.3805(6) 0.5586(4) 0.7860(4)
H5 H 0.4229 0.5954 0.7716
C12 C 0.2557(5) 0.5615(4) 0.7872(4)
H6 H 0.2138 0.6000 0.7737
C13 C 0.1916(5) 0.5084(3) 0.8082(3)
C14 C 0.2546(6) 0.4543(4) 0.8289(4)
H7 H 0.2120 0.4187 0.8444
C15 C 0.3800(5) 0.4509(4) 0.8275(4)
H8 H 0.4211 0.4128 0.8418
C16 C 0.0546(5) 0.5117(4) 0.8098(3)
C17 C 0.8287(5) 0.3802(3) 0.6942(3)
C18 C 0.8429(5) 0.3140(3) 0.6266(3)
C19 C 0.8511(6) 0.3301(3) 0.5656(3)
H9 H 0.8469 0.3834 0.5674
C20 C 0.8652(6) 0.2688(4) 0.5023(3)
H10 H 0.8739 0.2812 0.4623
C21 C 0.8662(5) 0.1888(3) 0.4986(3)
C22 C 0.8608(5) 0.1721(3) 0.5600(3)
H11 H 0.8649 0.1188 0.5584
C23 C 0.8494(5) 0.2334(3) 0.6222(3)
H12 H 0.8459 0.2212 0.6627
C24 C 0.8723(5) 0.1212(4) 0.4292(3)
C25 C 0.8432(5) 0.3944(3) 0.9697(3)
H13 H 0.8401 0.4501 0.9934
C26 C 0.8595(5) 0.3462(4) 1.0082(3)
H14 H 0.8672 0.3686 1.0568
C27 C 0.8645(5) 0.2633(4) 0.9742(3)
C28 C 0.8487(6) 0.2324(3) 0.9015(3)
H15 H 0.8490 0.1767 0.8772
C29 C 0.8328(5) 0.2853(4) 0.8662(3)
H16 H 0.8227 0.2643 0.8177
C30 C 0.9060(6) 0.2056(4) 1.1216(3)
C31 C 0.8167(6) 0.1477(4) 1.1088(3)
H17 H 0.7667 0.1326 1.0676
C32 C 0.8001(6) 0.1118(4) 1.1561(3)
H18 H 0.7392 0.0711 1.1451
C33 C 0.9481(6) 0.1909(4) 1.2316(3)
H19 H 0.9934 0.2069 1.2744
C34 C 0.9698(6) 0.2294(4) 1.1874(3)
H20 H 1.0275 0.2721 1.2004
C35 C 0.6271(5) 1.0065(4) 1.3075(3)
C36 C 0.4886(5) 1.0052(4) 1.3082(3)
C37 C 0.4181(5) 1.0548(4) 1.2844(3)
H21 H 0.4564 1.0901 1.2668
C38 C 0.2897(5) 1.0540(4) 1.2858(4)
H22 H 0.2434 1.0894 1.2706
C39 C 0.2333(5) 1.0007(4) 1.3098(3)
C40 C 0.3016(6) 0.9507(4) 1.3323(4)
H23 H 0.2630 0.9142 1.3486
C41 C 0.4298(6) 0.9526(4) 1.3315(4)
H24 H 0.4756 0.9173 1.3472
C42 C 0.0976(6) 1.0005(4) 1.3116(3)
C43 C 0.8375(5) 0.8912(4) 0.4694(3)
H25 H 0.8462 0.9467 0.4945
C44 C 0.8143(6) 0.8412(4) 0.5058(3)
H26 H 0.8095 0.8620 0.5540
C45 C 0.7984(7) 0.7600(4) 0.4692(4)
C46 C 0.8151(7) 0.7301(4) 0.3957(4)
H27 H 0.8102 0.6747 0.3700
C47 C 0.8382(6) 0.7844(4) 0.3644(3)
H28 H 0.8473 0.7652 0.3165
C48 C 0.7502(7) 0.6964(5) 0.6109(4)
C49 C 0.6757(7) 0.7126(5) 0.6676(4)
H29 H 0.6090 0.7464 0.6721
C50 C 0.7041(7) 0.6769(4) 0.7170(4)
H30 H 0.6549 0.6869 0.7547
C51 C 0.8672(6) 0.6176(4) 0.6584(3)
H31 H 0.9338 0.5838 0.6544
C52 C 0.8484(6) 0.6509(4) 0.6084(3)
H32 H 0.9027 0.6422 0.5732
N1 N 0.8313(4) 0.3670(3) 0.8994(2)
N2 N 0.8878(5) 0.2110(3) 1.0091(3)
H33 H 0.8739 0.1596 0.9888
N3 N 0.9340(5) 0.2430(3) 1.0773(3)
H34 H 0.9801 0.2863 1.0914
N4 N 0.8638(4) 0.1301(3) 1.2165(2)
N5 N 0.8485(4) 0.8655(3) 0.4001(2)
N6 N 0.7691(7) 0.7024(4) 0.4993(4)
H35 H 0.7834 0.6517 0.4794
N7 N 0.7162(6) 0.7318(4) 0.5625(4)
H36 H 0.6644 0.7703 0.5714
N8 N 0.7994(4) 0.6290(3) 0.7119(2)
O1 O 0.8313(4) 0.6405(2) 0.87415(19)
O2 O 0.8120(4) 0.5487(2) 0.92521(19)
O3 O 0.8443(4) 0.9506(2) 1.1950(2)
O4 O 0.8531(4) 0.8623(2) 1.2490(2)
O5 O 0.6363(3) 0.5505(2) 0.7845(2)
O6 O 0.6365(3) 0.4496(2) 0.8251(2)
O7 O 0.0035(3) 0.4720(3) 0.8407(2)
O8 O 0.0010(4) 0.5539(3) 0.7794(2)
O9 O 0.8134(4) 0.4500(2) 0.69399(19)
O10 O 0.8319(4) 0.3614(2) 0.74738(19)
O11 O 0.8673(4) 0.1391(2) 0.3750(2)
O12 O 0.8770(4) 0.0499(2) 0.4291(2)
O13 O 0.6733(4) 1.0528(3) 1.2810(3)
O14 O 0.6839(4) 0.9622(3) 1.3333(2)
O15 O 0.0401(4) 1.0424(3) 1.2844(2)
O16 O 0.0511(3) 0.9554(2) 1.3405(2)
Zn1_2 Zn -0.18325(5) 0.56118(4) 0.77262(3)
Zn2_2 Zn -0.17825(5) 0.44178(3) 0.84484(3)
Zn3_2 Zn 0.85660(5) 0.06026(4) 1.27563(3)
Zn3_3 Zn 0.85660(5) 0.06026(4) 0.27563(3)
Zn3_4 Zn -0.14340(5) 1.06026(4) 1.27563(3)
Zn4_2 Zn 0.86766(5) 0.94199(4) 1.34917(3)
Zn4_3 Zn 0.86766(5) -0.05801(4) 0.34917(3)
Zn4_4 Zn -0.13234(5) 0.94199(4) 1.34917(3)
N4_2 N 0.8638(4) 1.1301(3) 1.2165(2)
O4_2 O 0.8531(4) 0.8623(2) 0.2490(2)
O7_2 O 1.0035(3) 0.4720(3) 0.8407(2)
O8_2 O 1.0010(4) 0.5539(3) 0.7794(2)
O11_2 O 0.8673(4) 1.1391(2) 1.3750(2)
O12_2 O 0.8770(4) 1.0499(2) 0.4291(2)
O14_2 O 0.6839(4) 0.9622(3) 0.3333(2)
O15_2 O 1.0401(4) 1.0424(3) 1.2844(2)
O16_2 O 1.0511(3) 0.9554(2) 0.3405(2)
loop_
_geom_bond_atom_site_label_1
_geom_bond_atom_site_label_2
_geom_bond_site_symmetry_1
_geom_bond_site_symmetry_2
Zn1 N8 1_555 1_555
Zn2 N1 1_555 1_555
Zn3 O3 1_555 1_555
Zn4 N5 1_555 1_555
C1 C2 1_555 1_555
C2 C3 1_555 1_555
C3 H1 1_555 1_555
C4 C3 1_555 1_555
H2 C4 1_555 1_555
C5 C4 1_555 1_555
C6 C5 1_555 1_555
H3 C6 1_555 1_555
C7 C2 1_555 1_555
H4 C7 1_555 1_555
C8 C5 1_555 1_555
C9 C10 1_555 1_555
C10 C11 1_555 1_555
C11 H5 1_555 1_555
C12 C11 1_555 1_555
H6 C12 1_555 1_555
C13 C12 1_555 1_555
C14 C13 1_555 1_555
H7 C14 1_555 1_555
C15 C10 1_555 1_555
H8 C15 1_555 1_555
C16 C13 1_555 1_555
C17 C18 1_555 1_555
C18 C19 1_555 1_555
C19 H9 1_555 1_555
C20 C19 1_555 1_555
H10 C20 1_555 1_555
C21 C20 1_555 1_555
C22 C21 1_555 1_555
H11 C22 1_555 1_555
C23 C18 1_555 1_555
H12 C23 1_555 1_555
C24 C21 1_555 1_555
C25 H13 1_555 1_555
C26 C25 1_555 1_555
H14 C26 1_555 1_555
C27 C26 1_555 1_555
C28 C27 1_555 1_555
H15 C28 1_555 1_555
C29 C28 1_555 1_555
H16 C29 1_555 1_555
C30 C31 1_555 1_555
C31 H17 1_555 1_555
C32 C31 1_555 1_555
H18 C32 1_555 1_555
C33 H19 1_555 1_555
C34 C30 1_555 1_555
H20 C34 1_555 1_555
C35 C36 1_555 1_555
C36 C37 1_555 1_555
C37 H21 1_555 1_555
C38 C37 1_555 1_555
H22 C38 1_555 1_555
C39 C38 1_555 1_555
C40 C39 1_555 1_555
H23 C40 1_555 1_555
C41 C36 1_555 1_555
H24 C41 1_555 1_555
C42 C39 1_555 1_555
C43 H25 1_555 1_555
C44 C43 1_555 1_555
H26 C44 1_555 1_555
C45 C44 1_555 1_555
C46 C45 1_555 1_555
H27 C46 1_555 1_555
C47 C46 1_555 1_555
H28 C47 1_555 1_555
C48 C49 1_555 1_555
C49 H29 1_555 1_555
C50 C49 1_555 1_555
H30 C50 1_555 1_555
C51 H31 1_555 1_555
C52 C48 1_555 1_555
H32 C52 1_555 1_555
N1 C25 1_555 1_555
N2 C27 1_555 1_555
H33 N2 1_555 1_555
N3 C30 1_555 1_555
H34 N3 1_555 1_555
N4 C32 1_555 1_555
N5 C43 1_555 1_555
N6 C45 1_555 1_555
H35 N6 1_555 1_555
N7 C48 1_555 1_555
H36 N7 1_555 1_555
N8 C50 1_555 1_555
O1 Zn1 1_555 1_555
O2 Zn2 1_555 1_555
O3 C8 1_555 1_555
O4 C8 1_555 1_555
O5 Zn1 1_555 1_555
O6 Zn2 1_555 1_555
O7 C16 1_555 1_555
O8 C16 1_555 1_555
O9 Zn1 1_555 1_555
O10 Zn2 1_555 1_555
O11 C24 1_555 1_555
O12 C24 1_555 1_555
O13 Zn3 1_555 1_555
O14 C35 1_555 1_555
O15 C42 1_555 1_555
O16 C42 1_555 1_555
Zn1_2 O8 1_555 1_555
Zn2_2 O7 1_555 1_555
Zn3_2 N4 1_555 1_555
Zn3_3 O11 1_555 1_555
Zn3_4 O15 1_555 1_555
Zn4_2 O4 1_555 1_555
Zn4_3 O12 1_555 1_555
Zn4_4 O16 1_555 1_555
N4_2 Zn3 1_555 1_555
O4_2 Zn4 1_555 1_555
O7_2 Zn2 1_555 1_555
O8_2 Zn1 1_555 1_555
O11_2 Zn3 1_555 1_555
O12_2 Zn4 1_555 1_555
O14_2 Zn4 1_555 1_555
O15_2 Zn3 1_555 1_555
O16_2 Zn4 1_555 1_555
C1 O1 1_555 1_555
C1 O2 1_555 1_555
C6 C7 1_555 1_555
C9 O5 1_555 1_555
C9 O6 1_555 1_555
C14 C15 1_555 1_555
C17 O9 1_555 1_555
C17 O10 1_555 1_555
C22 C23 1_555 1_555
C29 N1 1_555 1_555
C33 C34 1_555 1_555
C33 N4 1_555 1_555
C35 O13 1_555 1_555
C40 C41 1_555 1_555
C47 N5 1_555 1_555
C51 C52 1_555 1_555
C51 N8 1_555 1_555
N2 N3 1_555 1_555
N6 N7 1_555 1_555
O14 Zn4_2 1_555 1_555

#END
