
#######################################################################
#
#                 Cambridge Crystallographic Data Centre
#                                CCDC 
#
#######################################################################
#
# If this CIF has been generated from an entry in the Cambridge 
# Structural Database, then it will include bibliographic, chemical, 
# crystal, experimental, refinement or atomic coordinate data resulting 
# from the CCDC's data processing and validation procedures.
#
#######################################################################

data_ZODXOH
_chemical_formula_moiety         '(C48 H24 Fe2 N12)n'
_chemical_name_systematic        
catena-(tris(\m~4~-1,4-bis(Pyrazolato-4-ylethynyl)benzene)-di-iron)
_symmetry_cell_setting           orthorhombic
_symmetry_space_group_name_H-M   'F d d d'
_symmetry_Int_Tables_number      70
_space_group_name_Hall           '-F 2uv 2vw'
loop_
_symmetry_equiv_pos_site_id
_symmetry_equiv_pos_as_xyz
1 x,y,z
2 1/4-x,1/4-y,z
3 1/4-x,3/4-y,1/2+z
4 1/4-x,y,1/4-z
5 1/4-x,1/2+y,3/4-z
6 3/4-x,1/4-y,1/2+z
7 3/4-x,3/4-y,z
8 3/4-x,y,3/4-z
9 3/4-x,1/2+y,1/4-z
10 x,1/4-y,1/4-z
11 x,3/4-y,3/4-z
12 x,1/2+y,1/2+z
13 1/2+x,1/4-y,3/4-z
14 1/2+x,3/4-y,1/4-z
15 1/2+x,y,1/2+z
16 1/2+x,1/2+y,z
17 -x,-y,-z
18 3/4+x,3/4+y,-z
19 3/4+x,1/4+y,1/2-z
20 3/4+x,-y,3/4+z
21 3/4+x,1/2-y,1/4+z
22 1/4+x,3/4+y,1/2-z
23 1/4+x,1/4+y,-z
24 1/4+x,-y,1/4+z
25 1/4+x,1/2-y,3/4+z
26 -x,3/4+y,3/4+z
27 -x,1/4+y,1/4+z
28 -x,1/2-y,1/2-z
29 1/2-x,3/4+y,1/4+z
30 1/2-x,1/4+y,3/4+z
31 1/2-x,-y,1/2-z
32 1/2-x,1/2-y,-z
_cell_length_a                   7.3968(53)
_cell_length_b                   36.3567(25)
_cell_length_c                   63.4375(97)
_cell_angle_alpha                90
_cell_angle_beta                 90
_cell_angle_gamma                90
_cell_volume                     17059.8
_exptl_crystal_colour            black
_cell_formula_units_Z            8
loop_
_atom_site_label
_atom_site_type_symbol
_atom_site_fract_x
_atom_site_fract_y
_atom_site_fract_z
_atom_site_U_iso_or_equiv
_atom_site_thermal_displace_type
Fe1 Fe 0.375 0.375 0.12114(41) 0.0521 Uiso
N1 N 0.216932 0.339619 0.125 0.0774 Uiso
N2 N 0.310323 0.397124 0.102267 0.0774 Uiso
N3 N 0.631777 0.352876 0.142614 0.0774 Uiso
C1 C 0.273749 0.304042 0.125 0.0774 Uiso
C2 C 0.328854 0.414178 0.083309 0.0774 Uiso
C3 C 0.125 0.282055 0.125 0.0774 Uiso
H1 H 0.391079 0.293414 0.125 0.0774 Uiso
C4 C 0.039961 0.414178 0.091591 0.0774 Uiso
C5 C 0.161761 0.424717 0.076710 0.0774 Uiso
H2 H 0.431844 0.419272 0.074851 0.0774 Uiso
C6 C 0.125 0.239697 0.125 0.0774 Uiso
H3 H -0.084922 0.419272 0.089666 0.0774 Uiso
C7 C 0.118134 0.445021 0.056021 0.0774 Uiso
C8 C 0.125 0.205590 0.125 0.0774 Uiso
C9 C 0.083005 0.461370 0.039363 0.0774 Uiso
C10 C 0.125 0.163232 0.125 0.0774 Uiso
C11 C 0.039378 0.481674 0.018674 0.0774 Uiso
C12 C 0.098722 0.144116 0.143727 0.0774 Uiso
C13 C -0.086013 0.510150 0.018593 0.0774 Uiso
C14 C 0.125391 0.471524 0.000 0.0774 Uiso
H4 H 0.080762 0.157181 0.156526 0.0774 Uiso
H5 H -0.144799 0.517087 0.031300 0.0774 Uiso
H6 H 0.211090 0.452062 0.000137 0.0774 Uiso
N1F N 0.533068 0.410381 0.125 0.0774 Uiso
N3F N 0.118223 0.397124 0.142614 0.0774 Uiso
N2F N 0.439677 0.352876 0.102267 0.0774 Uiso
N1C N 0.033068 0.339619 0.125 0.0774 Uiso
N3M N 0.131777 0.397124 0.107386 0.0774 Uiso
C1C C -0.023749 0.304042 0.125 0.0774 Uiso
Fe1C Fe -0.125 0.375 0.12886(41) 0.0521 Uiso
H1C H -0.141079 0.293414 0.125 0.0774 Uiso
C12C C 0.151278 0.144116 0.106273 0.0774 Uiso
C12A C 0.151278 0.105884 0.143727 0.0774 Uiso
H4C H 0.169238 0.157181 0.093474 0.0774 Uiso
C12I C 0.098722 0.105884 0.106273 0.0774 Uiso
C14P C -0.125391 0.528476 0.000 0.0774 Uiso
C13P C 0.086013 0.489850 -0.018593 0.0774 Uiso
C10A C 0.125 0.086768 0.125 0.0774 Uiso
H4A H 0.169238 0.092819 0.156526 0.0774 Uiso
H4I H 0.080762 0.092819 0.093474 0.0774 Uiso
C11P C -0.039378 0.518326 -0.018674 0.0774 Uiso
H6P H -0.211090 0.547938 -0.000137 0.0774 Uiso
H5P H 0.144799 0.482913 -0.031300 0.0774 Uiso
C8A C 0.125 0.044410 0.125 0.0774 Uiso
C9P C -0.083005 0.538630 -0.039363 0.0774 Uiso
C6A C 0.125 0.010303 0.125 0.0774 Uiso
C7P C -0.118134 0.554979 -0.056021 0.0774 Uiso
C3A C 0.125 -0.032055 0.125 0.0774 Uiso
C5P C -0.161761 0.575283 -0.076710 0.0774 Uiso
C1A C -0.023749 -0.054042 0.125 0.0774 Uiso
C1I C 0.273749 -0.054042 0.125 0.0774 Uiso
C4P C -0.039961 0.585822 -0.091591 0.0774 Uiso
C2P C -0.328854 0.585822 -0.083309 0.0774 Uiso
H1A H -0.141079 -0.043414 0.125 0.0774 Uiso
N1A N 0.033068 -0.089619 0.125 0.0774 Uiso
H1I H 0.391079 -0.043414 0.125 0.0774 Uiso
N1I N 0.216932 -0.089619 0.125 0.0774 Uiso
H3P H 0.084922 0.580728 -0.089666 0.0774 Uiso
N3CA N -0.131777 0.602876 -0.107386 0.0774 Uiso
H2P H -0.431844 0.580728 -0.074851 0.0774 Uiso
N2P N -0.310323 0.602876 -0.102267 0.0774 Uiso
Fe1A Fe -0.125 -0.125 0.12114(41) 0.0521 Uiso
Fe1H Fe 0.375 -0.125 0.12886(41) 0.0521 Uiso
Fe1CA Fe 0.125 0.625 -0.12886(41) 0.0521 Uiso
Fe1P Fe -0.375 0.625 -0.12114(41) 0.0521 Uiso
N2V N -0.439677 0.647124 -0.102267 0.0774 Uiso
N1P N -0.216932 0.660381 -0.125 0.0774 Uiso
N1V N -0.533068 0.589619 -0.125 0.0774 Uiso
N3V N -0.118223 0.602876 -0.142614 0.0774 Uiso
N3P N -0.631777 0.647124 -0.142614 0.0774 Uiso
N3S N -0.618223 0.647124 -0.107386 0.0774 Uiso
C2V C -0.421146 0.664178 -0.083309 0.0774 Uiso
C4V C -0.710039 0.664178 -0.091591 0.0774 Uiso
Fe1CA_2 Fe -0.875 0.625 -0.12886(41) 0.0521 Uiso
C5V C -0.588239 0.674717 -0.076710 0.0774 Uiso
H2V H -0.318156 0.669272 -0.074851 0.0774 Uiso
H3V H -0.834922 0.669272 -0.089666 0.0774 Uiso
C7V C -0.631866 0.695021 -0.056021 0.0774 Uiso
C9V C -0.666995 0.711370 -0.039363 0.0774 Uiso
C11V C -0.710622 0.731674 -0.018674 0.0774 Uiso
C13V C -0.836013 0.760150 -0.018593 0.0774 Uiso
C14V C -0.624609 0.721524 0.000 0.0774 Uiso
H5V H -0.894799 0.767087 -0.031300 0.0774 Uiso
C14A C -0.875391 0.778476 0.000 0.0774 Uiso
H6V H -0.538910 0.702062 -0.000137 0.0774 Uiso
C13A C -0.663987 0.739850 0.018593 0.0774 Uiso
C11A C -0.789378 0.768326 0.018674 0.0774 Uiso
H6A H -0.961090 0.797938 0.000137 0.0774 Uiso
H5A H -0.605201 0.732913 0.031300 0.0774 Uiso
C9A C -0.833005 0.788630 0.039363 0.0774 Uiso
C7A C -0.868134 0.804979 0.056021 0.0774 Uiso
C5A C -0.911761 0.825283 0.076710 0.0774 Uiso
C4A C -0.789961 0.835822 0.091591 0.0774 Uiso
C2A C -1.078854 0.835822 0.083309 0.0774 Uiso
H3A H -0.665078 0.830728 0.089666 0.0774 Uiso
N3H N -0.881777 0.852876 0.107386 0.0774 Uiso
H2A H -1.181844 0.830728 0.074851 0.0774 Uiso
N2A N -1.060323 0.852876 0.102267 0.0774 Uiso
Fe1H_2 Fe -0.625 0.875 0.12886(41) 0.0521 Uiso
Fe1A_2 Fe -1.125 0.875 0.12114(41) 0.0521 Uiso
C15? C 0.098722 0.144116 0.106273 0.0774 Uiso
H7? H 0.080762 0.157181 0.093474 0.0774 Uiso
loop_
_geom_bond_atom_site_label_1
_geom_bond_atom_site_label_2
_geom_bond_site_symmetry_1
_geom_bond_site_symmetry_2
Fe1 N1 1_555 1_555
N1 C1 1_555 1_555
N2 Fe1 1_555 1_555
N3 Fe1 1_555 1_555
C1 C3 1_555 1_555
C2 N2 1_555 1_555
C3 C6 1_555 1_555
H1 C1 1_555 1_555
C4 C5 1_555 1_555
C5 C2 1_555 1_555
H2 C2 1_555 1_555
C6 C8 1_555 1_555
H3 C4 1_555 1_555
C7 C5 1_555 1_555
C8 C10 1_555 1_555
C9 C7 1_555 1_555
C10 C12 1_555 1_555
C11 C9 1_555 1_555
C12 H4 1_555 1_555
C13 C11 1_555 1_555
C14 C11 1_555 1_555
H5 C13 1_555 1_555
H6 C14 1_555 1_555
N1F Fe1 1_555 1_555
N3F Fe1 1_555 1_555
N2F Fe1 1_555 1_555
N1C N1 1_555 1_555
N3M N2 1_555 1_555
C1C C3 1_555 1_555
Fe1C N1C 1_555 1_555
H1C C1C 1_555 1_555
C12C C10 1_555 1_555
C12A C12 1_555 1_555
H4C C12C 1_555 1_555
C12I C12C 1_555 1_555
C14P C13 1_555 1_555
C13P C14 1_555 1_555
C10A C12A 1_555 1_555
H4A C12A 1_555 1_555
H4I C12I 1_555 1_555
C11P C14P 1_555 1_555
H6P C14P 1_555 1_555
H5P C13P 1_555 1_555
C8A C10A 1_555 1_555
C9P C11P 1_555 1_555
C6A C8A 1_555 1_555
C7P C9P 1_555 1_555
C3A C6A 1_555 1_555
C5P C7P 1_555 1_555
C1A C3A 1_555 1_555
C1I C3A 1_555 1_555
C4P C5P 1_555 1_555
C2P C5P 1_555 1_555
H1A C1A 1_555 1_555
N1A C1A 1_555 1_555
H1I C1I 1_555 1_555
N1I C1I 1_555 1_555
H3P C4P 1_555 1_555
N3CA C4P 1_555 1_555
H2P C2P 1_555 1_555
N2P C2P 1_555 1_555
Fe1A N1A 1_555 1_555
Fe1H N1I 1_555 1_555
Fe1CA N3CA 1_555 1_555
Fe1P N2P 1_555 1_555
N2V Fe1P 1_555 1_555
N1P Fe1P 1_555 1_555
N1V Fe1P 1_555 1_555
N3V Fe1P 1_555 1_555
N3P Fe1P 1_555 1_555
N3S N2V 1_555 1_555
C2V N2V 1_555 1_555
C4V N3S 1_555 1_555
Fe1CA_2 N3S 1_555 1_555
C5V C2V 1_555 1_555
H2V C2V 1_555 1_555
H3V C4V 1_555 1_555
C7V C5V 1_555 1_555
C9V C7V 1_555 1_555
C11V C9V 1_555 1_555
C13V C11V 1_555 1_555
C14V C11V 1_555 1_555
H5V C13V 1_555 1_555
C14A C13V 1_555 1_555
H6V C14V 1_555 1_555
C13A C14V 1_555 1_555
C11A C14A 1_555 1_555
H6A C14A 1_555 1_555
H5A C13A 1_555 1_555
C9A C11A 1_555 1_555
C7A C9A 1_555 1_555
C5A C7A 1_555 1_555
C4A C5A 1_555 1_555
C2A C5A 1_555 1_555
H3A C4A 1_555 1_555
N3H C4A 1_555 1_555
H2A C2A 1_555 1_555
N2A C2A 1_555 1_555
Fe1H_2 N3H 1_555 1_555
Fe1A_2 N2A 1_555 1_555
C4 N3M 1_555 1_555
N1C C1C 1_555 1_555
N3M Fe1C 1_555 1_555
C12I C10A 1_555 1_555
C13P C11P 1_555 1_555
N1A N1I 1_555 1_555
N3CA N2P 1_555 1_555
C4V C5V 1_555 1_555
C13A C11A 1_555 1_555
N3H N2A 1_555 1_555

#END
