
#######################################################################
#
#                 Cambridge Crystallographic Data Centre
#                                CCDC 
#
#######################################################################
#
# If this CIF has been generated from an entry in the Cambridge 
# Structural Database, then it will include bibliographic, chemical, 
# crystal, experimental, refinement or atomic coordinate data resulting 
# from the CCDC's data processing and validation procedures.
#
#######################################################################

data_EFANIJ
_chemical_formula_moiety         '(C25 H16 Cd1 N2 O5)n,n(C3 H7 N1 O1),n(H2 O1)'
_chemical_name_systematic        
"catena-[(\m~3~-Benzophenone-4,4'-dicarboxylato)-(\m~2~-4,4'-bipyridyl)-cadmium dimethylformamide monohydrate clathrate]"
_symmetry_cell_setting           monoclinic
_symmetry_space_group_name_H-M   'C 2/c'
_symmetry_Int_Tables_number      15
_space_group_name_Hall           '-C 2yc'
loop_
_symmetry_equiv_pos_site_id
_symmetry_equiv_pos_as_xyz
1 x,y,z
2 1/2+x,1/2+y,z
3 -x,y,1/2-z
4 1/2-x,1/2+y,1/2-z
5 -x,-y,-z
6 1/2-x,1/2-y,-z
7 x,-y,1/2+z
8 1/2+x,1/2-y,1/2+z
_cell_length_a                   15.52(3)
_cell_length_b                   11.79(2)
_cell_length_c                   30.92(6)
_cell_angle_alpha                90
_cell_angle_beta                 103.87(2)
_cell_angle_gamma                90
_cell_volume                     5492.8
_exptl_crystal_colour            yellow
_exptl_crystal_description       plate
_cell_formula_units_Z            8
loop_
_atom_site_label
_atom_site_type_symbol
_atom_site_fract_x
_atom_site_fract_y
_atom_site_fract_z
Cd1 Cd 0.585931(19) 0.07673(3) 0.710557(9)
O1 O 0.57697(19) 0.0878(3) 0.63297(9)
N1 N 0.5801(2) 0.2742(3) 0.71129(11)
O2 O 0.7104(2) 0.0681(3) 0.67742(9)
C1 C 0.6594(3) 0.0793(4) 0.63921(13)
C2 C 0.5347(3) 0.4483(4) 0.67287(13)
H1 H 0.5042 0.4852 0.6463
C3 C 0.5753(2) 0.5128(3) 0.71014(13)
C4 C 0.6188(3) 0.4524(4) 0.74857(14)
H2 H 0.6478 0.4920 0.7748
C5 C 0.6189(3) 0.3353(4) 0.74776(13)
H3 H 0.6477 0.2959 0.7741
C6 C 0.6992(3) 0.0827(4) 0.59881(13)
C7 C 0.5388(3) 0.3313(4) 0.67440(14)
H4 H 0.5114 0.2895 0.6485
C8 C 0.7988(3) 0.0885(4) 0.40360(14)
H5 H 0.8493 0.1365 0.4085
O3 O 0.8958(2) 0.1058(4) 0.49303(11)
C9 C 0.7735(3) 0.0830(5) 0.52466(14)
C10 C 0.7583(3) 0.0540(4) 0.36066(14)
H6 H 0.7814 0.0782 0.3364
C11 C 0.7660(3) 0.0531(4) 0.43989(14)
C12 C 0.8169(3) 0.0827(5) 0.48598(15)
C13 C 0.6490(3) 0.1157(4) 0.55730(15)
H7 H 0.5889 0.1379 0.5540
C14 C 0.8242(3) 0.0523(5) 0.56657(15)
H8 H 0.8847 0.0316 0.5702
C15 C 0.7866(3) 0.0516(5) 0.60342(15)
H9 H 0.8215 0.0296 0.6318
C16 C 0.6501(3) -0.0494(4) 0.38914(14)
H10 H 0.5984 -0.0953 0.3842
C17 C 0.6837(3) -0.0161(4) 0.35290(13)
C18 C 0.6911(3) -0.0164(4) 0.43206(14)
H11 H 0.6682 -0.0413 0.4563
C19 C 0.6860(3) 0.1166(5) 0.52008(15)
H12 H 0.6513 0.1402 0.4919
C20 C 0.6427(3) -0.0557(3) 0.30632(13)
C21 C 0.5744(3) 0.6396(4) 0.70968(14)
C22 C 0.6457(3) 0.7003(4) 0.73487(15)
H13 H 0.6955 0.6618 0.7526
C23 C 0.5036(3) 0.7009(4) 0.68511(15)
H14 H 0.4534 0.6627 0.6675
C24 C 0.6432(3) 0.8173(4) 0.73380(15)
H15 H 0.6929 0.8576 0.7508
C25 C 0.5063(3) 0.8175(4) 0.68632(15)
H16 H 0.4567 0.8579 0.6692
O4 O 0.68899(19) -0.0535(3) 0.27782(9)
O5 O 0.56383(19) -0.0885(3) 0.29641(10)
N2 N 0.5744(2) 0.8771(3) 0.71013(12)
Cd1F Cd 0.585931(19) -0.07673(3) 0.210557(9)
Cd1D Cd 0.414069(19) -0.07673(3) 0.289443(9)
Cd1_2 Cd 0.585931(19) 1.07673(3) 0.710557(9)
O4F O 0.68899(19) 0.0535(3) 0.77782(9)
O5F O 0.56383(19) 0.0885(3) 0.79641(10)
O5D O 0.43617(19) 0.0885(3) 0.70359(10)
N2_2 N 0.5744(2) -0.1229(3) 0.71013(12)
N3 N 0.1374(6) 0.7174(6) 0.0722(2)
C26 C 0.1865(6) 0.7252(7) 0.1178(3)
H17 H 0.1452 0.7234 0.1374
H18 H 0.2200 0.7965 0.1224
H19 H 0.2277 0.6612 0.1249
C27 C 0.1767(8) 0.7149(8) 0.0390(3)
H20 H 0.2398 0.7163 0.0462
O6 O 0.1378(7) 0.7107(8) -0.0014(2)
C28 C 0.0445(8) 0.7169(19) 0.0651(4)
H21 H 0.0284 0.7211 0.0938
H22 H 0.0207 0.6469 0.0497
H23 H 0.0197 0.7824 0.0468
O7 O 0.9758(3) -0.1508(4) 0.56186(16)
loop_
_geom_bond_atom_site_label_1
_geom_bond_atom_site_label_2
_geom_bond_site_symmetry_1
_geom_bond_site_symmetry_2
Cd1 O1 1_555 1_555
O1 C1 1_555 1_555
N1 Cd1 1_555 1_555
O2 Cd1 1_555 1_555
C1 O2 1_555 1_555
C2 H1 1_555 1_555
C3 C2 1_555 1_555
C4 C3 1_555 1_555
H2 C4 1_555 1_555
C5 N1 1_555 1_555
H3 C5 1_555 1_555
C6 C1 1_555 1_555
C7 N1 1_555 1_555
H4 C7 1_555 1_555
C8 H5 1_555 1_555
O3 C12 1_555 1_555
C9 C12 1_555 1_555
C10 C8 1_555 1_555
H6 C10 1_555 1_555
C11 C8 1_555 1_555
C12 C11 1_555 1_555
C13 C6 1_555 1_555
H7 C13 1_555 1_555
C14 C9 1_555 1_555
H8 C14 1_555 1_555
C15 C6 1_555 1_555
H9 C15 1_555 1_555
C16 H10 1_555 1_555
C17 C10 1_555 1_555
C18 C11 1_555 1_555
H11 C18 1_555 1_555
C19 C9 1_555 1_555
H12 C19 1_555 1_555
C20 C17 1_555 1_555
C21 C3 1_555 1_555
C22 C21 1_555 1_555
H13 C22 1_555 1_555
C23 C21 1_555 1_555
H14 C23 1_555 1_555
C24 C22 1_555 1_555
H15 C24 1_555 1_555
C25 C23 1_555 1_555
H16 C25 1_555 1_555
O4 C20 1_555 1_555
O5 C20 1_555 1_555
N2 C24 1_555 1_555
N3 C26 1_555 1_555
C26 H17 1_555 1_555
H18 C26 1_555 1_555
H19 C26 1_555 1_555
C27 N3 1_555 1_555
H20 C27 1_555 1_555
O6 C27 1_555 1_555
C28 N3 1_555 1_555
H21 C28 1_555 1_555
H22 C28 1_555 1_555
H23 C28 1_555 1_555
Cd1F O4 1_555 1_555
Cd1D O5 1_555 1_555
Cd1_2 N2 1_555 1_555
O4F Cd1 1_555 1_555
O5F Cd1 1_555 1_555
O5D Cd1 1_555 1_555
N2_2 Cd1 1_555 1_555
C2 C7 1_555 1_555
C4 C5 1_555 1_555
C13 C19 1_555 1_555
C14 C15 1_555 1_555
C16 C17 1_555 1_555
C16 C18 1_555 1_555
C25 N2 1_555 1_555
O5 Cd1F 1_555 1_555

#END
