
#######################################################################
#
#                 Cambridge Crystallographic Data Centre
#                                CCDC 
#
#######################################################################
#
# If this CIF has been generated from an entry in the Cambridge 
# Structural Database, then it will include bibliographic, chemical, 
# crystal, experimental, refinement or atomic coordinate data resulting 
# from the CCDC's data processing and validation procedures.
#
#######################################################################

data_QAVWAN
_chemical_formula_moiety         '(C36 H24 N2 O8 Zn2)n,2n(C3 H7 N1 O1)'
_chemical_name_systematic        
"catena-[bis(\m~4~-Naphthalene-2,6-dicarboxylato)-(\m~2~-2,2'-dimethyl-4,4'-bipyridine)-di-zinc(ii) N,N-dimethylformamide solvate]"
_symmetry_cell_setting           monoclinic
_symmetry_space_group_name_H-M   'C 2/c'
_symmetry_Int_Tables_number      15
_space_group_name_Hall           '-C 2yc'
loop_
_symmetry_equiv_pos_site_id
_symmetry_equiv_pos_as_xyz
1 x,y,z
2 -x,y,1/2-z
3 1/2+x,1/2+y,z
4 1/2-x,1/2+y,1/2-z
5 -x,-y,-z
6 x,-y,1/2+z
7 1/2-x,1/2-y,-z
8 1/2+x,1/2-y,1/2+z
_cell_length_a                   18.198(4)
_cell_length_b                   18.607(4)
_cell_length_c                   13.922(3)
_cell_angle_alpha                90
_cell_angle_beta                 113.776(3)
_cell_angle_gamma                90
_cell_volume                     4314.04
_exptl_crystal_colour            colorless
_exptl_crystal_description       block
_cell_formula_units_Z            4
loop_
_atom_site_label
_atom_site_type_symbol
_atom_site_fract_x
_atom_site_fract_y
_atom_site_fract_z
O5 O 0.1399(6) 0.2909(6) 0.9094(8)
N2 N 0.2292(7) 0.2344(6) 1.0504(9)
C19 C 0.1544(9) 0.2482(8) 0.9765(12)
C20 C 0.1992(9) 0.2260(8) 0.9477(12)
C21 C 0.2406(10) 0.1841(9) 1.1424(12)
O5F O 0.3601(6) 0.2091(6) 1.0906(8)
N2F N 0.2708(7) 0.2656(6) 0.9496(9)
C19F C 0.3456(9) 0.2518(8) 1.0235(12)
C20F C 0.3008(9) 0.2740(8) 1.0523(12)
C21F C 0.2594(10) 0.3159(9) 0.8576(12)
O6 O 0.0704(9) 0.3729(7) 0.8384(12)
C22 C 0.0000 0.3994(14) 0.7500
N3 N 0.001(2) 0.4768(14) 0.710(2)
C23 C 0.092(2) 0.4933(18) 0.780(3)
C24 C -0.052(2) 0.5298(19) 0.643(3)
O6A O -0.0704(9) 0.3729(7) 0.6616(12)
N3A N -0.001(2) 0.4768(14) 0.790(2)
C23A C -0.092(2) 0.4933(18) 0.720(3)
C24A C 0.052(2) 0.5298(19) 0.857(3)
Zn1 Zn -0.02714(3) 0.16036(3) 1.13338(4)
O1 O -0.1127(2) 0.22381(19) 1.1454(3)
O2 O -0.0514(2) 0.24340(18) 1.3189(3)
O3 O -0.4040(2) 0.57368(18) 1.3681(3)
O4 O -0.4284(2) 0.59280(19) 1.1988(3)
N1 N -0.0310(3) 0.1601(2) 0.9841(3)
C1 C -0.1055(3) 0.2557(3) 1.2293(4)
C2 C -0.1648(4) 0.3131(3) 1.2222(4)
C3 C -0.2190(3) 0.3391(3) 1.1236(4)
H1 H -0.2182 0.3189 1.0613
C4 C -0.2714(3) 0.3918(3) 1.1161(4)
H2 H -0.3073 0.4081 1.0488
C5 C -0.1672(4) 0.3419(4) 1.3110(5)
H3 H -0.1317 0.3240 1.3775
C6 C -0.2738(4) 0.4233(3) 1.2075(4)
C7 C -0.3267(4) 0.4787(3) 1.2045(4)
H4 H -0.3599 0.4990 1.1385
C8 C 0.0003(3) 0.1015(3) 0.9570(4)
H5 H 0.0145 0.0615 1.0033
C9 C 0.0126(4) 0.0968(3) 0.8672(4)
H6 H 0.0349 0.0545 0.8516
C10 C -0.0078(4) 0.1548(3) 0.7986(4)
C11 C -0.0401(3) 0.2148(3) 0.8245(4)
H7 H -0.0540 0.2553 0.7792
C12 C -0.0525(3) 0.2164(3) 0.9167(4)
C13 C -0.0886(4) 0.2807(3) 0.9465(4)
H8 H -0.1397 0.2670 0.9495
H9 H -0.0981 0.3186 0.8940
H10 H -0.0516 0.2983 1.0154
C14 C -0.3322(4) 0.5047(3) 1.2933(4)
C15 C -0.3926(3) 0.5619(3) 1.2858(4)
C16 C -0.2807(5) 0.4782(4) 1.3914(5)
H11 H -0.2829 0.4971 1.4536
C17 C -0.2264(5) 0.4244(5) 1.3977(6)
H12 H -0.1924 0.4059 1.4645
C18 C -0.2206(5) 0.3967(4) 1.3067(5)
Zn1A Zn 0.02714(3) 0.16036(3) 1.36662(4)
Zn1C Zn -0.47286(3) 0.66036(3) 1.36662(4)
Zn1B Zn -0.52714(3) 0.66036(3) 1.13338(4)
Zn1A_2 Zn 0.02714(3) 0.16036(3) 0.36662(4)
Zn1B_2 Zn 0.47286(3) 0.66036(3) 1.13338(4)
Zn1C_2 Zn 0.52714(3) 0.66036(3) 1.36662(4)
O1A O 0.1127(2) 0.22381(19) 1.3546(3)
O2A O 0.0514(2) 0.24340(18) 1.1811(3)
O3A O 0.4040(2) 0.57368(18) 1.1319(3)
O3C O -0.0960(2) 0.07368(18) 1.1319(3)
O3B O 0.0960(2) 0.07368(18) 1.3681(3)
O4A O 0.4284(2) 0.59280(19) 1.3012(3)
O4B O 0.0716(2) 0.09280(19) 1.1988(3)
O4C O -0.0716(2) 0.09280(19) 1.3012(3)
N1A N 0.0310(3) 0.1601(2) 0.5159(3)
N1A_2 N 0.0310(3) 0.1601(2) 1.5159(3)
C1A C 0.1055(3) 0.2557(3) 1.2707(4)
C2A C 0.1648(4) 0.3131(3) 1.2778(4)
C3A C 0.2190(3) 0.3391(3) 1.3764(4)
H1A H 0.2182 0.3189 1.4387
C4A C 0.2714(3) 0.3918(3) 1.3839(4)
H2A H 0.3073 0.4081 1.4512
C5A C 0.1672(4) 0.3419(4) 1.1890(5)
H3A H 0.1317 0.3240 1.1225
C6A C 0.2738(4) 0.4233(3) 1.2925(4)
C7A C 0.3267(4) 0.4787(3) 1.2955(4)
H4A H 0.3599 0.4990 1.3615
C8A C -0.0003(3) 0.1015(3) 0.5430(4)
H5A H -0.0145 0.0615 0.4967
C9A C -0.0126(4) 0.0968(3) 0.6328(4)
H6A H -0.0349 0.0545 0.6484
C10A C 0.0078(4) 0.1548(3) 0.7014(4)
C11A C 0.0401(3) 0.2148(3) 0.6755(4)
H7A H 0.0540 0.2553 0.7208
C12A C 0.0525(3) 0.2164(3) 0.5833(4)
C13A C 0.0886(4) 0.2807(3) 0.5535(4)
H8A H 0.1397 0.2670 0.5505
H9A H 0.0981 0.3186 0.6060
H10A H 0.0516 0.2983 0.4846
C14A C 0.3322(4) 0.5047(3) 1.2067(4)
C15A C 0.3926(3) 0.5619(3) 1.2142(4)
C16A C 0.2807(5) 0.4782(4) 1.1086(5)
H11A H 0.2829 0.4971 1.0464
C17A C 0.2264(5) 0.4244(5) 1.1023(6)
H12A H 0.1924 0.4059 1.0355
C18A C 0.2206(5) 0.3967(4) 1.1933(5)
loop_
_geom_bond_atom_site_label_1
_geom_bond_atom_site_label_2
_geom_bond_site_symmetry_1
_geom_bond_site_symmetry_2
Zn1 O1 1_555 1_555
O1 C1 1_555 1_555
O2 C1 1_555 1_555
O3 C15 1_555 1_555
O4 C15 1_555 1_555
N1 Zn1 1_555 1_555
C1 C2 1_555 1_555
C2 C3 1_555 1_555
C3 H1 1_555 1_555
C4 C3 1_555 1_555
H2 C4 1_555 1_555
C5 C2 1_555 1_555
H3 C5 1_555 1_555
C6 C4 1_555 1_555
C7 C6 1_555 1_555
H4 C7 1_555 1_555
C8 N1 1_555 1_555
H5 C8 1_555 1_555
C9 C8 1_555 1_555
H6 C9 1_555 1_555
C10 C9 1_555 1_555
C11 C10 1_555 1_555
H7 C11 1_555 1_555
C12 N1 1_555 1_555
C13 C12 1_555 1_555
H8 C13 1_555 1_555
H9 C13 1_555 1_555
H10 C13 1_555 1_555
C14 C7 1_555 1_555
C15 C14 1_555 1_555
C16 C14 1_555 1_555
H11 C16 1_555 1_555
C17 C16 1_555 1_555
H12 C17 1_555 1_555
C18 C5 1_555 1_555
O5 C19 1_555 1_555
N2 C19 1_555 1_555
C19 C20 1_555 1_555
C20 O5 1_555 1_555
C21 N2 1_555 1_555
O6 C22 1_555 1_555
C22 N3 1_555 1_555
N3 C23 1_555 1_555
C23 C24A 1_555 1_555
C24 N3 1_555 1_555
Zn1A O2 1_555 1_555
Zn1C O3 1_555 1_555
Zn1B O4 1_555 1_555
Zn1A_2 N1A 1_555 1_555
Zn1B_2 O3A 1_555 1_555
Zn1C_2 O4A 1_555 1_555
O1A Zn1A 1_555 1_555
O2A Zn1 1_555 1_555
O3A C15A 1_555 1_555
O3C Zn1 1_555 1_555
O3B Zn1A 1_555 1_555
O4A C15A 1_555 1_555
O4B Zn1 1_555 1_555
O4C Zn1A 1_555 1_555
N1A C8A 1_555 1_555
N1A_2 Zn1A 1_555 1_555
C1A O1A 1_555 1_555
C2A C1A 1_555 1_555
C3A C2A 1_555 1_555
H1A C3A 1_555 1_555
C4A C3A 1_555 1_555
H2A C4A 1_555 1_555
C5A C2A 1_555 1_555
H3A C5A 1_555 1_555
C6A C4A 1_555 1_555
C7A C6A 1_555 1_555
H4A C7A 1_555 1_555
C8A H5A 1_555 1_555
C9A C8A 1_555 1_555
H6A C9A 1_555 1_555
C10A C10 1_555 1_555
C11A C10A 1_555 1_555
H7A C11A 1_555 1_555
C12A N1A 1_555 1_555
C13A C12A 1_555 1_555
H8A C13A 1_555 1_555
H9A C13A 1_555 1_555
H10A C13A 1_555 1_555
C14A C7A 1_555 1_555
C15A C14A 1_555 1_555
C16A C14A 1_555 1_555
H11A C16A 1_555 1_555
C17A C16A 1_555 1_555
H12A C17A 1_555 1_555
C18A C5A 1_555 1_555
O5F C19F 1_555 1_555
N2F C20 1_555 1_555
C19F N2F 1_555 1_555
C20F N2 1_555 1_555
C21F N2F 1_555 1_555
O6A C22 1_555 1_555
N3A C22 1_555 1_555
C23A C24 1_555 1_555
C24A N3A 1_555 1_555
C6 C18 1_555 1_555
C11 C12 1_555 1_555
C17 C18 1_555 1_555
N2 C20 1_555 1_555
N3 N3A 1_555 1_555
O2A C1A 1_555 1_555
C6A C18A 1_555 1_555
C9A C10A 1_555 1_555
C11A C12A 1_555 1_555
C17A C18A 1_555 1_555
O5F C20F 1_555 1_555
N2F C20F 1_555 1_555
C19F C20F 1_555 1_555
N3A C23A 1_555 1_555

#END
