
#######################################################################
#
#                 Cambridge Crystallographic Data Centre
#                                CCDC 
#
#######################################################################
#
# If this CIF has been generated from an entry in the Cambridge 
# Structural Database, then it will include bibliographic, chemical, 
# crystal, experimental, refinement or atomic coordinate data resulting 
# from the CCDC's data processing and validation procedures.
#
#######################################################################

data_KACZIZ
_chemical_formula_moiety         '(C120 H81 In9 N24 O42)n,8n(H2 O1)'
_chemical_name_systematic        
"catena-(hexakis(\m~4~-Azobenzene-4,4'-dicarboxylato)-hexakis(\m~3~-3-aminoisonicotinato)-tris(\m~3~-oxo)-trihydroxy-nona-indium octahydrate)"
_symmetry_cell_setting           cubic
_symmetry_space_group_name_H-M   'I -4 3 d'
_symmetry_Int_Tables_number      220
_space_group_name_Hall           'I -4bd 2c 3'
loop_
_symmetry_equiv_pos_site_id
_symmetry_equiv_pos_as_xyz
1 x,y,z
2 1/2-x,-y,1/2+z
3 -x,1/2+y,1/2-z
4 1/2+x,1/2-y,-z
5 z,x,y
6 1/2+z,1/2-x,-y
7 1/2-z,-x,1/2+y
8 -z,1/2+x,1/2-y
9 y,z,x
10 -y,1/2+z,1/2-x
11 1/2+y,1/2-z,-x
12 1/2-y,-z,1/2+x
13 1/4+y,1/4+x,1/4+z
14 1/4-y,3/4-x,3/4+z
15 3/4+y,1/4-x,3/4-z
16 3/4-y,3/4+x,1/4-z
17 1/4+x,1/4+z,1/4+y
18 3/4-x,3/4+z,1/4-y
19 1/4-x,3/4-z,3/4+y
20 3/4+x,1/4-z,3/4-y
21 1/4+z,1/4+y,1/4+x
22 3/4+z,1/4-y,3/4-x
23 3/4-z,3/4+y,1/4-x
24 1/4-z,3/4-y,3/4+x
25 1/2+x,1/2+y,1/2+z
26 -x,1/2-y,z
27 1/2-x,y,-z
28 x,-y,1/2-z
29 1/2+z,1/2+x,1/2+y
30 z,-x,1/2-y
31 -z,1/2-x,y
32 1/2-z,x,-y
33 1/2+y,1/2+z,1/2+x
34 1/2-y,z,-x
35 y,-z,1/2-x
36 -y,1/2-z,x
37 3/4+y,3/4+x,3/4+z
38 3/4-y,1/4-x,1/4+z
39 1/4+y,3/4-x,1/4-z
40 1/4-y,1/4+x,3/4-z
41 3/4+x,3/4+z,3/4+y
42 1/4-x,1/4+z,3/4-y
43 3/4-x,1/4-z,1/4+y
44 1/4+x,3/4-z,1/4-y
45 3/4+z,3/4+y,3/4+x
46 1/4+z,3/4-y,1/4-x
47 1/4-z,1/4+y,3/4-x
48 3/4-z,1/4-y,1/4+x
_cell_length_a                   38.712(5)
_cell_length_b                   38.712(5)
_cell_length_c                   38.712(5)
_cell_angle_alpha                90
_cell_angle_beta                 90
_cell_angle_gamma                90
_cell_volume                     58014.5
_exptl_crystal_colour            orange
_exptl_crystal_description       block
_cell_formula_units_Z            8
loop_
_atom_site_label
_atom_site_type_symbol
_atom_site_fract_x
_atom_site_fract_y
_atom_site_fract_z
In1 In 0.2500 0.544897(8) 0.0000
In2 In 0.292803(5) 0.625126(6) 0.013960(6)
O1 O 0.2500 0.59786(8) 0.0000
O2 O 0.27963(8) 0.54188(8) 0.04855(8)
O3 O 0.20154(8) 0.54255(8) 0.02924(8)
O4 O -0.08987(8) 0.54062(9) 0.21951(9)
O5 O -0.08646(8) 0.48497(8) 0.20621(9)
O6 O 0.29944(8) 0.59545(7) 0.06123(7)
O7 O 0.17250(7) 0.59141(9) 0.01338(9)
N1 N 0.34593(8) 0.52969(8) 0.16012(8)
C1 C 0.31257(10) 0.55076(10) 0.10001(10)
C2 C -0.07658(11) 0.51545(10) 0.20397(11)
C3 C 0.33568(10) 0.50657(12) 0.13722(11)
H1 H 0.3407 0.4835 0.1414
C4 C 0.31730(11) 0.51512(12) 0.10638(11)
C5 C 0.33984(11) 0.56355(12) 0.15387(10)
H2 H 0.3473 0.5800 0.1697
C6 C 0.29586(10) 0.56362(10) 0.06754(10)
N2 N 0.30712(13) 0.48902(16) 0.08574(11)
H3 H 0.2967 0.4934 0.0666
H4 H 0.3111 0.4680 0.0917
C7 C 0.32289(11) 0.57403(12) 0.12456(11)
H5 H 0.3183 0.5974 0.1213
C8 C 0.17556(11) 0.56305(13) 0.02947(12)
C9 C 0.14449(12) 0.55300(14) 0.05047(15)
O8 O 0.2500 0.49138(13) 0.0000
C10 C -0.04729(14) 0.52314(13) 0.18039(14)
C11 C 0.14293(18) 0.52112(18) 0.0666(2)
H6 H 0.1608 0.5053 0.0642
C12 C -0.0001(2) 0.5034(2) 0.1440(2)
H7 H 0.0126 0.4853 0.1345
C13 C 0.0095(2) 0.53580(19) 0.1377(2)
C14 C 0.1184(2) 0.57483(19) 0.0554(2)
H8 H 0.1195 0.5970 0.0461
C15 C -0.03638(17) 0.55720(18) 0.1747(2)
H9 H -0.0482 0.5755 0.1849
N3 N 0.05913(18) 0.52220(17) 0.1111(2)
C16 C -0.00780(18) 0.5637(2) 0.1536(2)
H10 H -0.0002 0.5863 0.1500
C17 C 0.08835(18) 0.53352(19) 0.0906(2)
C18 C -0.02926(17) 0.49593(18) 0.1647(2)
H11 H -0.0364 0.4732 0.1678
N4 N 0.03983(18) 0.54671(17) 0.1195(2)
C19 C 0.1136(2) 0.5132(2) 0.0867(3)
H12 H 0.1127 0.4918 0.0976
C20 C 0.08913(19) 0.5647(2) 0.0745(3)
H13 H 0.0702 0.5794 0.0761
In1I In 0.455103(8) 0.5000 0.2500
In1J In 0.044897(8) 0.5000 -0.2500
In1F In 0.5000 0.7500 0.044897(8)
In1N In 0.294897(8) 1.0000 -0.2500
In1O In 0.205103(8) 1.0000 0.2500
In1G In 0.0000 0.7500 -0.044897(8)
In1S In 0.0000 0.2500 0.205103(8)
In2Z In 0.207197(5) 0.625126(6) -0.013960(6)
In2I In 0.374874(6) 0.513960(6) 0.207197(5)
In2FA In 0.125126(6) 0.513960(6) -0.207197(5)
In2L In -0.124874(6) 0.542803(5) 0.263960(6)
In2MA In 0.624874(6) 0.542803(5) -0.263960(6)
In2LA In -0.124874(6) 0.457197(5) 0.236040(6)
In2M In 0.624874(6) 0.457197(5) -0.236040(6)
In2F In 0.486040(6) 0.707197(5) 0.125126(6)
In2N In 0.375126(6) 0.957197(5) -0.263960(6)
In2KA In 0.124874(6) 0.957197(5) 0.263960(6)
In2CA In 0.013960(6) 0.707197(5) -0.125126(6)
In2IA In 0.374874(6) 0.486040(6) 0.292803(5)
In2S In 0.042803(5) 0.236040(6) 0.124874(6)
In2PA In 0.457197(5) 0.236040(6) -0.124874(6)
In2P In 0.542803(5) 0.263960(6) -0.124874(6)
In2J In 0.125126(6) 0.486040(6) -0.292803(5)
O1I O 0.40214(8) 0.5000 0.2500
O1J O 0.09786(8) 0.5000 -0.2500
O1L O -0.15214(8) 0.5000 0.2500
O1M O 0.65214(8) 0.5000 -0.2500
O2Z O 0.22037(8) 0.54188(8) -0.04855(8)
O2F O 0.45145(8) 0.72037(8) 0.04188(8)
O2CA O 0.04855(8) 0.72037(8) -0.04188(8)
O2I O 0.45812(8) 0.54855(8) 0.22037(8)
O2FA O 0.04188(8) 0.54855(8) -0.22037(8)
O2IA O 0.45812(8) 0.45145(8) 0.27963(8)
O2J O 0.04188(8) 0.45145(8) -0.27963(8)
O3Z O 0.29846(8) 0.54255(8) -0.02924(8)
O3JA O 0.29255(8) 0.95154(8) -0.22076(8)
O3O O 0.20745(8) 0.95154(8) 0.22076(8)
O3OA O 0.04846(8) 0.27924(8) 0.20745(8)
O3IA O 0.45745(8) 0.47076(8) 0.20154(8)
O3I O 0.45745(8) 0.52924(8) 0.29846(8)
O3FA O 0.04255(8) 0.52924(8) -0.29846(8)
O3J O 0.04255(8) 0.47076(8) -0.20154(8)
O4Z O 0.58987(8) 0.54062(9) -0.21951(9)
O4JA O 0.29062(9) 0.66013(8) -0.03049(9)
O4O O 0.20938(9) 0.66013(8) 0.03049(9)
O4OA O 0.33987(8) 0.46951(9) 0.20938(9)
O4IA O 0.45938(9) 0.28049(9) -0.08987(8)
O4P O 0.16013(8) 0.46951(9) -0.20938(9)
O5Z O 0.58646(8) 0.48497(8) -0.20621(9)
O5JA O 0.23497(8) 0.66354(8) -0.04379(9)
O5O O 0.26503(8) 0.66354(8) 0.04379(9)
O5OA O 0.33646(8) 0.45621(9) 0.26503(8)
O5IA O 0.51503(8) 0.29379(9) -0.08646(8)
O5R O 0.33646(8) 0.54379(9) 0.23497(8)
O5QA O 0.16354(8) 0.54379(9) -0.23497(8)
O5AA O -0.08646(8) 0.51503(8) 0.29379(9)
O5A O 0.58646(8) 0.51503(8) -0.29379(9)
O6Z O 0.20056(8) 0.59545(7) -0.06123(7)
O6F O 0.43877(7) 0.70056(8) 0.09545(7)
O6CA O 0.06123(7) 0.70056(8) -0.09545(7)
O6I O 0.40455(7) 0.56123(7) 0.20056(8)
O6FA O 0.09545(7) 0.56123(7) -0.20056(8)
O6L O -0.15455(7) 0.54944(8) 0.31123(7)
O6MA O 0.65455(7) 0.54944(8) -0.31123(7)
O7Z O 0.32750(7) 0.59141(9) -0.01338(9)
O7JA O 0.34141(9) 0.92250(7) -0.23662(9)
O7O O 0.15859(9) 0.92250(7) 0.23662(9)
O7OA O 0.07750(7) 0.26338(9) 0.15859(9)
O7IA O 0.40859(9) 0.48662(9) 0.17250(7)
O7J O 0.09141(9) 0.48662(9) -0.17250(7)
O7LA O -0.15859(9) 0.57750(7) 0.23662(9)
O7M O 0.65859(9) 0.57750(7) -0.23662(9)
N1Z N 0.15407(8) 0.52969(8) -0.16012(8)
N1F N 0.33988(8) 0.65407(8) 0.02969(8)
N1CA N 0.16012(8) 0.65407(8) -0.02969(8)
N1I N 0.47031(8) 0.66012(8) 0.15407(8)
N1FA N 0.02969(8) 0.66012(8) -0.15407(8)
N1R N -0.09593(8) 0.58988(8) 0.27969(8)
N1QA N 0.59593(8) 0.58988(8) -0.27969(8)
C1Z C 0.18743(10) 0.55076(10) -0.10001(10)
C1F C 0.39999(10) 0.68743(10) 0.05076(10)
C1CA C 0.10001(10) 0.68743(10) -0.05076(10)
C1I C 0.44924(10) 0.60001(10) 0.18743(10)
C1FA C 0.05076(10) 0.60001(10) -0.18743(10)
C2Z C 0.57658(11) 0.51545(10) -0.20397(11)
C2JA C 0.26545(10) 0.67342(11) -0.04603(11)
C2O C 0.23455(10) 0.67342(11) 0.04603(11)
C2OA C 0.32658(11) 0.45397(11) 0.23455(10)
C2IA C 0.48455(10) 0.29603(11) -0.07658(11)
C3Z C 0.16432(10) 0.50657(12) -0.13722(11)
C3F C 0.36278(11) 0.66432(10) 0.00657(12)
C3CA C 0.13722(11) 0.66432(10) -0.00657(12)
C3I C 0.49343(12) 0.63722(11) 0.16432(10)
C3FA C 0.00657(12) 0.63722(11) -0.16432(10)
H1Z H 0.1593 0.4835 -0.1414
H1F H 0.3586 0.6593 -0.0165
H1CA H 0.1414 0.6593 0.0165
H1I H 0.5165 0.6414 0.1593
H1FA H -0.0165 0.6414 -0.1593
C4Z C 0.18270(11) 0.51512(12) -0.10638(11)
C4F C 0.39362(11) 0.68270(11) 0.01512(12)
C4CA C 0.10638(11) 0.68270(11) -0.01512(12)
C4I C 0.48488(12) 0.60638(11) 0.18270(11)
C4FA C 0.01512(12) 0.60638(11) -0.18270(11)
C5Z C 0.16016(11) 0.56355(12) -0.15387(10)
C5F C 0.34613(10) 0.66016(11) 0.06355(12)
C5CA C 0.15387(10) 0.66016(11) -0.06355(12)
C5I C 0.43645(12) 0.65387(10) 0.16016(11)
C5FA C 0.06355(12) 0.65387(10) -0.16016(11)
H2Z H 0.1527 0.5800 -0.1697
H2F H 0.3303 0.6527 0.0800
H2CA H 0.1697 0.6527 -0.0800
H2I H 0.4200 0.6697 0.1527
H2FA H 0.0800 0.6697 -0.1527
C6Z C 0.20414(10) 0.56362(10) -0.06754(10)
C6F C 0.43246(10) 0.70414(10) 0.06362(10)
C6CA C 0.06754(10) 0.70414(10) -0.06362(10)
C6I C 0.43638(10) 0.56754(10) 0.20414(10)
C6FA C 0.06362(10) 0.56754(10) -0.20414(10)
N2Z N 0.19288(13) 0.48902(16) -0.08574(11)
N2F N 0.41426(11) 0.69288(13) -0.01098(16)
N2CA N 0.08574(11) 0.69288(13) 0.01098(16)
N2I N 0.51098(16) 0.58574(11) 0.19288(13)
N2FA N -0.01098(16) 0.58574(11) -0.19288(13)
H3Z H 0.2033 0.4934 -0.0666
H3F H 0.4334 0.7033 -0.0066
H3CA H 0.0666 0.7033 0.0066
H3I H 0.5066 0.5666 0.2033
H3FA H -0.0066 0.5666 -0.2033
H4Z H 0.1889 0.4680 -0.0917
H4F H 0.4083 0.6889 -0.0320
H4CA H 0.0917 0.6889 0.0320
H4I H 0.5320 0.5917 0.1889
H4FA H -0.0320 0.5917 -0.1889
C7Z C 0.17711(11) 0.57403(12) -0.12456(11)
C7F C 0.37544(11) 0.67711(11) 0.07403(12)
C7CA C 0.12456(11) 0.67711(11) -0.07403(12)
C7I C 0.42597(12) 0.62456(11) 0.17711(11)
C7FA C 0.07403(12) 0.62456(11) -0.17711(11)
H5Z H 0.1817 0.5974 -0.1213
H5F H 0.3787 0.6817 0.0974
H5CA H 0.1213 0.6817 -0.0974
H5I H 0.4026 0.6213 0.1817
H5FA H 0.0974 0.6213 -0.1817
C8Z C 0.32444(11) 0.56305(13) -0.02947(12)
C8JA C 0.31305(13) 0.92556(11) -0.22053(12)
C8O C 0.18695(13) 0.92556(11) 0.22053(12)
C8OA C 0.07444(11) 0.27947(12) 0.18695(13)
C8IA C 0.43695(13) 0.47053(12) 0.17556(11)
C9Z C 0.35551(12) 0.55300(14) -0.05047(15)
C9JA C 0.30300(14) 0.89449(12) -0.19953(15)
C9O C 0.19700(14) 0.89449(12) 0.19953(15)
C9OA C 0.10551(12) 0.30047(15) 0.19700(14)
C9IA C 0.44700(14) 0.44953(15) 0.14449(12)
O8I O 0.50862(13) 0.5000 0.2500
O8J O -0.00862(13) 0.5000 -0.2500
C10Z C 0.54729(14) 0.52314(13) -0.18039(14)
C10JA C 0.27314(13) 0.70271(14) -0.06961(14)
C10O C 0.22686(13) 0.70271(14) 0.06961(14)
C10OA C 0.29729(14) 0.43039(14) 0.22686(13)
C10IA C 0.47686(13) 0.31961(14) -0.04729(14)
C11Z C 0.35707(18) 0.52112(18) -0.0666(2)
C11JA C 0.27112(18) 0.89293(18) -0.1834(2)
C11O C 0.22888(18) 0.89293(18) 0.1834(2)
C11OA C 0.10707(18) 0.3166(2) 0.22888(18)
C11IA C 0.47888(18) 0.4334(2) 0.14293(18)
H6Z H 0.3392 0.5053 -0.0642
H6JA H 0.2553 0.9108 -0.1858
H6O H 0.2447 0.9108 0.1858
H6OA H 0.0892 0.3142 0.2447
H6IA H 0.4947 0.4358 0.1608
C12Z C 0.5001(2) 0.5034(2) -0.1440(2)
C12JA C 0.2534(2) 0.7499(2) -0.1060(2)
C12O C 0.2466(2) 0.7499(2) 0.1060(2)
C12OA C 0.2501(2) 0.3940(2) 0.2466(2)
C12IA C 0.4966(2) 0.3560(2) -0.0001(2)
H7Z H 0.4874 0.4853 -0.1345
H7JA H 0.2353 0.7626 -0.1155
H7O H 0.2647 0.7626 0.1155
H7OA H 0.2374 0.3845 0.2647
H7IA H 0.5147 0.3655 0.0126
C13Z C 0.4905(2) 0.53580(19) -0.1377(2)
C13JA C 0.28580(19) 0.7595(2) -0.1123(2)
C13O C 0.21420(19) 0.7595(2) 0.1123(2)
C13OA C 0.2405(2) 0.3877(2) 0.21420(19)
C13IA C 0.46420(19) 0.3623(2) 0.0095(2)
C14Z C 0.3816(2) 0.57483(19) -0.0554(2)
C14JA C 0.32483(19) 0.8684(2) -0.1946(2)
C14O C 0.17517(19) 0.8684(2) 0.1946(2)
C14OA C 0.1316(2) 0.3054(2) 0.17517(19)
C14IA C 0.42517(19) 0.4446(2) 0.1184(2)
H8Z H 0.3805 0.5970 -0.0461
H8JA H 0.3470 0.8695 -0.2039
H8O H 0.1530 0.8695 0.2039
H8OA H 0.1305 0.2961 0.1530
H8IA H 0.4030 0.4539 0.1195
C15Z C 0.53638(17) 0.55720(18) -0.1747(2)
C15JA C 0.30720(18) 0.71362(17) -0.0753(2)
C15O C 0.19280(18) 0.71362(17) 0.0753(2)
C15OA C 0.28638(17) 0.4247(2) 0.19280(18)
C15IA C 0.44280(18) 0.3253(2) -0.03638(17)
H9Z H 0.5482 0.5755 -0.1849
H9JA H 0.3255 0.7018 -0.0651
H9O H 0.1745 0.7018 0.0651
H9OA H 0.2982 0.4349 0.1745
H9IA H 0.4245 0.3151 -0.0482
N3Z N 0.44087(18) 0.52220(17) -0.1111(2)
N3JA N 0.27220(17) 0.80913(18) -0.1389(2)
N3O N 0.22780(17) 0.80913(18) 0.1389(2)
N3OA N 0.19087(18) 0.3611(2) 0.22780(17)
N3IA N 0.47780(17) 0.3889(2) 0.05913(18)
C16Z C 0.50780(18) 0.5637(2) -0.1536(2)
C16JA C 0.3137(2) 0.74220(18) -0.0964(2)
C16O C 0.1863(2) 0.74220(18) 0.0964(2)
C16OA C 0.25780(18) 0.4036(2) 0.1863(2)
C16IA C 0.4363(2) 0.3464(2) -0.00780(18)
H10Z H 0.5002 0.5863 -0.1500
H10JA H 0.3363 0.7498 -0.1000
H10O H 0.1637 0.7498 0.1000
H10OA H 0.2502 0.4000 0.1637
H10IA H 0.4137 0.3500 -0.0002
C17Z C 0.41165(18) 0.53352(19) -0.0906(2)
C17JA C 0.28352(19) 0.83835(18) -0.1594(2)
C17O C 0.21648(19) 0.83835(18) 0.1594(2)
C17OA C 0.16165(18) 0.3406(2) 0.21648(19)
C17IA C 0.46648(19) 0.4094(2) 0.08835(18)
C18Z C 0.52926(17) 0.49593(18) -0.1647(2)
C18JA C 0.24593(18) 0.72074(17) -0.0853(2)
C18O C 0.25407(18) 0.72074(17) 0.0853(2)
C18OA C 0.27926(17) 0.4147(2) 0.25407(18)
C18IA C 0.50407(18) 0.3353(2) -0.02926(17)
H11Z H 0.5364 0.4732 -0.1678
H11JA H 0.2232 0.7136 -0.0822
H11O H 0.2768 0.7136 0.0822
H11OA H 0.2864 0.4178 0.2768
H11IA H 0.5268 0.3322 -0.0364
N4Z N 0.46017(18) 0.54671(17) -0.1195(2)
N4JA N 0.29671(17) 0.78983(18) -0.1305(2)
N4O N 0.20329(17) 0.78983(18) 0.1305(2)
N4OA N 0.21017(18) 0.3695(2) 0.20329(17)
N4IA N 0.45329(17) 0.3805(2) 0.03983(18)
C19Z C 0.3864(2) 0.5132(2) -0.0867(3)
C19JA C 0.2632(2) 0.8636(2) -0.1633(3)
C19O C 0.2368(2) 0.8636(2) 0.1633(3)
C19OA C 0.1364(2) 0.3367(3) 0.2368(2)
C19IA C 0.4868(2) 0.4133(3) 0.1136(2)
H12Z H 0.3873 0.4918 -0.0976
H12JA H 0.2418 0.8627 -0.1524
H12O H 0.2582 0.8627 0.1524
H12OA H 0.1373 0.3476 0.2582
H12IA H 0.5082 0.4024 0.1127
C20Z C 0.41087(19) 0.5647(2) -0.0745(3)
C20JA C 0.3147(2) 0.83913(19) -0.1755(3)
C20O C 0.1853(2) 0.83913(19) 0.1755(3)
C20OA C 0.16087(19) 0.3245(3) 0.1853(2)
C20IA C 0.4353(2) 0.4255(3) 0.08913(19)
H13Z H 0.4298 0.5794 -0.0761
H13JA H 0.3294 0.8202 -0.1739
H13O H 0.1706 0.8202 0.1739
H13OA H 0.1798 0.3261 0.1706
H13IA H 0.4206 0.4239 0.0702
O9 O 0.3904(3) 0.6710(3) -0.0817(2)
O10 O 0.3375(4) 0.6625(4) 0.1625(4)
loop_
_geom_bond_atom_site_label_1
_geom_bond_atom_site_label_2
_geom_bond_site_symmetry_1
_geom_bond_site_symmetry_2
In1 O1 1_555 1_555
In2 O1 1_555 1_555
O1 In2Z 1_555 1_555
O2 In1 1_555 1_555
O3 In1 1_555 1_555
O4 C2 1_555 1_555
O5 C2 1_555 1_555
O6 In2 1_555 1_555
O7 C8 1_555 1_555
N1 C3 1_555 1_555
C1 C4 1_555 1_555
C2 C10 1_555 1_555
C3 H1 1_555 1_555
C4 C3 1_555 1_555
C5 N1 1_555 1_555
H2 C5 1_555 1_555
C6 O2 1_555 1_555
N2 C4 1_555 1_555
H3 N2 1_555 1_555
H4 N2 1_555 1_555
C7 C1 1_555 1_555
H5 C7 1_555 1_555
C8 O3 1_555 1_555
C9 C8 1_555 1_555
O8 In1 1_555 1_555
C10 C15 1_555 1_555
C11 C9 1_555 1_555
H6 C11 1_555 1_555
C12 H7 1_555 1_555
C13 C12 1_555 1_555
C14 C9 1_555 1_555
H8 C14 1_555 1_555
C15 H9 1_555 1_555
N3 C17 1_555 1_555
C16 C13 1_555 1_555
H10 C16 1_555 1_555
C17 C19 1_555 1_555
C18 C10 1_555 1_555
H11 C18 1_555 1_555
N4 C13 1_555 1_555
C19 C11 1_555 1_555
H12 C19 1_555 1_555
C20 C14 1_555 1_555
H13 C20 1_555 1_555
In1I O1I 1_555 1_555
In1J O1J 1_555 1_555
In1F O2F 1_555 1_555
In1N O3JA 1_555 1_555
In1O O3O 1_555 1_555
In1G O2CA 1_555 1_555
In1S O3OA 1_555 1_555
In2Z O7 1_555 1_555
In2I N1 1_555 1_555
In2FA O1J 1_555 1_555
In2L O4 1_555 1_555
In2MA O1M 1_555 1_555
In2LA O5 1_555 1_555
In2M O1M 1_555 1_555
In2F O6F 1_555 1_555
In2N O7JA 1_555 1_555
In2KA O7O 1_555 1_555
In2CA O6CA 1_555 1_555
In2IA O1I 1_555 1_555
In2S O7OA 1_555 1_555
In2PA O4IA 1_555 1_555
In2P O5IA 1_555 1_555
In2J O1J 1_555 1_555
O1I In2I 1_555 1_555
O1L In2L 1_555 1_555
O2Z In1 1_555 1_555
O2F C6F 1_555 1_555
O2CA C6CA 1_555 1_555
O2I In1I 1_555 1_555
O2FA In1J 1_555 1_555
O2IA In1I 1_555 1_555
O2J In1J 1_555 1_555
O3Z In1 1_555 1_555
O3JA C8JA 1_555 1_555
O3O C8O 1_555 1_555
O3OA C8OA 1_555 1_555
O3IA In1I 1_555 1_555
O3I In1I 1_555 1_555
O3FA In1J 1_555 1_555
O3J In1J 1_555 1_555
O4Z In2MA 1_555 1_555
O4JA In2 1_555 1_555
O4O In2Z 1_555 1_555
O4OA In2I 1_555 1_555
O4IA C2IA 1_555 1_555
O4P In2FA 1_555 1_555
O5Z In2M 1_555 1_555
O5JA In2Z 1_555 1_555
O5O In2 1_555 1_555
O5OA In2IA 1_555 1_555
O5IA C2IA 1_555 1_555
O5R In2I 1_555 1_555
O5QA In2FA 1_555 1_555
O5AA In2L 1_555 1_555
O5A In2MA 1_555 1_555
O6Z In2Z 1_555 1_555
O6F C6F 1_555 1_555
O6CA C6CA 1_555 1_555
O6I In2I 1_555 1_555
O6FA In2FA 1_555 1_555
O6L In2L 1_555 1_555
O6MA In2MA 1_555 1_555
O7Z In2 1_555 1_555
O7JA C8JA 1_555 1_555
O7O C8O 1_555 1_555
O7OA C8OA 1_555 1_555
O7IA In2I 1_555 1_555
O7J In2FA 1_555 1_555
O7LA In2L 1_555 1_555
O7M In2MA 1_555 1_555
N1Z In2FA 1_555 1_555
N1F In2 1_555 1_555
N1CA In2Z 1_555 1_555
N1I In2F 1_555 1_555
N1FA In2CA 1_555 1_555
N1R In2L 1_555 1_555
N1QA In2MA 1_555 1_555
C1Z C4Z 1_555 1_555
C1F C4F 1_555 1_555
C1CA C4CA 1_555 1_555
C1I C4I 1_555 1_555
C1FA C4FA 1_555 1_555
C2Z O4Z 1_555 1_555
C2JA O4JA 1_555 1_555
C2O O4O 1_555 1_555
C2OA O4OA 1_555 1_555
C2IA C10IA 1_555 1_555
C3Z N1Z 1_555 1_555
C3F N1F 1_555 1_555
C3CA N1CA 1_555 1_555
C3I N1I 1_555 1_555
C3FA N1FA 1_555 1_555
H1Z C3Z 1_555 1_555
H1F C3F 1_555 1_555
H1CA C3CA 1_555 1_555
H1I C3I 1_555 1_555
H1FA C3FA 1_555 1_555
C4Z C3Z 1_555 1_555
C4F C3F 1_555 1_555
C4CA C3CA 1_555 1_555
C4I C3I 1_555 1_555
C4FA C3FA 1_555 1_555
C5Z N1Z 1_555 1_555
C5F N1F 1_555 1_555
C5CA N1CA 1_555 1_555
C5I N1I 1_555 1_555
C5FA N1FA 1_555 1_555
H2Z C5Z 1_555 1_555
H2F C5F 1_555 1_555
H2CA C5CA 1_555 1_555
H2I C5I 1_555 1_555
H2FA C5FA 1_555 1_555
C6Z O2Z 1_555 1_555
C6F C1F 1_555 1_555
C6CA C1CA 1_555 1_555
C6I O2I 1_555 1_555
C6FA O2FA 1_555 1_555
N2Z C4Z 1_555 1_555
N2F C4F 1_555 1_555
N2CA C4CA 1_555 1_555
N2I C4I 1_555 1_555
N2FA C4FA 1_555 1_555
H3Z N2Z 1_555 1_555
H3F N2F 1_555 1_555
H3CA N2CA 1_555 1_555
H3I N2I 1_555 1_555
H3FA N2FA 1_555 1_555
H4Z N2Z 1_555 1_555
H4F N2F 1_555 1_555
H4CA N2CA 1_555 1_555
H4I N2I 1_555 1_555
H4FA N2FA 1_555 1_555
C7Z C1Z 1_555 1_555
C7F C1F 1_555 1_555
C7CA C1CA 1_555 1_555
C7I C1I 1_555 1_555
C7FA C1FA 1_555 1_555
H5Z C7Z 1_555 1_555
H5F C7F 1_555 1_555
H5CA C7CA 1_555 1_555
H5I C7I 1_555 1_555
H5FA C7FA 1_555 1_555
C8Z O3Z 1_555 1_555
C8JA C9JA 1_555 1_555
C8O C9O 1_555 1_555
C8OA C9OA 1_555 1_555
C8IA O3IA 1_555 1_555
C9Z C8Z 1_555 1_555
C9JA C11JA 1_555 1_555
C9O C11O 1_555 1_555
C9OA C11OA 1_555 1_555
C9IA C8IA 1_555 1_555
O8I In1I 1_555 1_555
O8J In1J 1_555 1_555
C10Z C2Z 1_555 1_555
C10JA C2JA 1_555 1_555
C10O C2O 1_555 1_555
C10OA C2OA 1_555 1_555
C10IA C15IA 1_555 1_555
C11Z C9Z 1_555 1_555
C11JA H6JA 1_555 1_555
C11O H6O 1_555 1_555
C11OA H6OA 1_555 1_555
C11IA C9IA 1_555 1_555
H6Z C11Z 1_555 1_555
H6IA C11IA 1_555 1_555
C12Z H7Z 1_555 1_555
C12JA H7JA 1_555 1_555
C12O H7O 1_555 1_555
C12OA H7OA 1_555 1_555
C12IA H7IA 1_555 1_555
C13Z C12Z 1_555 1_555
C13JA C12JA 1_555 1_555
C13O C12O 1_555 1_555
C13OA C12OA 1_555 1_555
C13IA C12IA 1_555 1_555
C14Z C9Z 1_555 1_555
C14JA C9JA 1_555 1_555
C14O C9O 1_555 1_555
C14OA C9OA 1_555 1_555
C14IA C9IA 1_555 1_555
H8Z C14Z 1_555 1_555
H8JA C14JA 1_555 1_555
H8O C14O 1_555 1_555
H8OA C14OA 1_555 1_555
H8IA C14IA 1_555 1_555
C15Z C10Z 1_555 1_555
C15JA C10JA 1_555 1_555
C15O C10O 1_555 1_555
C15OA C10OA 1_555 1_555
C15IA H9IA 1_555 1_555
H9Z C15Z 1_555 1_555
H9JA C15JA 1_555 1_555
H9O C15O 1_555 1_555
H9OA C15OA 1_555 1_555
N3Z C17Z 1_555 1_555
N3JA C17JA 1_555 1_555
N3O C17O 1_555 1_555
N3OA C17OA 1_555 1_555
N3IA C17IA 1_555 1_555
C16Z C13Z 1_555 1_555
C16JA C13JA 1_555 1_555
C16O C13O 1_555 1_555
C16OA C13OA 1_555 1_555
C16IA C13IA 1_555 1_555
H10Z C16Z 1_555 1_555
H10JA C16JA 1_555 1_555
H10O C16O 1_555 1_555
H10OA C16OA 1_555 1_555
H10IA C16IA 1_555 1_555
C17Z C19Z 1_555 1_555
C17JA C19JA 1_555 1_555
C17O C19O 1_555 1_555
C17OA C19OA 1_555 1_555
C17IA C19IA 1_555 1_555
C18Z C10Z 1_555 1_555
C18JA C10JA 1_555 1_555
C18O C10O 1_555 1_555
C18OA C10OA 1_555 1_555
C18IA C10IA 1_555 1_555
H11Z C18Z 1_555 1_555
H11JA C18JA 1_555 1_555
H11O C18O 1_555 1_555
H11OA C18OA 1_555 1_555
H11IA C18IA 1_555 1_555
N4Z C13Z 1_555 1_555
N4JA C13JA 1_555 1_555
N4O C13O 1_555 1_555
N4OA C13OA 1_555 1_555
N4IA C13IA 1_555 1_555
C19Z C11Z 1_555 1_555
C19JA C11JA 1_555 1_555
C19O C11O 1_555 1_555
C19OA C11OA 1_555 1_555
C19IA C11IA 1_555 1_555
H12Z C19Z 1_555 1_555
H12JA C19JA 1_555 1_555
H12O C19O 1_555 1_555
H12OA C19OA 1_555 1_555
H12IA C19IA 1_555 1_555
C20Z C14Z 1_555 1_555
C20JA C14JA 1_555 1_555
C20O C14O 1_555 1_555
C20OA C14OA 1_555 1_555
C20IA C14IA 1_555 1_555
H13Z C20Z 1_555 1_555
H13JA C20JA 1_555 1_555
H13O C20O 1_555 1_555
H13OA C20OA 1_555 1_555
H13IA C20IA 1_555 1_555
O6 C6 1_555 1_555
C1 C6 1_555 1_555
C5 C7 1_555 1_555
C12 C18 1_555 1_555
C15 C16 1_555 1_555
N3 N4 1_555 1_555
C17 C20 1_555 1_555
In2LA O1L 1_555 1_555
O5Z C2Z 1_555 1_555
O5JA C2JA 1_555 1_555
O5O C2O 1_555 1_555
O5OA C2OA 1_555 1_555
O6Z C6Z 1_555 1_555
O6I C6I 1_555 1_555
O6FA C6FA 1_555 1_555
O7Z C8Z 1_555 1_555
O7IA C8IA 1_555 1_555
C1Z C6Z 1_555 1_555
C1I C6I 1_555 1_555
C1FA C6FA 1_555 1_555
C5Z C7Z 1_555 1_555
C5F C7F 1_555 1_555
C5CA C7CA 1_555 1_555
C5I C7I 1_555 1_555
C5FA C7FA 1_555 1_555
C12Z C18Z 1_555 1_555
C12JA C18JA 1_555 1_555
C12O C18O 1_555 1_555
C12OA C18OA 1_555 1_555
C12IA C18IA 1_555 1_555
C15Z C16Z 1_555 1_555
C15JA C16JA 1_555 1_555
C15O C16O 1_555 1_555
C15OA C16OA 1_555 1_555
C15IA C16IA 1_555 1_555
N3Z N4Z 1_555 1_555
N3JA N4JA 1_555 1_555
N3O N4O 1_555 1_555
N3OA N4OA 1_555 1_555
N3IA N4IA 1_555 1_555
C17Z C20Z 1_555 1_555
C17JA C20JA 1_555 1_555
C17O C20O 1_555 1_555
C17OA C20OA 1_555 1_555
C17IA C20IA 1_555 1_555

#END
