
#######################################################################
#
#                 Cambridge Crystallographic Data Centre
#                                CCDC 
#
#######################################################################
#
# If this CIF has been generated from an entry in the Cambridge 
# Structural Database, then it will include bibliographic, chemical, 
# crystal, experimental, refinement or atomic coordinate data resulting 
# from the CCDC's data processing and validation procedures.
#
#######################################################################

data_GIQDUI
_chemical_formula_moiety         '(C20 H12 Cu1 N2 O4)n,0.41(C2 D6)'
_chemical_name_systematic        
'catena-[bis(\m-quinoline-5-carboxylato)-copper perdeuteroethane]'
_symmetry_cell_setting           monoclinic
_symmetry_space_group_name_H-M   'P 21/c'
_symmetry_Int_Tables_number      14
_space_group_name_Hall           '-P 2ybc'
loop_
_symmetry_equiv_pos_site_id
_symmetry_equiv_pos_as_xyz
1 x,y,z
2 -x,1/2+y,1/2-z
3 -x,-y,-z
4 x,1/2-y,1/2+z
_cell_length_a                   5.7610(7)
_cell_length_b                   11.0868(13)
_cell_length_c                   14.5326(13)
_cell_angle_alpha                90
_cell_angle_beta                 94.069(7)
_cell_angle_gamma                90
_cell_volume                     925.873
_cell_formula_units_Z            2
loop_
_atom_site_label
_atom_site_type_symbol
_atom_site_fract_x
_atom_site_fract_y
_atom_site_fract_z
_atom_site_U_iso_or_equiv
_atom_site_thermal_displace_type
C1 C 0.0815(7) 0.75226(33) 0.23033(26) 0.0432 Uiso
C2 C 0.1212(7) 0.65772(33) 0.16563(26) 0.0432 Uiso
C3 C -0.1017(7) 0.83098(33) 0.20879(26) 0.0432 Uiso
C4 C -0.2040(7) 0.71330(33) 0.07270(26) 0.0432 Uiso
C5 C -0.2439(7) 0.81284(33) 0.12976(26) 0.0432 Uiso
C6 C 0.3190(7) 0.58222(33) 0.17853(26) 0.0432 Uiso
C7 C 0.4719(7) 0.59809(33) 0.25505(26) 0.0432 Uiso
C8 C 0.4309(7) 0.68730(33) 0.32120(26) 0.0432 Uiso
C9 C 0.2384(7) 0.76277(33) 0.31111(26) 0.0432 Uiso
C10 C 0.2041(7) 0.85074(33) 0.38867(26) 0.0432 Uiso
H1 H -0.3216(7) 0.69198(33) 0.01248(26) 0.0682 Uiso
H2 H -0.3910(7) 0.87248(33) 0.11199(26) 0.0682 Uiso
H3 H -0.1348(7) 0.90438(33) 0.25580(26) 0.0682 Uiso
H4 H 0.3516(7) 0.51352(33) 0.12728(26) 0.0682 Uiso
H5 H 0.6269(7) 0.54128(33) 0.26421(26) 0.0682 Uiso
H6 H 0.5522(7) 0.69951(33) 0.38161(26) 0.0682 Uiso
N1 N -0.0257(7) 0.63857(33) 0.09035(26) 0.0330 Uiso
O1 O 0.0207(30) 0.8827(15) 0.4010(10) 0.0289 Uiso
O2 O 0.3696(33) 0.8890(15) 0.4308(12) 0.0602 Uiso
Cu1 Cu 0.000 0.500 0.000 0.0306 Uiso
C1B C -0.0815(7) 0.24774(33) -0.23033(26) 0.0432 Uiso
C2B C -0.1212(7) 0.34228(33) -0.16563(26) 0.0432 Uiso
C3B C 0.1017(7) 0.16902(33) -0.20879(26) 0.0432 Uiso
C4B C 0.2040(7) 0.28670(33) -0.07270(26) 0.0432 Uiso
C5B C 0.2439(7) 0.18716(33) -0.12976(26) 0.0432 Uiso
C6B C -0.3190(7) 0.41778(33) -0.17853(26) 0.0432 Uiso
C7B C -0.4719(7) 0.40191(33) -0.25505(26) 0.0432 Uiso
C8B C -0.4309(7) 0.31270(33) -0.32120(26) 0.0432 Uiso
C9B C -0.2384(7) 0.23723(33) -0.31111(26) 0.0432 Uiso
C10B C -0.2041(7) 0.14926(33) -0.38867(26) 0.0432 Uiso
H1B H 0.3216(7) 0.30802(33) -0.01248(26) 0.0682 Uiso
H2B H 0.3910(7) 0.12752(33) -0.11199(26) 0.0682 Uiso
H3B H 0.1348(7) 0.09562(33) -0.25580(26) 0.0682 Uiso
H4B H -0.3516(7) 0.48648(33) -0.12728(26) 0.0682 Uiso
H5B H -0.6269(7) 0.45872(33) -0.26421(26) 0.0682 Uiso
H6B H -0.5522(7) 0.30049(33) -0.38161(26) 0.0682 Uiso
N1B N 0.0257(7) 0.36143(33) -0.09035(26) 0.0330 Uiso
O1B O -0.0207(30) 0.1173(15) -0.4010(10) 0.0289 Uiso
O2B O -0.3696(33) 0.1110(15) -0.4308(12) 0.0602 Uiso
O1A O -0.0207(30) 0.3827(15) 0.0990(10) 0.0289 Uiso
O1C O 0.0207(30) 0.6173(15) -0.0990(10) 0.0289 Uiso
O2A O -0.3696(33) 0.3890(15) 0.0692(12) 0.0602 Uiso
O2C O 0.3696(33) 0.6110(15) -0.0692(12) 0.0602 Uiso
Cu1A Cu 0.000 0.000 -0.500 0.0306 Uiso
Cu1A_2 Cu 0.000 1.000 0.500 0.0306 Uiso
C11 C -0.125(5) 0.4347(23) 0.4879(18) 0.0133 Uiso
C12 C 0.061(5) 0.4999(23) 0.5498(18) 0.0133 Uiso
D1 D -0.078(5) 0.3401(23) 0.4768(18) 0.0317 Uiso
D2 D -0.293(5) 0.4351(23) 0.5188(18) 0.0317 Uiso
D3 D 0.088(5) 0.4557(23) 0.6175(18) 0.0317 Uiso
D4 D -0.150(5) 0.4779(23) 0.4197(18) 0.0317 Uiso
D5 D 0.012(5) 0.5941(23) 0.5620(18) 0.0317 Uiso
D6 D 0.228(5) 0.5009(23) 0.5182(18) 0.0317 Uiso
C11B C 0.125(5) 0.5653(23) 0.5121(18) 0.0133 Uiso
C12B C -0.061(5) 0.5001(23) 0.4502(18) 0.0133 Uiso
D1B D 0.078(5) 0.6599(23) 0.5232(18) 0.0317 Uiso
D2B D 0.293(5) 0.5649(23) 0.4812(18) 0.0317 Uiso
D3B D -0.088(5) 0.5443(23) 0.3825(18) 0.0317 Uiso
D4B D 0.150(5) 0.5221(23) 0.5803(18) 0.0317 Uiso
D5B D -0.012(5) 0.4059(23) 0.4380(18) 0.0317 Uiso
D6B D -0.228(5) 0.4991(23) 0.4818(18) 0.0317 Uiso
loop_
_geom_bond_atom_site_label_1
_geom_bond_atom_site_label_2
_geom_bond_site_symmetry_1
_geom_bond_site_symmetry_2
C1 C2 1_555 1_555
C2 C6 1_555 1_555
C3 C1 1_555 1_555
C4 C5 1_555 1_555
C5 C3 1_555 1_555
C6 C7 1_555 1_555
C7 C8 1_555 1_555
C8 C9 1_555 1_555
C9 C1 1_555 1_555
C10 C9 1_555 1_555
H1 C4 1_555 1_555
H2 C5 1_555 1_555
H3 C3 1_555 1_555
H4 C6 1_555 1_555
H5 C7 1_555 1_555
H6 C8 1_555 1_555
N1 C2 1_555 1_555
O1 C10 1_555 1_555
O2 C10 1_555 1_555
Cu1 N1 1_555 1_555
C11 C12 1_555 1_555
C12 D3 1_555 1_555
D1 C11 1_555 1_555
D2 C11 1_555 1_555
D4 C11 1_555 1_555
D5 C12 1_555 1_555
D6 C12 1_555 1_555
C1B C2B 1_555 1_555
C2B C6B 1_555 1_555
C3B C1B 1_555 1_555
C4B C5B 1_555 1_555
C5B C3B 1_555 1_555
C6B C7B 1_555 1_555
C7B C8B 1_555 1_555
C8B C9B 1_555 1_555
C9B C1B 1_555 1_555
C10B C9B 1_555 1_555
H1B C4B 1_555 1_555
H2B C5B 1_555 1_555
H3B C3B 1_555 1_555
H4B C6B 1_555 1_555
H5B C7B 1_555 1_555
H6B C8B 1_555 1_555
N1B Cu1 1_555 1_555
O1B C10B 1_555 1_555
O2B C10B 1_555 1_555
O1A Cu1 1_555 1_555
O1C Cu1 1_555 1_555
O2A Cu1 1_555 1_555
O2C Cu1 1_555 1_555
Cu1A O1B 1_555 1_555
Cu1A_2 O1 1_555 1_555
C11B C12B 1_555 1_555
C12B D3B 1_555 1_555
D1B C11B 1_555 1_555
D2B C11B 1_555 1_555
D4B C11B 1_555 1_555
D5B C12B 1_555 1_555
D6B C12B 1_555 1_555
C4 N1 1_555 1_555
O2 Cu1A_2 1_555 1_555
C2B N1B 1_555 1_555
C4B N1B 1_555 1_555
O2B Cu1A 1_555 1_555

#END
