
#######################################################################
#
#                 Cambridge Crystallographic Data Centre
#                                CCDC 
#
#######################################################################
#
# If this CIF has been generated from an entry in the Cambridge 
# Structural Database, then it will include bibliographic, chemical, 
# crystal, experimental, refinement or atomic coordinate data resulting 
# from the CCDC's data processing and validation procedures.
#
#######################################################################

data_GIQFEU
_chemical_formula_moiety         '(C20 H12 Cu1 N2 O4)n,0.16(C2 D4)'
_chemical_name_systematic        
'catena-[bis(\m-quinoline-5-carboxylato)-copper perdeuteroethene]'
_symmetry_cell_setting           monoclinic
_symmetry_space_group_name_H-M   'P 21/c'
_symmetry_Int_Tables_number      14
_space_group_name_Hall           '-P 2ybc'
loop_
_symmetry_equiv_pos_site_id
_symmetry_equiv_pos_as_xyz
1 x,y,z
2 -x,1/2+y,1/2-z
3 -x,-y,-z
4 x,1/2-y,1/2+z
_cell_length_a                   5.6951(5)
_cell_length_b                   10.9729(13)
_cell_length_c                   14.5655(12)
_cell_angle_alpha                90
_cell_angle_beta                 93.640(7)
_cell_angle_gamma                90
_cell_volume                     908.388
_cell_formula_units_Z            2
loop_
_atom_site_label
_atom_site_type_symbol
_atom_site_fract_x
_atom_site_fract_y
_atom_site_fract_z
_atom_site_U_iso_or_equiv
_atom_site_thermal_displace_type
C1 C 0.0901(7) 0.75482(34) 0.22692(25) 0.0401 Uiso
C2 C 0.1302(7) 0.65958(34) 0.16202(25) 0.0401 Uiso
C3 C -0.0933(7) 0.83537(34) 0.20562(25) 0.0401 Uiso
C4 C -0.1954(7) 0.71791(34) 0.06929(25) 0.0401 Uiso
C5 C -0.2354(7) 0.81826(34) 0.12660(25) 0.0401 Uiso
C6 C 0.3286(7) 0.58229(34) 0.17474(25) 0.0401 Uiso
C7 C 0.4817(7) 0.59707(34) 0.25126(25) 0.0401 Uiso
C8 C 0.4401(7) 0.68692(34) 0.31758(25) 0.0401 Uiso
C9 C 0.2470(7) 0.76414(34) 0.30767(25) 0.0401 Uiso
C10 C 0.2118(7) 0.85264(34) 0.38537(25) 0.0401 Uiso
H1 H -0.3132(7) 0.69734(34) 0.00903(25) 0.0662 Uiso
H2 H -0.3827(7) 0.87932(34) 0.10900(25) 0.0662 Uiso
H3 H -0.1266(7) 0.90935(34) 0.25280(25) 0.0662 Uiso
H4 H 0.3617(7) 0.51310(34) 0.12335(25) 0.0662 Uiso
H5 H 0.6372(7) 0.53889(34) 0.26029(25) 0.0662 Uiso
H6 H 0.5614(7) 0.69828(34) 0.37799(25) 0.0662 Uiso
N1 N -0.0168(7) 0.64145(34) 0.08673(25) 0.0387 Uiso
O1 O 0.0136(28) 0.8854(14) 0.3954(10) 0.0363 Uiso
O2 O 0.3626(30) 0.8849(14) 0.4371(11) 0.0618 Uiso
Cu1 Cu 0.000 0.500 0.000 0.0312 Uiso
C1B C -0.0901(7) 0.24518(34) -0.22692(25) 0.0401 Uiso
C2B C -0.1302(7) 0.34042(34) -0.16202(25) 0.0401 Uiso
C3B C 0.0933(7) 0.16463(34) -0.20562(25) 0.0401 Uiso
C4B C 0.1954(7) 0.28209(34) -0.06929(25) 0.0401 Uiso
C5B C 0.2354(7) 0.18174(34) -0.12660(25) 0.0401 Uiso
C6B C -0.3286(7) 0.41771(34) -0.17474(25) 0.0401 Uiso
C7B C -0.4817(7) 0.40293(34) -0.25126(25) 0.0401 Uiso
C8B C -0.4401(7) 0.31308(34) -0.31758(25) 0.0401 Uiso
C9B C -0.2470(7) 0.23586(34) -0.30767(25) 0.0401 Uiso
C10B C -0.2118(7) 0.14736(34) -0.38537(25) 0.0401 Uiso
H1B H 0.3132(7) 0.30266(34) -0.00903(25) 0.0662 Uiso
H2B H 0.3827(7) 0.12068(34) -0.10900(25) 0.0662 Uiso
H3B H 0.1266(7) 0.09065(34) -0.25280(25) 0.0662 Uiso
H4B H -0.3617(7) 0.48690(34) -0.12335(25) 0.0662 Uiso
H5B H -0.6372(7) 0.46111(34) -0.26029(25) 0.0662 Uiso
H6B H -0.5614(7) 0.30172(34) -0.37799(25) 0.0662 Uiso
N1B N 0.0168(7) 0.35855(34) -0.08673(25) 0.0387 Uiso
O1B O -0.0136(28) 0.1146(14) -0.3954(10) 0.0363 Uiso
O2B O -0.3626(30) 0.1151(14) -0.4371(11) 0.0618 Uiso
O1A O -0.0136(28) 0.3854(14) 0.1046(10) 0.0363 Uiso
O1C O 0.0136(28) 0.6146(14) -0.1046(10) 0.0363 Uiso
O2A O -0.3626(30) 0.3849(14) 0.0629(11) 0.0618 Uiso
O2C O 0.3626(30) 0.6151(14) -0.0629(11) 0.0618 Uiso
Cu1A Cu 0.000 0.000 -0.500 0.0312 Uiso
Cu1A_2 Cu 0.000 1.000 0.500 0.0312 Uiso
C11 C -0.098(18) 0.487(10) 0.466(9) 0.0161 Uiso
C12 C 0.031(18) 0.552(10) 0.528(9) 0.0161 Uiso
D1 D -0.145(18) 0.522(10) 0.397(9) 0.0252 Uiso
D2 D 0.095(18) 0.643(10) 0.511(9) 0.0252 Uiso
D3 D -0.162(18) 0.397(10) 0.483(9) 0.0252 Uiso
D4 D 0.078(18) 0.517(10) 0.597(9) 0.0252 Uiso
C11B C 0.098(18) 0.513(10) 0.534(9) 0.0161 Uiso
C12B C -0.031(18) 0.448(10) 0.472(9) 0.0161 Uiso
D1B D 0.145(18) 0.478(10) 0.603(9) 0.0252 Uiso
D2B D -0.095(18) 0.357(10) 0.489(9) 0.0252 Uiso
D3B D 0.162(18) 0.603(10) 0.517(9) 0.0252 Uiso
D4B D -0.078(18) 0.483(10) 0.403(9) 0.0252 Uiso
loop_
_geom_bond_atom_site_label_1
_geom_bond_atom_site_label_2
_geom_bond_site_symmetry_1
_geom_bond_site_symmetry_2
C1 C2 1_555 1_555
C2 C6 1_555 1_555
C3 C1 1_555 1_555
C4 C5 1_555 1_555
C5 C3 1_555 1_555
C6 C7 1_555 1_555
C7 C8 1_555 1_555
C8 C9 1_555 1_555
C9 C1 1_555 1_555
C10 C9 1_555 1_555
H1 C4 1_555 1_555
H2 C5 1_555 1_555
H3 C3 1_555 1_555
H4 C6 1_555 1_555
H5 C7 1_555 1_555
H6 C8 1_555 1_555
N1 C2 1_555 1_555
O1 C10 1_555 1_555
O2 C10 1_555 1_555
Cu1 N1 1_555 1_555
C11 C12 1_555 1_555
C12 D2 1_555 1_555
D1 C11 1_555 1_555
D3 C11 1_555 1_555
D4 C12 1_555 1_555
C1B C2B 1_555 1_555
C2B C6B 1_555 1_555
C3B C1B 1_555 1_555
C4B C5B 1_555 1_555
C5B C3B 1_555 1_555
C6B C7B 1_555 1_555
C7B C8B 1_555 1_555
C8B C9B 1_555 1_555
C9B C1B 1_555 1_555
C10B C9B 1_555 1_555
H1B C4B 1_555 1_555
H2B C5B 1_555 1_555
H3B C3B 1_555 1_555
H4B C6B 1_555 1_555
H5B C7B 1_555 1_555
H6B C8B 1_555 1_555
N1B Cu1 1_555 1_555
O1B C10B 1_555 1_555
O2B C10B 1_555 1_555
O1A Cu1 1_555 1_555
O1C Cu1 1_555 1_555
O2A Cu1 1_555 1_555
O2C Cu1 1_555 1_555
Cu1A O1B 1_555 1_555
Cu1A_2 O1 1_555 1_555
C11B C12B 1_555 1_555
C12B D2B 1_555 1_555
D1B C11B 1_555 1_555
D3B C11B 1_555 1_555
D4B C12B 1_555 1_555
C4 N1 1_555 1_555
O2 Cu1A_2 1_555 1_555
C2B N1B 1_555 1_555
C4B N1B 1_555 1_555
O2B Cu1A 1_555 1_555

#END
