
#######################################################################
#
#                 Cambridge Crystallographic Data Centre
#                                CCDC 
#
#######################################################################
#
# If this CIF has been generated from an entry in the Cambridge 
# Structural Database, then it will include bibliographic, chemical, 
# crystal, experimental, refinement or atomic coordinate data resulting 
# from the CCDC's data processing and validation procedures.
#
#######################################################################

data_GIQFAQ
_chemical_formula_moiety         '(C20 H12 Cu1 N2 O4)n,0.67(C2 D6)'
_chemical_name_systematic        
'catena-[bis(\m-quinoline-5-carboxylato)-copper perdeuteroethane]'
_symmetry_cell_setting           monoclinic
_symmetry_space_group_name_H-M   'P 21/c'
_symmetry_Int_Tables_number      14
_space_group_name_Hall           '-P 2ybc'
loop_
_symmetry_equiv_pos_site_id
_symmetry_equiv_pos_as_xyz
1 x,y,z
2 -x,1/2+y,1/2-z
3 -x,-y,-z
4 x,1/2-y,1/2+z
_cell_length_a                   5.8065(7)
_cell_length_b                   11.1456(11)
_cell_length_c                   14.5188(11)
_cell_angle_alpha                90
_cell_angle_beta                 94.423(7)
_cell_angle_gamma                90
_cell_volume                     936.814
_cell_formula_units_Z            2
loop_
_atom_site_label
_atom_site_type_symbol
_atom_site_fract_x
_atom_site_fract_y
_atom_site_fract_z
_atom_site_U_iso_or_equiv
_atom_site_thermal_displace_type
C1 C -0.2097(7) 0.70687(30) 0.07433(25) 0.0431 Uiso
C2 C -0.2494(7) 0.80685(30) 0.13036(25) 0.0431 Uiso
C3 C -0.1067(7) 0.82691(30) 0.20909(25) 0.0431 Uiso
C4 C 0.0767(7) 0.74964(30) 0.23133(25) 0.0431 Uiso
C5 C 0.1159(7) 0.65449(30) 0.16759(25) 0.0431 Uiso
C6 C 0.3135(7) 0.58032(30) 0.18111(25) 0.0431 Uiso
C7 C 0.4669(7) 0.59810(30) 0.25733(25) 0.0431 Uiso
C8 C 0.4265(7) 0.68797(30) 0.32260(25) 0.0431 Uiso
C9 C 0.2342(7) 0.76219(30) 0.31188(25) 0.0431 Uiso
C10 C 0.2007(7) 0.85109(30) 0.38858(25) 0.0431 Uiso
H1 H -0.3275(7) 0.68410(30) 0.01444(25) 0.0703 Uiso
H2 H -0.3965(7) 0.86532(30) 0.11208(25) 0.0703 Uiso
H3 H -0.1394(7) 0.90071(30) 0.25536(25) 0.0703 Uiso
H4 H 0.3456(7) 0.51110(30) 0.13054(25) 0.0703 Uiso
H5 H 0.6216(7) 0.54230(30) 0.26696(25) 0.0703 Uiso
H6 H 0.5481(7) 0.70171(30) 0.38278(25) 0.0703 Uiso
N1 N -0.0313(7) 0.63349(30) 0.09263(25) 0.0302 Uiso
O1 O -0.0088(27) 0.8760(13) 0.4069(9) 0.0255 Uiso
O2 O 0.3792(32) 0.8964(13) 0.4315(11) 0.0616 Uiso
Cu1 Cu 0.000 0.500 0.000 0.0249 Uiso
C1B C 0.2097(7) 0.29313(30) -0.07433(25) 0.0431 Uiso
C2B C 0.2494(7) 0.19315(30) -0.13036(25) 0.0431 Uiso
C3B C 0.1067(7) 0.17309(30) -0.20909(25) 0.0431 Uiso
C4B C -0.0767(7) 0.25036(30) -0.23133(25) 0.0431 Uiso
C5B C -0.1159(7) 0.34551(30) -0.16759(25) 0.0431 Uiso
C6B C -0.3135(7) 0.41968(30) -0.18111(25) 0.0431 Uiso
C7B C -0.4669(7) 0.40190(30) -0.25733(25) 0.0431 Uiso
C8B C -0.4265(7) 0.31203(30) -0.32260(25) 0.0431 Uiso
C9B C -0.2342(7) 0.23781(30) -0.31188(25) 0.0431 Uiso
C10B C -0.2007(7) 0.14891(30) -0.38858(25) 0.0431 Uiso
H1B H 0.3275(7) 0.31590(30) -0.01444(25) 0.0703 Uiso
H2B H 0.3965(7) 0.13468(30) -0.11208(25) 0.0703 Uiso
H3B H 0.1394(7) 0.09929(30) -0.25536(25) 0.0703 Uiso
H4B H -0.3456(7) 0.48890(30) -0.13054(25) 0.0703 Uiso
H5B H -0.6216(7) 0.45770(30) -0.26696(25) 0.0703 Uiso
H6B H -0.5481(7) 0.29829(30) -0.38278(25) 0.0703 Uiso
N1B N 0.0313(7) 0.36651(30) -0.09263(25) 0.0302 Uiso
O1B O 0.0088(27) 0.1240(13) -0.4069(9) 0.0255 Uiso
O2B O -0.3792(32) 0.1036(13) -0.4315(11) 0.0616 Uiso
O1A O 0.0088(27) 0.3760(13) 0.0931(9) 0.0255 Uiso
O1C O -0.0088(27) 0.6240(13) -0.0931(9) 0.0255 Uiso
O2A O -0.3792(32) 0.3964(13) 0.0685(11) 0.0616 Uiso
O2C O 0.3792(32) 0.6036(13) -0.0685(11) 0.0616 Uiso
Cu1A Cu 0.000 0.000 -0.500 0.0249 Uiso
Cu1A_2 Cu 0.000 1.000 0.500 0.0249 Uiso
C11 C -0.1387(7) 0.43082(30) 0.48670(25) 0.0254 Uiso
C12 C 0.0373(7) 0.49860(30) 0.55100(25) 0.0254 Uiso
D1 D -0.0878(7) 0.33678(30) 0.47814(25) 0.0508 Uiso
D2 D -0.3092(7) 0.43077(30) 0.51406(25) 0.0508 Uiso
D3 D 0.0581(7) 0.45652(30) 0.61976(25) 0.0508 Uiso
D4 D -0.1572(7) 0.47186(30) 0.41750(25) 0.0508 Uiso
D5 D -0.0152(7) 0.59220(30) 0.56067(25) 0.0508 Uiso
D6 D 0.2070(7) 0.50000(30) 0.52293(25) 0.0508 Uiso
C11B C 0.1387(7) 0.56918(30) 0.51330(25) 0.0254 Uiso
C12B C -0.0373(7) 0.50140(30) 0.44900(25) 0.0254 Uiso
D1B D 0.0878(7) 0.66322(30) 0.52186(25) 0.0508 Uiso
D2B D 0.3092(7) 0.56923(30) 0.48594(25) 0.0508 Uiso
D3B D -0.0581(7) 0.54348(30) 0.38024(25) 0.0508 Uiso
D4B D 0.1572(7) 0.52814(30) 0.58250(25) 0.0508 Uiso
D5B D 0.0152(7) 0.40780(30) 0.43933(25) 0.0508 Uiso
D6B D -0.2070(7) 0.50000(30) 0.47707(25) 0.0508 Uiso
loop_
_geom_bond_atom_site_label_1
_geom_bond_atom_site_label_2
_geom_bond_site_symmetry_1
_geom_bond_site_symmetry_2
C1 C2 1_555 1_555
C2 C3 1_555 1_555
C3 C4 1_555 1_555
C4 C5 1_555 1_555
C5 C6 1_555 1_555
C6 C7 1_555 1_555
C7 C8 1_555 1_555
C8 C9 1_555 1_555
C9 C4 1_555 1_555
C10 C9 1_555 1_555
H1 C1 1_555 1_555
H2 C2 1_555 1_555
H3 C3 1_555 1_555
H4 C6 1_555 1_555
H5 C7 1_555 1_555
H6 C8 1_555 1_555
N1 C1 1_555 1_555
O1 C10 1_555 1_555
O2 C10 1_555 1_555
Cu1 N1 1_555 1_555
C11 C12 1_555 1_555
C12 D3 1_555 1_555
D1 C11 1_555 1_555
D2 C11 1_555 1_555
D4 C11 1_555 1_555
D5 C12 1_555 1_555
D6 C12 1_555 1_555
C1B C2B 1_555 1_555
C2B C3B 1_555 1_555
C3B C4B 1_555 1_555
C4B C5B 1_555 1_555
C5B C6B 1_555 1_555
C6B C7B 1_555 1_555
C7B C8B 1_555 1_555
C8B C9B 1_555 1_555
C9B C4B 1_555 1_555
C10B C9B 1_555 1_555
H1B C1B 1_555 1_555
H2B C2B 1_555 1_555
H3B C3B 1_555 1_555
H4B C6B 1_555 1_555
H5B C7B 1_555 1_555
H6B C8B 1_555 1_555
N1B Cu1 1_555 1_555
O1B C10B 1_555 1_555
O2B C10B 1_555 1_555
O1A Cu1 1_555 1_555
O1C Cu1 1_555 1_555
O2A Cu1 1_555 1_555
O2C Cu1 1_555 1_555
Cu1A O1B 1_555 1_555
Cu1A_2 O1 1_555 1_555
C11B C12B 1_555 1_555
C12B D3B 1_555 1_555
D1B C11B 1_555 1_555
D2B C11B 1_555 1_555
D4B C11B 1_555 1_555
D5B C12B 1_555 1_555
D6B C12B 1_555 1_555
C5 N1 1_555 1_555
O2 Cu1A_2 1_555 1_555
C1B N1B 1_555 1_555
C5B N1B 1_555 1_555
O2B Cu1A 1_555 1_555

#END
