
#######################################################################
#
#                 Cambridge Crystallographic Data Centre
#                                CCDC 
#
#######################################################################
#
# If this CIF has been generated from an entry in the Cambridge 
# Structural Database, then it will include bibliographic, chemical, 
# crystal, experimental, refinement or atomic coordinate data resulting 
# from the CCDC's data processing and validation procedures.
#
#######################################################################

data_WUZBUQ
_chemical_formula_moiety         
'(C24 H25 Co4 N9 O13 P3 1+)n,0.5n(O4 S1 2-),12n(H2 O1)'
_chemical_name_systematic        
'catena-[(\m-hydroxo)-tris(\m-4-(4H-1,2,4-triazol-4-yl)-phenyl phosphonato)-triaqua-tetra-cobalt hemikis(sulfate) dodecahydrate]'
_symmetry_cell_setting           hexagonal
_symmetry_space_group_name_H-M   'P -6 2 c'
_symmetry_Int_Tables_number      190
_space_group_name_Hall           'P -6c -2c'
loop_
_symmetry_equiv_pos_site_id
_symmetry_equiv_pos_as_xyz
1 x,y,z
2 -y,x-y,z
3 -x+y,-x,z
4 x-y,-y,-z
5 -x,-x+y,-z
6 y,x,-z
7 y,x,1/2+z
8 -x,-x+y,1/2+z
9 x-y,-y,1/2+z
10 x,y,1/2-z
11 -x+y,-x,1/2-z
12 -y,x-y,1/2-z
_cell_length_a                   20.5940(16)
_cell_length_b                   20.5940(16)
_cell_length_c                   6.5304(4)
_cell_angle_alpha                90
_cell_angle_beta                 90
_cell_angle_gamma                120
_cell_volume                     2398.57
_exptl_crystal_colour            pink
_exptl_crystal_description       needle
_cell_formula_units_Z            2
_exptl_crystal_recrystallization_method 'solvothermal synthesis'
loop_
_atom_site_label
_atom_site_type_symbol
_atom_site_fract_x
_atom_site_fract_y
_atom_site_fract_z
Co1 Co 0.55508(11) 0.30242(11) 0.7500
Co2 Co 0.6667 0.3333 0.2500
O1 O 0.6667 0.3333 0.684(3)
H1 H 0.6667 0.3333 0.5551
O2 O 0.4439(9) 0.2769(8) 0.8080(19)
C1 C 0.4703(7) 0.1654(8) 0.2500
C2 C 0.3968(8) 0.1105(7) 0.2500
H2 H 0.3596 0.1250 0.2500
C3 C 0.3737(7) 0.0352(8) 0.2500
H3 H 0.3220 -0.0016 0.2500
C4 C 0.4299(7) 0.0143(6) 0.2500
C5 C 0.5023(11) 0.0682(11) 0.2500
H4 H 0.5394 0.0536 0.2500
C6 C 0.5254(9) 0.1427(9) 0.2500
H5 H 0.5773 0.1791 0.2500
C7 C 0.3379(8) -0.1249(7) 0.2500
H6 H 0.2937 -0.1213 0.2500
C8 C 0.4508(8) -0.0955(8) 0.2500
H7 H 0.5041 -0.0674 0.2500
N1 N 0.4067(7) -0.0655(6) 0.2500
N2 N 0.3374(7) -0.1879(6) 0.2500
N3 N 0.4112(6) -0.1689(6) 0.2500
P1 P 0.5040(3) 0.2634(2) 0.2500
O3 O 0.5647(6) 0.2983(6) 0.4300(12)
O4 O 0.4338(10) 0.2710(9) 0.288(4)
O1I O 0.6667 0.3333 0.816(3)
H1I H 0.6667 0.3333 0.9449
O2I O 0.4439(9) 0.2769(8) 0.6920(19)
O3I O 0.5647(6) 0.2983(6) 0.0700(12)
O4I O 0.4338(10) 0.2710(9) 0.212(4)
Co1A Co 0.69758(11) 0.25266(16) 0.7500
O2A O 0.7231(8) 0.1670(12) 0.8080(19)
C1A C 0.8346(8) 0.3049(11) 0.2500
C2A C 0.8895(7) 0.2863(11) 0.2500
H2A H 0.8750 0.2346 0.2500
C3A C 0.9648(8) 0.3385(11) 0.2500
H3A H 1.0016 0.3236 0.2500
C4A C 0.9857(6) 0.4156(9) 0.2500
C5A C 0.9318(11) 0.4341(16) 0.2500
H4A H 0.9464 0.4858 0.2500
C6A C 0.8573(9) 0.3827(13) 0.2500
H5A H 0.8209 0.3982 0.2500
C7A C 1.1249(7) 0.4628(11) 0.2500
H6A H 1.1213 0.4150 0.2500
C8A C 1.0955(8) 0.5463(11) 0.2500
H7A H 1.0674 0.5715 0.2500
N1A N 1.0655(6) 0.4722(9) 0.2500
N2A N 1.1879(6) 0.5253(9) 0.2500
N3A N 1.1689(6) 0.5801(8) 0.2500
P1A P 0.7366(2) 0.2406(4) 0.2500
O3A O 0.7017(6) 0.2664(8) 0.4300(12)
O4A O 0.7290(9) 0.1628(13) 0.288(4)
O2K O 0.7231(8) 0.1670(12) 0.6920(19)
O3K O 0.7017(6) 0.2664(8) 0.0700(12)
O4K O 0.7290(9) 0.1628(13) 0.212(4)
Co1B Co 0.74734(16) 0.44492(11) 0.7500
O2B O 0.8330(12) 0.5561(9) 0.8080(19)
C1B C 0.6951(11) 0.5297(7) 0.2500
C2B C 0.7137(11) 0.6032(8) 0.2500
H2B H 0.7654 0.6404 0.2500
C3B C 0.6615(11) 0.6263(7) 0.2500
H3B H 0.6764 0.6780 0.2500
C4B C 0.5844(9) 0.5701(7) 0.2500
C5B C 0.5659(16) 0.4977(11) 0.2500
H4B H 0.5142 0.4606 0.2500
C6B C 0.6173(13) 0.4746(9) 0.2500
H5B H 0.6018 0.4227 0.2500
C7B C 0.5372(11) 0.6621(8) 0.2500
H6B H 0.5850 0.7063 0.2500
C8B C 0.4537(11) 0.5492(8) 0.2500
H7B H 0.4285 0.4959 0.2500
N1B N 0.5278(9) 0.5933(7) 0.2500
N2B N 0.4747(9) 0.6626(7) 0.2500
N3B N 0.4199(8) 0.5888(6) 0.2500
P1B P 0.7594(4) 0.4960(3) 0.2500
O3B O 0.7336(8) 0.4353(6) 0.4300(12)
O4B O 0.8372(13) 0.5662(10) 0.288(4)
O2J O 0.8330(12) 0.5561(9) 0.6920(19)
O3J O 0.7336(8) 0.4353(6) 0.0700(12)
O4J O 0.8372(13) 0.5662(10) 0.212(4)
Co1_2 Co 0.55508(11) 0.30242(11) -0.2500
Co1A_2 Co 0.69758(11) 0.25266(16) -0.2500
Co1B_2 Co 0.74734(16) 0.44492(11) -0.2500
Co1C Co 0.25266(16) -0.30242(11) 0.2500
Co1C_2 Co 1.25266(16) 0.69758(11) 0.2500
Co1D Co 0.44492(11) -0.25266(16) 0.2500
Co1D_2 Co 0.44492(11) 0.74734(16) 0.2500
Co1E Co 0.30242(11) 0.55508(11) 0.2500
Co1E_2 Co 1.30242(11) 0.55508(11) 0.2500
N2C N 0.5253(9) 0.1879(6) 0.7500
N2D N 0.6626(7) 0.4747(9) 0.7500
N2E N 0.8121(6) 0.3374(7) 0.7500
N3C N 0.5801(8) 0.1689(6) 0.7500
N3D N 0.5888(6) 0.4199(8) 0.7500
N3E N 0.8311(6) 0.4112(6) 0.7500
O3I_2 O 0.5647(6) 0.2983(6) 1.0700(12)
O3J_2 O 0.7336(8) 0.4353(6) 1.0700(12)
O3K_2 O 0.7017(6) 0.2664(8) 1.0700(12)
O5? O 0.5283(11) 0.3029(10) 0.449(2)
loop_
_geom_bond_atom_site_label_1
_geom_bond_atom_site_label_2
_geom_bond_site_symmetry_1
_geom_bond_site_symmetry_2
Co1 O1 1_555 1_555
Co2 O3 1_555 1_555
O1 H1 1_555 1_555
O2 Co1 1_555 1_555
C1 C2 1_555 1_555
C2 H2 1_555 1_555
C3 C2 1_555 1_555
H3 C3 1_555 1_555
C4 C3 1_555 1_555
C5 C4 1_555 1_555
H4 C5 1_555 1_555
C6 C1 1_555 1_555
H5 C6 1_555 1_555
C7 H6 1_555 1_555
C8 H7 1_555 1_555
N1 C4 1_555 1_555
N2 C7 1_555 1_555
N3 C8 1_555 1_555
P1 C1 1_555 1_555
O3 Co1 1_555 1_555
O4 P1 1_555 1_555
O1I Co1 1_555 1_555
H1I O1I 1_555 1_555
O2I Co1 1_555 1_555
O3I Co2 1_555 1_555
O4I P1 1_555 1_555
Co1A O1 1_555 1_555
O2A Co1A 1_555 1_555
C1A C2A 1_555 1_555
C2A H2A 1_555 1_555
C3A C2A 1_555 1_555
H3A C3A 1_555 1_555
C4A C3A 1_555 1_555
C5A C4A 1_555 1_555
H4A C5A 1_555 1_555
C6A C1A 1_555 1_555
H5A C6A 1_555 1_555
C7A H6A 1_555 1_555
C8A H7A 1_555 1_555
N1A C4A 1_555 1_555
N2A C7A 1_555 1_555
N3A C8A 1_555 1_555
P1A C1A 1_555 1_555
O3A Co2 1_555 1_555
O4A P1A 1_555 1_555
O2K Co1A 1_555 1_555
O3K Co2 1_555 1_555
O4K P1A 1_555 1_555
Co1B O1 1_555 1_555
O2B Co1B 1_555 1_555
C1B C2B 1_555 1_555
C2B H2B 1_555 1_555
C3B C2B 1_555 1_555
H3B C3B 1_555 1_555
C4B C3B 1_555 1_555
C5B C4B 1_555 1_555
H4B C5B 1_555 1_555
C6B C1B 1_555 1_555
H5B C6B 1_555 1_555
C7B H6B 1_555 1_555
C8B H7B 1_555 1_555
N1B C4B 1_555 1_555
N2B C7B 1_555 1_555
N3B C8B 1_555 1_555
P1B C1B 1_555 1_555
O3B Co2 1_555 1_555
O4B P1B 1_555 1_555
O2J Co1B 1_555 1_555
O3J Co2 1_555 1_555
O4J P1B 1_555 1_555
Co1_2 O3I 1_555 1_555
Co1A_2 O3K 1_555 1_555
Co1B_2 O3J 1_555 1_555
Co1C N2 1_555 1_555
Co1C_2 N3A 1_555 1_555
Co1D N3 1_555 1_555
Co1D_2 N2B 1_555 1_555
Co1E N3B 1_555 1_555
Co1E_2 N2A 1_555 1_555
N2C Co1 1_555 1_555
N2D Co1B 1_555 1_555
N2E Co1A 1_555 1_555
N3C Co1A 1_555 1_555
N3D Co1 1_555 1_555
N3E Co1B 1_555 1_555
O3I_2 Co1 1_555 1_555
O3J_2 Co1B 1_555 1_555
O3K_2 Co1A 1_555 1_555
C5 C6 1_555 1_555
C7 N1 1_555 1_555
C8 N1 1_555 1_555
N2 N3 1_555 1_555
P1 O3 1_555 1_555
P1 O3I 1_555 1_555
O1I Co1A 1_555 1_555
O1I Co1B 1_555 1_555
Co1A O3A 1_555 1_555
C5A C6A 1_555 1_555
C7A N1A 1_555 1_555
C8A N1A 1_555 1_555
N2A N3A 1_555 1_555
P1A O3A 1_555 1_555
P1A O3K 1_555 1_555
Co1B O3B 1_555 1_555
C5B C6B 1_555 1_555
C7B N1B 1_555 1_555
C8B N1B 1_555 1_555
N2B N3B 1_555 1_555
P1B O3B 1_555 1_555
P1B O3J 1_555 1_555
N2C N3C 1_555 1_555
N2D N3D 1_555 1_555
N2E N3E 1_555 1_555

#END
