
#######################################################################
#
#                 Cambridge Crystallographic Data Centre
#                                CCDC 
#
#######################################################################
#
# If this CIF has been generated from an entry in the Cambridge 
# Structural Database, then it will include bibliographic, chemical, 
# crystal, experimental, refinement or atomic coordinate data resulting 
# from the CCDC's data processing and validation procedures.
#
#######################################################################

data_FEZDUL
_chemical_formula_moiety         '(C18 H12 Fe1 N2 O4)n,n(C3 H7 N1 O1)'
_chemical_name_systematic        
"catena-((\m~3~-Isophthalato)-(\m~2~-4,4'-bipyridine)-iron dimethylformamide solvate)"
_symmetry_cell_setting           monoclinic
_symmetry_space_group_name_H-M   'P 2/c'
_symmetry_Int_Tables_number      13
_space_group_name_Hall           '-P 2yc'
loop_
_symmetry_equiv_pos_site_id
_symmetry_equiv_pos_as_xyz
1 x,y,z
2 -x,y,1/2-z
3 -x,-y,-z
4 x,-y,1/2+z
_cell_length_a                   10.064(3)
_cell_length_b                   11.475(3)
_cell_length_c                   15.916(5)
_cell_angle_alpha                90
_cell_angle_beta                 103.182(5)
_cell_angle_gamma                90
_cell_volume                     1789.62
_exptl_crystal_colour            brown
_exptl_crystal_description       rod
_cell_formula_units_Z            4
loop_
_atom_site_label
_atom_site_type_symbol
_atom_site_fract_x
_atom_site_fract_y
_atom_site_fract_z
Fe1 Fe 0.12205(8) 0.26978(7) 0.66430(5)
O1 O -0.6612(4) 0.2781(4) 0.6727(3)
O2 O -0.0740(4) 0.2744(4) 0.5884(3)
C1 C -0.1720(6) 0.2774(5) 0.6253(4)
O3 O -0.1586(5) 0.2594(4) 0.7036(3)
O4 O -0.7949(5) 0.2871(5) 0.5437(3)
C2 C -0.4257(6) 0.2884(5) 0.6065(4)
H1 H -0.4148 0.2668 0.6647
C3 C -0.3121(6) 0.3015(5) 0.5713(4)
N1 N 0.1246(5) 0.0796(5) 0.6615(3)
C4 C 0.0242(7) -0.4768(6) 0.6185(4)
H2 H -0.0451 -0.5173 0.5800
C5 C -0.5554(6) 0.3073(6) 0.5552(4)
C6 C 0.1254(6) -0.1656(6) 0.6682(4)
C7 C 0.0226(7) -0.3573(6) 0.6162(4)
H3 H -0.0468 -0.3181 0.5768
C8 C -0.3279(6) 0.3393(7) 0.4862(4)
H4 H -0.2511 0.3495 0.4627
C9 C 0.2229(8) -0.3563(6) 0.7285(5)
H5 H 0.2941 -0.3176 0.7669
C10 C 0.2150(8) -0.4788(6) 0.7271(5)
H6 H 0.2812 -0.5208 0.7669
C11 C -0.6785(6) 0.2898(5) 0.5925(4)
C12 C 0.1230(6) -0.2943(5) 0.6718(4)
C13 C -0.5709(7) 0.3443(7) 0.4699(4)
H7 H -0.6588 0.3572 0.4354
N2 N 0.1194(5) -0.5383(5) 0.6727(3)
C14 C -0.4590(7) 0.3619(8) 0.4362(5)
H8 H -0.4701 0.3893 0.3793
C15 C 0.0365(14) 0.0189(12) 0.6031(9)
H9 H -0.0263 0.0589 0.5600
C16 C 0.0346(15) -0.1056(12) 0.6041(10)
H10 H -0.0279 -0.1466 0.5614
C17 C 0.2202(14) -0.0963(12) 0.7262(10)
H11 H 0.2877 -0.1326 0.7688
C18 C 0.2157(15) 0.0232(12) 0.7215(10)
H12 H 0.2790 0.0667 0.7620
Fe1_2 Fe -0.87795(8) 0.26978(7) 0.66430(5)
Fe1_3 Fe 0.12205(8) -0.73022(7) 0.66430(5)
Fe1A Fe -0.12205(8) 0.26978(7) 0.83570(5)
O1_2 O 0.3388(4) 0.2781(4) 0.6727(3)
O3A O 0.1586(5) 0.2594(4) 0.7964(3)
O4_2 O 0.2051(5) 0.2871(5) 0.5437(3)
N2_2 N 0.1194(5) 0.4617(5) 0.6727(3)
C19? C 0.0034(17) -0.1070(14) 0.6398(11)
H13? H -0.0790 -0.1483 0.6229
C20? C 0.0047(18) 0.0143(15) 0.6368(11)
H14? H -0.0784 0.0539 0.6173
C21? C 0.2339(15) 0.0210(12) 0.6899(10)
H15? H 0.3154 0.0628 0.7096
C22? C 0.2409(17) -0.1023(14) 0.6939(11)
H16? H 0.3251 -0.1398 0.7142
loop_
_geom_bond_atom_site_label_1
_geom_bond_atom_site_label_2
_geom_bond_site_symmetry_1
_geom_bond_site_symmetry_2
Fe1 O2 1_555 1_555
O1 C11 1_555 1_555
O2 C1 1_555 1_555
C1 O3 1_555 1_555
O3 Fe1A 1_555 1_555
O4 C11 1_555 1_555
C2 H1 1_555 1_555
C3 C1 1_555 1_555
N1 Fe1 1_555 1_555
C4 H2 1_555 1_555
C5 C2 1_555 1_555
C6 C12 1_555 1_555
C7 C4 1_555 1_555
H3 C7 1_555 1_555
C8 C3 1_555 1_555
H4 C8 1_555 1_555
C9 H5 1_555 1_555
C10 C9 1_555 1_555
H6 C10 1_555 1_555
C11 C5 1_555 1_555
C12 C7 1_555 1_555
C13 C5 1_555 1_555
H7 C13 1_555 1_555
N2 C4 1_555 1_555
C14 C8 1_555 1_555
H8 C14 1_555 1_555
C15 N1 1_555 1_555
H9 C15 1_555 1_555
C16 C6 1_555 1_555
H10 C16 1_555 1_555
C17 C6 1_555 1_555
H11 C17 1_555 1_555
C18 N1 1_555 1_555
H12 C18 1_555 1_555
Fe1_2 O1 1_555 1_555
Fe1_3 N2 1_555 1_555
O1_2 Fe1 1_555 1_555
O3A Fe1 1_555 1_555
O4_2 Fe1 1_555 1_555
N2_2 Fe1 1_555 1_555
O4 Fe1_2 1_555 1_555
C2 C3 1_555 1_555
C9 C12 1_555 1_555
C10 N2 1_555 1_555
C13 C14 1_555 1_555
C15 C16 1_555 1_555
C17 C18 1_555 1_555

#END
