
#######################################################################
#
#                 Cambridge Crystallographic Data Centre
#                                CCDC 
#
#######################################################################
#
# If this CIF has been generated from an entry in the Cambridge 
# Structural Database, then it will include bibliographic, chemical, 
# crystal, experimental, refinement or atomic coordinate data resulting 
# from the CCDC's data processing and validation procedures.
#
#######################################################################

data_LUYSEF01
_chemical_formula_moiety         '(C14 H18 Eu1 N3 O9)n'
_chemical_name_systematic        
catena-[(\m-terephthalato)-bis(N,N-dimethylformamide)-nitrato-europium]
_symmetry_cell_setting           monoclinic
_symmetry_space_group_name_H-M   'C 2/c'
_symmetry_Int_Tables_number      15
_space_group_name_Hall           '-C 2yc'
loop_
_symmetry_equiv_pos_site_id
_symmetry_equiv_pos_as_xyz
1 x,y,z
2 -x,y,1/2-z
3 1/2+x,1/2+y,z
4 1/2-x,1/2+y,1/2-z
5 -x,-y,-z
6 x,-y,1/2+z
7 1/2-x,1/2-y,-z
8 1/2+x,1/2-y,1/2+z
_cell_length_a                   17.200(7)
_cell_length_b                   10.737(4)
_cell_length_c                   10.684(4)
_cell_angle_alpha                90
_cell_angle_beta                 96.136(15)
_cell_angle_gamma                90
_cell_volume                     1961.78
_exptl_crystal_colour            white
_exptl_crystal_description       block
_cell_formula_units_Z            4
loop_
_atom_site_label
_atom_site_type_symbol
_atom_site_fract_x
_atom_site_fract_y
_atom_site_fract_z
_atom_site_U_iso_or_equiv
_atom_site_thermal_displace_type
Eu1 Eu 0.5000 0.54320(3) 0.2500 0.0313 Uani
O1 O 0.4152(2) 0.5801(4) 0.3975(3) 0.0661 Uani
O2 O 0.4043(2) 0.5244(3) 0.5930(3) 0.0512 Uani
O3 O 0.4575(3) 0.3286(4) 0.3159(4) 0.0814 Uani
O4 O 0.5000 0.1540(7) 0.2500 0.1991 Uani
O5 O 0.4321(2) 0.7288(4) 0.1628(3) 0.0666 Uani
N1 N 0.5000 0.2680(7) 0.2500 0.0965 Uani
C1 C 0.3836(2) 0.5856(4) 0.4967(4) 0.0381 Uani
C2 C 0.3144(2) 0.6716(4) 0.4985(4) 0.0338 Uani
C3 C 0.2802(3) 0.6892(4) 0.6088(4) 0.0413 Uani
H1 H 0.3003 0.6486 0.6820 0.0500 Uiso
C4 C 0.2158(2) 0.7672(5) 0.6106(4) 0.0427 Uani
H2 H 0.1929 0.7784 0.6848 0.0510 Uiso
N2 N 0.3641(6) 0.8645(11) 0.0386(10) 0.0907 Uani
C5 C 0.4003(6) 0.7573(9) 0.0664(8) 0.0711 Uani
H3 H 0.4001 0.6993 0.0018 0.0850 Uiso
C6 C 0.3517(9) 0.9587(12) 0.1256(14) 0.1130 Uiso
H4 H 0.3088 0.9359 0.1716 0.1690 Uiso
H5 H 0.3397 1.0355 0.0816 0.1690 Uiso
H6 H 0.3980 0.9692 0.1831 0.1690 Uiso
C7 C 0.3193(9) 0.8808(18) -0.0911(14) 0.1390 Uiso
H7 H 0.3476 0.9363 -0.1402 0.2080 Uiso
H8 H 0.2686 0.9149 -0.0825 0.2080 Uiso
H9 H 0.3136 0.8014 -0.1323 0.2080 Uiso
O1F O 0.0848(2) 0.9199(4) 0.6025(3) 0.0661 Uani
O2F O 0.0957(2) 0.9756(3) 0.4070(3) 0.0512 Uani
C1F C 0.1164(2) 0.9144(4) 0.5033(4) 0.0381 Uani
C2F C 0.1856(2) 0.8284(4) 0.5015(4) 0.0338 Uani
C3F C 0.2198(3) 0.8108(4) 0.3912(4) 0.0413 Uani
H1F H 0.1997 0.8514 0.3180 0.0500 Uiso
C4F C 0.2842(2) 0.7328(5) 0.3894(4) 0.0427 Uani
H2F H 0.3071 0.7216 0.3152 0.0510 Uiso
O3A O 0.5425(3) 0.3286(4) 0.1841(4) 0.0814 Uani
O5A O 0.5679(2) 0.7288(4) 0.3372(3) 0.0666 Uani
N2A N 0.6359(6) 0.8645(11) 0.4614(10) 0.0907 Uani
C5A C 0.5997(6) 0.7573(9) 0.4336(8) 0.0711 Uani
H3A H 0.5999 0.6993 0.4982 0.0850 Uiso
C6A C 0.6483(9) 0.9587(12) 0.3744(14) 0.1130 Uiso
H4A H 0.6912 0.9359 0.3284 0.1690 Uiso
H5A H 0.6603 1.0355 0.4184 0.1690 Uiso
H6A H 0.6020 0.9692 0.3169 0.1690 Uiso
C7A C 0.6807(9) 0.8808(18) 0.5911(14) 0.1390 Uiso
H7A H 0.6524 0.9363 0.6402 0.2080 Uiso
H8A H 0.7314 0.9149 0.5825 0.2080 Uiso
H9A H 0.6864 0.8014 0.6323 0.2080 Uiso
Eu1B Eu 0.0000 1.04320(3) 0.2500 0.0313 Uani
Eu1D Eu 0.5000 0.45680(3) 0.7500 0.0313 Uani
Eu1F Eu 0.0000 0.95680(3) 0.7500 0.0313 Uani
O1A O 0.5848(2) 0.5801(4) 0.1025(3) 0.0661 Uani
O2D O 0.5957(2) 0.4756(3) 0.4070(3) 0.0512 Uani
O2E O 0.4043(2) 0.4756(3) 0.0930(3) 0.0512 Uani
N3? N 0.4100(11) 0.9061(18) 0.043(2) 0.0907 Uani
C8? C 0.4527(12) 0.8211(17) 0.1079(18) 0.0786 Uani
H10? H 0.5065 0.8334 0.1129 0.0940 Uiso
C9? C 0.4282(18) 1.018(2) -0.007(3) 0.1490 Uiso
H11? H 0.4093 1.0838 0.0420 0.2230 Uiso
H12? H 0.4042 1.0234 -0.0922 0.2230 Uiso
H13? H 0.4839 1.0244 -0.0061 0.2230 Uiso
C10? C 0.3225(14) 0.867(3) 0.033(4) 0.1500 Uiso
H14? H 0.2943 0.9249 0.0797 0.2250 Uiso
H15? H 0.3183 0.7850 0.0666 0.2250 Uiso
H16? H 0.3010 0.8681 -0.0539 0.2250 Uiso
loop_
_atom_site_aniso_label
_atom_site_aniso_U_11
_atom_site_aniso_U_22
_atom_site_aniso_U_33
_atom_site_aniso_U_23
_atom_site_aniso_U_13
_atom_site_aniso_U_12
Eu1 0.03186(16) 0.03462(17) 0.02795(16) 0.000 0.00604(10) 0.000
O1 0.058(2) 0.098(3) 0.0464(19) 0.0099(19) 0.0251(17) 0.042(2)
O2 0.0464(18) 0.062(2) 0.0450(19) 0.0107(16) 0.0034(15) 0.0230(16)
O3 0.098(3) 0.061(3) 0.085(3) 0.024(2) 0.009(3) -0.024(2)
O4 0.311(16) 0.034(4) 0.243(13) 0.000 -0.013(12) 0.000
O5 0.082(3) 0.055(2) 0.057(2) 0.0150(19) -0.019(2) 0.006(2)
N1 0.149(9) 0.032(4) 0.101(7) 0.000 -0.021(6) 0.000
C1 0.033(2) 0.043(2) 0.039(2) -0.006(2) 0.0066(18) 0.0065(18)
C2 0.0303(19) 0.037(2) 0.035(2) 0.0015(18) 0.0070(16) 0.0070(17)
C3 0.044(2) 0.054(3) 0.0266(19) 0.0090(19) 0.0065(17) 0.015(2)
C4 0.041(2) 0.059(3) 0.030(2) 0.003(2) 0.0119(18) 0.018(2)
N2 0.108(9) 0.100(8) 0.068(4) 0.031(5) 0.028(8) 0.061(8)
C5 0.102(8) 0.069(6) 0.042(5) 0.003(4) 0.006(5) 0.054(6)
O1F 0.058 0.098 0.0464 0.0099 0.0251 0.042
O2F 0.0464 0.062 0.045 0.0107 0.0034 0.023
C1F 0.033 0.043 0.039 -0.006 0.0066 0.0065
C2F 0.0303 0.037 0.035 0.0015 0.007 0.007
C3F 0.044 0.054 0.0266 0.009 0.0065 0.015
C4F 0.041 0.059 0.03 0.003 0.0119 0.018
O3A 0.098 0.061 0.085 -0.024 0.009 0.024
O5A 0.082 0.055 0.057 -0.015 -0.019 -0.006
N2A 0.108 0.1 0.068 -0.031 0.028 -0.061
C5A 0.102 0.069 0.042 -0.003 0.006 -0.054
Eu1B 0.03186 0.03462 0.02795 0 0.00604 0
Eu1D 0.03186 0.03462 0.02795 0 0.00604 0
Eu1F 0.03186 0.03462 0.02795 0 0.00604 0
O1A 0.058 0.098 0.0464 -0.0099 0.0251 -0.042
O2D 0.0464 0.062 0.045 0.0107 0.0034 0.023
O2E 0.0464 0.062 0.045 -0.0107 0.0034 -0.023
N3? 0.108(9) 0.100(8) 0.068(4) 0.031(5) 0.028(8) 0.061(8)
C8? 0.091(14) 0.063(12) 0.074(12) 0.017(10) -0.027(11) 0.007(10)
loop_
_geom_bond_atom_site_label_1
_geom_bond_atom_site_label_2
_geom_bond_site_symmetry_1
_geom_bond_site_symmetry_2
Eu1 O1 1_555 1_555
O1 C1 1_555 1_555
O2 C1 1_555 1_555
O3 Eu1 1_555 1_555
O4 N1 1_555 1_555
O5 Eu1 1_555 1_555
N1 O3 1_555 1_555
C1 C2 1_555 1_555
C2 C3 1_555 1_555
C3 H1 1_555 1_555
C4 C3 1_555 1_555
H2 C4 1_555 1_555
N2 C5 1_555 1_555
C5 O5 1_555 1_555
H3 C5 1_555 1_555
C6 N2 1_555 1_555
H4 C6 1_555 1_555
H5 C6 1_555 1_555
H6 C6 1_555 1_555
C7 N2 1_555 1_555
H7 C7 1_555 1_555
H8 C7 1_555 1_555
H9 C7 1_555 1_555
O1F C1F 1_555 1_555
O2F C1F 1_555 1_555
C1F C2F 1_555 1_555
C2F C4 1_555 1_555
C3F C2F 1_555 1_555
H1F C3F 1_555 1_555
C4F C2 1_555 1_555
H2F C4F 1_555 1_555
O3A Eu1 1_555 1_555
O5A Eu1 1_555 1_555
N2A C5A 1_555 1_555
C5A O5A 1_555 1_555
H3A C5A 1_555 1_555
C6A N2A 1_555 1_555
H4A C6A 1_555 1_555
H5A C6A 1_555 1_555
H6A C6A 1_555 1_555
C7A N2A 1_555 1_555
H7A C7A 1_555 1_555
H8A C7A 1_555 1_555
H9A C7A 1_555 1_555
Eu1B O2F 1_555 1_555
Eu1D O2 1_555 1_555
Eu1F O1F 1_555 1_555
O1A Eu1 1_555 1_555
O2D Eu1 1_555 1_555
O2E Eu1 1_555 1_555
N1 O3A 1_555 1_555
C3F C4F 1_555 1_555

#END
