
#######################################################################
#
#                 Cambridge Crystallographic Data Centre
#                                CCDC 
#
#######################################################################
#
# If this CIF has been generated from an entry in the Cambridge 
# Structural Database, then it will include bibliographic, chemical, 
# crystal, experimental, refinement or atomic coordinate data resulting 
# from the CCDC's data processing and validation procedures.
#
#######################################################################

data_WETPES
_chemical_name_common            ZJU-25
_chemical_formula_moiety         '(C29 H17 Cu2 O10)n'
_chemical_name_systematic        
"catena-((\m~8~-5,5'-(4aH-fluorene-2,7-diyl)dibenzene-1,3-dicarboxylato)-diaqua-di-copper(ii) unknown solvate)"
_symmetry_cell_setting           hexagonal
_symmetry_space_group_name_H-M   'P 63/m m c'
_symmetry_Int_Tables_number      194
_space_group_name_Hall           '-P 6c 2c'
loop_
_symmetry_equiv_pos_site_id
_symmetry_equiv_pos_as_xyz
1 x,y,z
2 x-y,x,1/2+z
3 -y,x-y,z
4 -x,-y,1/2+z
5 -x+y,-x,z
6 y,-x+y,1/2+z
7 -y,-x,1/2-z
8 x-y,-y,-z
9 x,x-y,1/2-z
10 y,x,-z
11 -x+y,y,1/2-z
12 -x,-x+y,-z
13 -x,-y,-z
14 -x+y,-x,1/2-z
15 y,-x+y,-z
16 x,y,1/2-z
17 x-y,x,-z
18 -y,x-y,1/2-z
19 y,x,1/2+z
20 -x+y,y,z
21 -x,-x+y,1/2+z
22 -y,-x,z
23 x-y,-y,1/2+z
24 x,x-y,z
_cell_length_a                   18.2512(8)
_cell_length_b                   18.2512(8)
_cell_length_c                   34.2802(12)
_cell_angle_alpha                90
_cell_angle_beta                 90
_cell_angle_gamma                120
_cell_volume                     9889.1
_exptl_crystal_colour            green
_exptl_crystal_description       block
_cell_formula_units_Z            6
loop_
_atom_site_label
_atom_site_type_symbol
_atom_site_fract_x
_atom_site_fract_y
_atom_site_fract_z
Cu1 Cu 0.52529(2) 0.47472(4) -0.030968(15)
O1 O 0.56267(27) 0.58650(18) -0.05131(7)
O2 O 0.51966(26) 0.62920(17) 0.00140(7)
O3 O 0.56511(44) 0.4349(4) -0.08083(16)
C1 C 0.5515(4) 0.6391(3) -0.03282(11)
C2 C 0.5606(3) 0.7803(2) -0.03365(15)
H1 H 0.5392 0.7696 -0.0084
C3 C 0.5754(4) 0.7213(3) -0.05131(10)
C4 C 0.6105(5) 0.7414(3) -0.08868(11)
H2 H 0.6241 0.7044 -0.1011
C5 C 0.6252(3) 0.8126(2) -0.10750(16)
C6 C 0.6542(4) 0.8271(3) -0.15108(16)
C7 C 0.7100(13) 0.8056(10) -0.1637(3)
H3 H 0.7367 0.7835 -0.1459
C8 C 0.7308(11) 0.8145(8) -0.2028(3)
H4 H 0.7696 0.7999 -0.2122
C9 C 0.6120(10) 0.8533(7) -0.1766(2)
H5 H 0.5667 0.8653 -0.1675
C10 C 0.6357(10) 0.7775(7) -0.2163(2)
C11 C 0.6924(6) 0.8462(4) -0.22868(19)
C12 C 0.5912(16) 0.7136(11) -0.2500
H6 H 0.5304 0.6904 -0.2500
H7 H 0.6043 0.6682 -0.2500
Cu1W Cu 0.52529(2) 1.05057(4) -0.030968(15)
Cu1I Cu 0.47472(4) 0.52529(2) 0.030968(15)
Cu1N Cu 0.47472(4) 0.94943(4) 0.030968(15)
Cu1H Cu 0.52529(2) 1.05057(4) -0.469032(15)
Cu1E Cu 0.47472(4) 0.94943(4) -0.530968(15)
Cu1O Cu 0.52529(2) 0.47472(4) -0.469032(15)
Cu1R Cu 0.47472(4) 0.52529(2) -0.530968(15)
O1W O 0.56267(27) 0.97617(32) -0.05131(7)
O1H O 0.56267(27) 0.97617(32) -0.44869(7)
O1O O 0.56267(27) 0.58650(18) -0.44869(7)
O1U O 0.41350(18) 0.43733(27) -0.05131(7)
O1B O 0.41350(18) 0.97617(32) -0.05131(7)
O2W O 0.51966(26) 0.89046(31) 0.00140(7)
O2H O 0.51966(26) 0.89046(31) -0.50140(7)
O2O O 0.51966(26) 0.62920(17) -0.50140(7)
O2I O 0.62920(17) 0.51966(26) -0.00140(7)
O2L O 0.48034(26) 0.37080(17) -0.00140(7)
O2N O 0.62920(17) 1.10954(31) -0.00140(7)
O2K O 0.48034(26) 1.10954(31) -0.00140(7)
O3W O 0.56511(44) 1.13021(59) -0.08083(16)
C1W C 0.5515(4) 0.9124(5) -0.03282(11)
C1H C 0.5515(4) 0.9124(5) -0.46718(11)
C1O C 0.5515(4) 0.6391(3) -0.46718(11)
C2H C 0.5606(3) 0.7803(4) -0.46635(15)
H1H H 0.5392 0.7696 -0.4916
C3W C 0.5754(4) 0.8541(5) -0.05131(10)
C3H C 0.5754(4) 0.8541(5) -0.44869(10)
C3O C 0.5754(4) 0.7213(3) -0.44869(10)
C4W C 0.6105(5) 0.8691(6) -0.08868(11)
C4H C 0.6105(5) 0.8691(6) -0.41132(11)
C4O C 0.6105(5) 0.7414(3) -0.41132(11)
H2W H 0.6241 0.9197 -0.1011
H2O H 0.6241 0.7044 -0.3989
H2H H 0.6241 0.9197 -0.3989
C5H C 0.6252(3) 0.8126(4) -0.39250(16)
C6H C 0.6542(4) 0.8271(5) -0.34892(16)
C7W C 0.7100(13) 0.9044(16) -0.1637(3)
C7H C 0.7100(13) 0.9044(16) -0.3363(3)
C7O C 0.7100(13) 0.8056(10) -0.3363(3)
H3W H 0.7367 0.9532 -0.1459
H3O H 0.7367 0.7835 -0.3541
H3H H 0.7367 0.9532 -0.3541
C8W C 0.7308(11) 0.9163(14) -0.2028(3)
C8H C 0.7308(11) 0.9163(14) -0.2972(3)
C8O C 0.7308(11) 0.8145(8) -0.2972(3)
H4W H 0.7696 0.9697 -0.2122
H4O H 0.7696 0.7999 -0.2878
H4H H 0.7696 0.9697 -0.2878
C9W C 0.6120(10) 0.7587(12) -0.1766(2)
C9H C 0.6120(10) 0.7587(12) -0.3234(2)
C9O C 0.6120(10) 0.8533(7) -0.3234(2)
H5W H 0.5667 0.7014 -0.1675
H5O H 0.5667 0.8653 -0.3325
H5H H 0.5667 0.7014 -0.3325
C10W C 0.6357(10) 0.8582(12) -0.2163(2)
C10H C 0.6357(10) 0.8582(12) -0.2837(2)
C10O C 0.6357(10) 0.7775(7) -0.2837(2)
C11H C 0.6924(6) 0.8462(7) -0.27132(19)
C12H C 0.5912(16) 0.8776(19) -0.2500
H6H H 0.5304 0.8400 -0.2500
H7H H 0.6043 0.9361 -0.2500
loop_
_geom_bond_atom_site_label_1
_geom_bond_atom_site_label_2
_geom_bond_site_symmetry_1
_geom_bond_site_symmetry_2
Cu1 O1 1_555 1_555
O1 C1 1_555 1_555
O2 C1 1_555 1_555
O3 Cu1 1_555 1_555
C1 C3 1_555 1_555
C2 H1 1_555 1_555
C3 C2 1_555 1_555
C4 C3 1_555 1_555
H2 C4 1_555 1_555
C5 C4 1_555 1_555
C6 C5 1_555 1_555
C7 C6 1_555 1_555
H3 C7 1_555 1_555
C8 C7 1_555 1_555
H4 C8 1_555 1_555
C9 C6 1_555 1_555
H5 C9 1_555 1_555
C10 C8 1_555 1_555
C11 C8 1_555 1_555
C12 C10 1_555 1_555
H6 C12 1_555 1_555
H7 C12 1_555 1_555
Cu1W O1W 1_555 1_555
Cu1I O2 1_555 1_555
Cu1N O2W 1_555 1_555
Cu1H O1H 1_555 1_555
Cu1E O2H 1_555 1_555
Cu1O O1O 1_555 1_555
Cu1R O2O 1_555 1_555
O1W C1W 1_555 1_555
O1H C1H 1_555 1_555
O1O C1O 1_555 1_555
O1U Cu1 1_555 1_555
O1B Cu1W 1_555 1_555
O2W C1W 1_555 1_555
O2H C1H 1_555 1_555
O2O C1O 1_555 1_555
O2I Cu1 1_555 1_555
O2L Cu1 1_555 1_555
O2N Cu1W 1_555 1_555
O2K Cu1W 1_555 1_555
O3W Cu1W 1_555 1_555
C1W C3W 1_555 1_555
C1H C3H 1_555 1_555
C1O C3O 1_555 1_555
C2H H1H 1_555 1_555
C3W C2 1_555 1_555
C3H C2H 1_555 1_555
C3O C2H 1_555 1_555
C4W C5 1_555 1_555
C4H C3H 1_555 1_555
C4O C3O 1_555 1_555
H2W C4W 1_555 1_555
H2O C4O 1_555 1_555
H2H C4H 1_555 1_555
C5H C4H 1_555 1_555
C6H C5H 1_555 1_555
C7W C6 1_555 1_555
C7H C6H 1_555 1_555
C7O C6H 1_555 1_555
H3W C7W 1_555 1_555
H3O C7O 1_555 1_555
H3H C7H 1_555 1_555
C8W C11 1_555 1_555
C8H C7H 1_555 1_555
C8O C7O 1_555 1_555
H4W C8W 1_555 1_555
H4O C8O 1_555 1_555
H4H C8H 1_555 1_555
C9W C6 1_555 1_555
C9H C6H 1_555 1_555
C9O C6H 1_555 1_555
H5W C9W 1_555 1_555
H5O C9O 1_555 1_555
H5H C9H 1_555 1_555
C10W C9 1_555 1_555
C10H C8H 1_555 1_555
C10O C12 1_555 1_555
C11H C11 1_555 1_555
C12H C10W 1_555 1_555
H6H C12H 1_555 1_555
H7H C12H 1_555 1_555
C7 C9W 1_555 1_555
C9 C7W 1_555 1_555
C9 C9W 1_555 1_555
C10 C11 1_555 1_555
C10 C9W 1_555 1_555
C10 C10W 1_555 1_555
C11 C10W 1_555 1_555
C3W C4W 1_555 1_555
C4O C5H 1_555 1_555
C7W C8W 1_555 1_555
C7H C9O 1_555 1_555
C7O C9H 1_555 1_555
C8W C10W 1_555 1_555
C8H C11H 1_555 1_555
C8O C10O 1_555 1_555
C8O C11H 1_555 1_555
C9H C9O 1_555 1_555
C9H C10O 1_555 1_555
C9O C10H 1_555 1_555
C10H C10O 1_555 1_555
C10H C11H 1_555 1_555
C10H C12H 1_555 1_555
C10O C11H 1_555 1_555

#END
