
#######################################################################
#
#                 Cambridge Crystallographic Data Centre
#                                CCDC 
#
#######################################################################
#
# If this CIF has been generated from an entry in the Cambridge 
# Structural Database, then it will include bibliographic, chemical, 
# crystal, experimental, refinement or atomic coordinate data resulting 
# from the CCDC's data processing and validation procedures.
#
#######################################################################

data_IFEROC
_chemical_formula_moiety         '(C42 H28 F6 O19 Tb3 1-)n,n(C2 H8 N1 1+)'
_chemical_name_systematic        
"catena-(Dimethylammonium tris(\m~4~-3,3'-difluorobiphenyl-4,4'-dicarboxylato)-tetrakis(\m~3~-hydroxo)-triaqua-tri-terbium unknown solvate)"
_symmetry_cell_setting           cubic
_symmetry_space_group_name_H-M   'F m -3 m'
_symmetry_Int_Tables_number      225
_space_group_name_Hall           '-F 4 2 3'
loop_
_symmetry_equiv_pos_site_id
_symmetry_equiv_pos_as_xyz
1 x,y,z
2 -x,-y,z
3 -x,y,-z
4 x,-y,-z
5 z,x,y
6 z,-x,-y
7 -z,-x,y
8 -z,x,-y
9 y,z,x
10 -y,z,-x
11 y,-z,-x
12 -y,-z,x
13 y,x,-z
14 -y,-x,-z
15 y,-x,z
16 -y,x,z
17 x,z,-y
18 -x,z,y
19 -x,-z,-y
20 x,-z,y
21 z,y,-x
22 z,-y,x
23 -z,y,x
24 -z,-y,-x
25 x,1/2+y,1/2+z
26 -x,1/2-y,1/2+z
27 -x,1/2+y,1/2-z
28 x,1/2-y,1/2-z
29 z,1/2+x,1/2+y
30 z,1/2-x,1/2-y
31 -z,1/2-x,1/2+y
32 -z,1/2+x,1/2-y
33 y,1/2+z,1/2+x
34 -y,1/2+z,1/2-x
35 y,1/2-z,1/2-x
36 -y,1/2-z,1/2+x
37 y,1/2+x,1/2-z
38 -y,1/2-x,1/2-z
39 y,1/2-x,1/2+z
40 -y,1/2+x,1/2+z
41 x,1/2+z,1/2-y
42 -x,1/2+z,1/2+y
43 -x,1/2-z,1/2-y
44 x,1/2-z,1/2+y
45 z,1/2+y,1/2-x
46 z,1/2-y,1/2+x
47 -z,1/2+y,1/2+x
48 -z,1/2-y,1/2-x
49 1/2+x,y,1/2+z
50 1/2-x,-y,1/2+z
51 1/2-x,y,1/2-z
52 1/2+x,-y,1/2-z
53 1/2+z,x,1/2+y
54 1/2+z,-x,1/2-y
55 1/2-z,-x,1/2+y
56 1/2-z,x,1/2-y
57 1/2+y,z,1/2+x
58 1/2-y,z,1/2-x
59 1/2+y,-z,1/2-x
60 1/2-y,-z,1/2+x
61 1/2+y,x,1/2-z
62 1/2-y,-x,1/2-z
63 1/2+y,-x,1/2+z
64 1/2-y,x,1/2+z
65 1/2+x,z,1/2-y
66 1/2-x,z,1/2+y
67 1/2-x,-z,1/2-y
68 1/2+x,-z,1/2+y
69 1/2+z,y,1/2-x
70 1/2+z,-y,1/2+x
71 1/2-z,y,1/2+x
72 1/2-z,-y,1/2-x
73 1/2+x,1/2+y,z
74 1/2-x,1/2-y,z
75 1/2-x,1/2+y,-z
76 1/2+x,1/2-y,-z
77 1/2+z,1/2+x,y
78 1/2+z,1/2-x,-y
79 1/2-z,1/2-x,y
80 1/2-z,1/2+x,-y
81 1/2+y,1/2+z,x
82 1/2-y,1/2+z,-x
83 1/2+y,1/2-z,-x
84 1/2-y,1/2-z,x
85 1/2+y,1/2+x,-z
86 1/2-y,1/2-x,-z
87 1/2+y,1/2-x,z
88 1/2-y,1/2+x,z
89 1/2+x,1/2+z,-y
90 1/2-x,1/2+z,y
91 1/2-x,1/2-z,-y
92 1/2+x,1/2-z,y
93 1/2+z,1/2+y,-x
94 1/2+z,1/2-y,x
95 1/2-z,1/2+y,x
96 1/2-z,1/2-y,-x
97 -x,-y,-z
98 x,y,-z
99 x,-y,z
100 -x,y,z
101 -z,-x,-y
102 -z,x,y
103 z,x,-y
104 z,-x,y
105 -y,-z,-x
106 y,-z,x
107 -y,z,x
108 y,z,-x
109 -y,-x,z
110 y,x,z
111 -y,x,-z
112 y,-x,-z
113 -x,-z,y
114 x,-z,-y
115 x,z,y
116 -x,z,-y
117 -z,-y,x
118 -z,y,-x
119 z,-y,-x
120 z,y,x
121 -x,1/2-y,1/2-z
122 x,1/2+y,1/2-z
123 x,1/2-y,1/2+z
124 -x,1/2+y,1/2+z
125 -z,1/2-x,1/2-y
126 -z,1/2+x,1/2+y
127 z,1/2+x,1/2-y
128 z,1/2-x,1/2+y
129 -y,1/2-z,1/2-x
130 y,1/2-z,1/2+x
131 -y,1/2+z,1/2+x
132 y,1/2+z,1/2-x
133 -y,1/2-x,1/2+z
134 y,1/2+x,1/2+z
135 -y,1/2+x,1/2-z
136 y,1/2-x,1/2-z
137 -x,1/2-z,1/2+y
138 x,1/2-z,1/2-y
139 x,1/2+z,1/2+y
140 -x,1/2+z,1/2-y
141 -z,1/2-y,1/2+x
142 -z,1/2+y,1/2-x
143 z,1/2-y,1/2-x
144 z,1/2+y,1/2+x
145 1/2-x,-y,1/2-z
146 1/2+x,y,1/2-z
147 1/2+x,-y,1/2+z
148 1/2-x,y,1/2+z
149 1/2-z,-x,1/2-y
150 1/2-z,x,1/2+y
151 1/2+z,x,1/2-y
152 1/2+z,-x,1/2+y
153 1/2-y,-z,1/2-x
154 1/2+y,-z,1/2+x
155 1/2-y,z,1/2+x
156 1/2+y,z,1/2-x
157 1/2-y,-x,1/2+z
158 1/2+y,x,1/2+z
159 1/2-y,x,1/2-z
160 1/2+y,-x,1/2-z
161 1/2-x,-z,1/2+y
162 1/2+x,-z,1/2-y
163 1/2+x,z,1/2+y
164 1/2-x,z,1/2-y
165 1/2-z,-y,1/2+x
166 1/2-z,y,1/2-x
167 1/2+z,-y,1/2-x
168 1/2+z,y,1/2+x
169 1/2-x,1/2-y,-z
170 1/2+x,1/2+y,-z
171 1/2+x,1/2-y,z
172 1/2-x,1/2+y,z
173 1/2-z,1/2-x,-y
174 1/2-z,1/2+x,y
175 1/2+z,1/2+x,-y
176 1/2+z,1/2-x,y
177 1/2-y,1/2-z,-x
178 1/2+y,1/2-z,x
179 1/2-y,1/2+z,x
180 1/2+y,1/2+z,-x
181 1/2-y,1/2-x,z
182 1/2+y,1/2+x,z
183 1/2-y,1/2+x,-z
184 1/2+y,1/2-x,-z
185 1/2-x,1/2-z,y
186 1/2+x,1/2-z,-y
187 1/2+x,1/2+z,y
188 1/2-x,1/2+z,-y
189 1/2-z,1/2-y,x
190 1/2-z,1/2+y,-x
191 1/2+z,1/2-y,-x
192 1/2+z,1/2+y,x
_cell_length_a                   27.4756(7)
_cell_length_b                   27.4756(7)
_cell_length_c                   27.4756(7)
_cell_angle_alpha                90
_cell_angle_beta                 90
_cell_angle_gamma                90
_cell_volume                     20741.6
_exptl_crystal_colour            colorless
_exptl_crystal_description       polyhedron
_cell_formula_units_Z            8
loop_
_atom_site_label
_atom_site_type_symbol
_atom_site_fract_x
_atom_site_fract_y
_atom_site_fract_z
Tb1 Tb 0.5000 0.900032(14) 0.5000
O1 O 0.54594(7) 0.95406(7) 0.45406(7)
O2 O 0.42340(16) 0.86437(15) 0.5000
C1 C 0.3405(3) 0.8405(3) 0.5000
C2 C 0.3808(3) 0.8808(3) 0.5000
C3 C 0.2698(3) 0.7698(3) 0.5000
O3 O 0.5000 0.8063(7) 0.5000
C4 C 0.2933(3) 0.8528(3) 0.5162(3)
H1 H 0.2860 0.8847 0.5274
C5 C 0.2574(4) 0.8165(3) 0.5152(3)
H2 H 0.2250 0.8237 0.5248
F1 F 0.2751(9) 0.8964(6) 0.5313(9)
O2M O 0.13563(15) 0.57660(16) 0.5000
C1M C 0.1595(3) 0.6595(3) 0.5000
C2M C 0.1192(3) 0.6192(3) 0.5000
C3M C 0.2302(3) 0.7302(3) 0.5000
C4M C 0.1472(3) 0.7067(3) 0.4838(3)
H1M H 0.1153 0.7140 0.4726
C5M C 0.1835(3) 0.7426(4) 0.4848(3)
H2M H 0.1763 0.7750 0.4752
F1M F 0.1036(6) 0.7249(9) 0.4687(9)
O2UB O 0.07660(16) 0.63563(15) 0.5000
C4UB C 0.2067(3) 0.6472(3) 0.5162(3)
H1UB H 0.2140 0.6153 0.5274
C5UB C 0.2426(4) 0.6835(3) 0.5152(3)
H2UB H 0.2750 0.6763 0.5248
F1UB F 0.2249(9) 0.6036(6) 0.5313(9)
O2FC O 0.36437(15) 0.92340(16) 0.5000
C4FC C 0.3528(3) 0.7933(3) 0.4838(3)
H1FC H 0.3847 0.7860 0.4726
C5FC C 0.3165(3) 0.7574(4) 0.4848(3)
H2FC H 0.3237 0.7250 0.4752
F1FC F 0.3964(6) 0.7751(9) 0.4687(9)
C4SC C 0.2933(3) 0.8528(3) 0.4838(3)
H1SC H 0.2860 0.8847 0.4726
C5SC C 0.2574(4) 0.8165(3) 0.4848(3)
H2SC H 0.2250 0.8237 0.4752
F1SC F 0.2751(9) 0.8964(6) 0.4687(9)
C4DD C 0.1472(3) 0.7067(3) 0.5162(3)
H1DD H 0.1153 0.7140 0.5274
C5DD C 0.1835(3) 0.7426(4) 0.5152(3)
H2DD H 0.1763 0.7750 0.5248
F1DD F 0.1036(6) 0.7249(9) 0.5313(9)
C4LF C 0.2067(3) 0.6472(3) 0.4838(3)
H1LF H 0.2140 0.6153 0.4726
C5LF C 0.2426(4) 0.6835(3) 0.4848(3)
H2LF H 0.2750 0.6763 0.4752
F1LF F 0.2249(9) 0.6036(6) 0.4687(9)
C4YF C 0.3528(3) 0.7933(3) 0.5162(3)
H1YF H 0.3847 0.7860 0.5274
C5YF C 0.3165(3) 0.7574(4) 0.5152(3)
H2YF H 0.3237 0.7250 0.5248
F1YF F 0.3964(6) 0.7751(9) 0.5313(9)
O1B O 0.45406(7) 0.95406(7) 0.54594(7)
O2B O 0.57660(16) 0.86437(15) 0.5000
C1B C 0.6595(3) 0.8405(3) 0.5000
C2B C 0.6192(3) 0.8808(3) 0.5000
C3B C 0.7302(3) 0.7698(3) 0.5000
C4B C 0.7067(3) 0.8528(3) 0.4838(3)
H1B H 0.7140 0.8847 0.4726
C5B C 0.7426(4) 0.8165(3) 0.4848(3)
H2B H 0.7750 0.8237 0.4752
F1B F 0.7249(9) 0.8964(6) 0.4687(9)
O2N O 0.86437(15) 0.57660(16) 0.5000
C1N C 0.8405(3) 0.6595(3) 0.5000
C2N C 0.8808(3) 0.6192(3) 0.5000
C3N C 0.7698(3) 0.7302(3) 0.5000
C4N C 0.8528(3) 0.7067(3) 0.5162(3)
H1N H 0.8847 0.7140 0.5274
C5N C 0.8165(3) 0.7426(4) 0.5152(3)
H2N H 0.8237 0.7750 0.5248
F1N F 0.8964(6) 0.7249(9) 0.5313(9)
O2WB O 0.92340(16) 0.63563(15) 0.5000
C4WB C 0.7933(3) 0.6472(3) 0.4838(3)
H1WB H 0.7860 0.6153 0.4726
C5WB C 0.7574(4) 0.6835(3) 0.4848(3)
H2WB H 0.7250 0.6763 0.4752
F1WB F 0.7751(9) 0.6036(6) 0.4687(9)
O2IC O 0.63563(15) 0.92340(16) 0.5000
C4IC C 0.6472(3) 0.7933(3) 0.5162(3)
H1IC H 0.6153 0.7860 0.5274
C5IC C 0.6835(3) 0.7574(4) 0.5152(3)
H2IC H 0.6763 0.7250 0.5248
F1IC F 0.6036(6) 0.7751(9) 0.5313(9)
C4UC C 0.7067(3) 0.8528(3) 0.5162(3)
H1UC H 0.7140 0.8847 0.5274
C5UC C 0.7426(4) 0.8165(3) 0.5152(3)
H2UC H 0.7750 0.8237 0.5248
F1UC F 0.7249(9) 0.8964(6) 0.5313(9)
C4GD C 0.8528(3) 0.7067(3) 0.4838(3)
H1GD H 0.8847 0.7140 0.4726
C5GD C 0.8165(3) 0.7426(4) 0.4848(3)
H2GD H 0.8237 0.7750 0.4752
F1GD F 0.8964(6) 0.7249(9) 0.4687(9)
C4NF C 0.7933(3) 0.6472(3) 0.5162(3)
H1NF H 0.7860 0.6153 0.5274
C5NF C 0.7574(4) 0.6835(3) 0.5152(3)
H2NF H 0.7250 0.6763 0.5248
F1NF F 0.7751(9) 0.6036(6) 0.5313(9)
C4ZF C 0.6472(3) 0.7933(3) 0.4838(3)
H1ZF H 0.6153 0.7860 0.4726
C5ZF C 0.6835(3) 0.7574(4) 0.4848(3)
H2ZF H 0.6763 0.7250 0.4752
F1ZF F 0.6036(6) 0.7751(9) 0.4687(9)
Tb1E Tb 0.5000 0.5000 0.099968(14)
O2E O 0.5000 0.57660(16) 0.13563(15)
C1E C 0.5000 0.6595(3) 0.1595(3)
C2E C 0.5000 0.6192(3) 0.1192(3)
C3E C 0.5000 0.7302(3) 0.2302(3)
O3E O 0.5000 0.5000 0.1937(7)
C4E C 0.5162(3) 0.7067(3) 0.1472(3)
H1E H 0.5274 0.7140 0.1153
C5E C 0.5152(3) 0.7426(4) 0.1835(3)
H2E H 0.5248 0.7750 0.1763
F1E F 0.5313(9) 0.7249(9) 0.1036(6)
O2V O 0.5000 0.86437(15) 0.42340(16)
C1V C 0.5000 0.8405(3) 0.3405(3)
C2V C 0.5000 0.8808(3) 0.3808(3)
C3V C 0.5000 0.7698(3) 0.2698(3)
C4V C 0.4838(3) 0.8528(3) 0.2933(3)
H1V H 0.4726 0.8847 0.2860
C5V C 0.4848(3) 0.8165(3) 0.2574(4)
H2V H 0.4752 0.8237 0.2250
F1V F 0.4687(9) 0.8964(6) 0.2751(9)
O2BA O 0.5000 0.92340(16) 0.36437(15)
C4BA C 0.5162(3) 0.7933(3) 0.3528(3)
H1BA H 0.5274 0.7860 0.3847
C5BA C 0.5152(3) 0.7574(4) 0.3165(3)
H2BA H 0.5248 0.7250 0.3237
F1BA F 0.5313(9) 0.7751(9) 0.3964(6)
O2UA O 0.5000 0.63563(15) 0.07660(16)
C4UA C 0.4838(3) 0.6472(3) 0.2067(3)
H1UA H 0.4726 0.6153 0.2140
C5UA C 0.4848(3) 0.6835(3) 0.2426(4)
H2UA H 0.4752 0.6763 0.2750
F1UA F 0.4687(9) 0.6036(6) 0.2249(9)
C4VC C 0.4838(3) 0.7067(3) 0.1472(3)
H1VC H 0.4726 0.7140 0.1153
C5VC C 0.4848(3) 0.7426(4) 0.1835(3)
H2VC H 0.4752 0.7750 0.1763
F1VC F 0.4687(9) 0.7249(9) 0.1036(6)
C4OD C 0.5162(3) 0.8528(3) 0.2933(3)
H1OD H 0.5274 0.8847 0.2860
C5OD C 0.5152(3) 0.8165(3) 0.2574(4)
H2OD H 0.5248 0.8237 0.2250
F1OD F 0.5313(9) 0.8964(6) 0.2751(9)
C4UD C 0.4838(3) 0.7933(3) 0.3528(3)
H1UD H 0.4726 0.7860 0.3847
C5UD C 0.4848(3) 0.7574(4) 0.3165(3)
H2UD H 0.4752 0.7250 0.3237
F1UD F 0.4687(9) 0.7751(9) 0.3964(6)
C4LE C 0.5162(3) 0.6472(3) 0.2067(3)
H1LE H 0.5274 0.6153 0.2140
C5LE C 0.5152(3) 0.6835(3) 0.2426(4)
H2LE H 0.5248 0.6763 0.2750
F1LE F 0.5313(9) 0.6036(6) 0.2249(9)
O1T O 0.45406(7) 0.95406(7) 0.45406(7)
O1V O 0.54594(7) 0.95406(7) 0.54594(7)
Tb1BA Tb 0.5000 1.0000 0.400032(14)
O3BA O 0.5000 1.0000 0.3063(7)
Tb1H Tb 0.900032(14) 0.5000 0.5000
Tb1I Tb 0.099968(14) 0.5000 0.5000
Tb1Y Tb 0.5000 0.599968(14) 0.0000
Tb1CA Tb 0.5000 1.0000 0.599968(14)
Tb1UB Tb 0.0000 0.599968(14) 0.5000
Tb1UB_2 Tb 1.0000 0.599968(14) 0.5000
Tb1BC Tb 0.400032(14) 1.0000 0.5000
Tb1CC Tb 0.599968(14) 1.0000 0.5000
O1A O 0.45406(7) 1.04594(7) 0.45406(7)
O1E O 0.45406(7) 0.45406(7) 0.04594(7)
O1G O 0.54594(7) 0.54594(7) 0.04594(7)
O1P O 0.54594(7) 0.45406(7) 0.04594(7)
O1R O 0.45406(7) 0.54594(7) 0.04594(7)
O1W O 0.54594(7) 1.04594(7) 0.45406(7)
O2G O 0.5000 0.42340(16) 0.13563(15)
O2P O 0.42340(16) 0.5000 0.13563(15)
O2R O 0.57660(16) 0.5000 0.13563(15)
O2T O 0.5000 0.86437(15) 0.57660(16)
O2DA O 0.5000 1.07660(16) 0.36437(15)
O2OA O 0.57660(16) 1.0000 0.36437(15)
O2QA O 0.42340(16) 1.0000 0.36437(15)
O4 O 0.6309(18) 0.217(3) 0.3691(18)
O5? O 0.6241(8) 0.1241(8) 0.3759(8)
O6? O 0.6279(15) 0.162(3) 0.3721(15)
loop_
_geom_bond_atom_site_label_1
_geom_bond_atom_site_label_2
_geom_bond_site_symmetry_1
_geom_bond_site_symmetry_2
Tb1 O1 1_555 1_555
O1 Tb1BA 1_555 1_555
O2 Tb1 1_555 1_555
C1 C2 1_555 1_555
C2 O2 1_555 1_555
C3 C5 1_555 1_555
O3 Tb1 1_555 1_555
C4 C1 1_555 1_555
H1 C4 1_555 1_555
C5 C4 1_555 1_555
H2 C5 1_555 1_555
F1 C4 1_555 1_555
O2M C2M 1_555 1_555
C1M C2M 1_555 1_555
C2M O2UB 1_555 1_555
C3M C3 1_555 1_555
C4M C1M 1_555 1_555
H1M C4M 1_555 1_555
C5M C3M 1_555 1_555
H2M C5M 1_555 1_555
F1M C4M 1_555 1_555
O2UB Tb1UB 1_555 1_555
C4UB C1M 1_555 1_555
H1UB C4UB 1_555 1_555
C5UB C3M 1_555 1_555
H2UB C5UB 1_555 1_555
F1UB C4UB 1_555 1_555
O2FC C2 1_555 1_555
C4FC C1 1_555 1_555
H1FC C4FC 1_555 1_555
C5FC C3 1_555 1_555
H2FC C5FC 1_555 1_555
F1FC C4FC 1_555 1_555
C4SC C1 1_555 1_555
H1SC C4SC 1_555 1_555
C5SC C3 1_555 1_555
H2SC C5SC 1_555 1_555
F1SC C4SC 1_555 1_555
C4DD C1M 1_555 1_555
H1DD C4DD 1_555 1_555
C5DD C3M 1_555 1_555
H2DD C5DD 1_555 1_555
F1DD C4DD 1_555 1_555
C4LF C1M 1_555 1_555
H1LF C4LF 1_555 1_555
C5LF C3M 1_555 1_555
H2LF C5LF 1_555 1_555
F1LF C4LF 1_555 1_555
C4YF C1 1_555 1_555
H1YF C4YF 1_555 1_555
C5YF C3 1_555 1_555
H2YF C5YF 1_555 1_555
F1YF C4YF 1_555 1_555
O1B Tb1 1_555 1_555
O2B Tb1 1_555 1_555
C1B C2B 1_555 1_555
C2B O2B 1_555 1_555
C3B C5B 1_555 1_555
C4B C1B 1_555 1_555
H1B C4B 1_555 1_555
C5B C4B 1_555 1_555
H2B C5B 1_555 1_555
F1B C4B 1_555 1_555
O2N C2N 1_555 1_555
C1N C2N 1_555 1_555
C2N O2WB 1_555 1_555
C3N C3B 1_555 1_555
C4N C1N 1_555 1_555
H1N C4N 1_555 1_555
C5N C3N 1_555 1_555
H2N C5N 1_555 1_555
F1N C4N 1_555 1_555
O2WB Tb1UB_2 1_555 1_555
C4WB C1N 1_555 1_555
H1WB C4WB 1_555 1_555
C5WB C3N 1_555 1_555
H2WB C5WB 1_555 1_555
F1WB C4WB 1_555 1_555
O2IC C2B 1_555 1_555
C4IC C1B 1_555 1_555
H1IC C4IC 1_555 1_555
C5IC C3B 1_555 1_555
H2IC C5IC 1_555 1_555
F1IC C4IC 1_555 1_555
C4UC C1B 1_555 1_555
H1UC C4UC 1_555 1_555
C5UC C3B 1_555 1_555
H2UC C5UC 1_555 1_555
F1UC C4UC 1_555 1_555
C4GD C1N 1_555 1_555
H1GD C4GD 1_555 1_555
C5GD C3N 1_555 1_555
H2GD C5GD 1_555 1_555
F1GD C4GD 1_555 1_555
C4NF C1N 1_555 1_555
H1NF C4NF 1_555 1_555
C5NF C3N 1_555 1_555
H2NF C5NF 1_555 1_555
F1NF C4NF 1_555 1_555
C4ZF C1B 1_555 1_555
H1ZF C4ZF 1_555 1_555
C5ZF C3B 1_555 1_555
H2ZF C5ZF 1_555 1_555
F1ZF C4ZF 1_555 1_555
Tb1E O2E 1_555 1_555
O2E C2E 1_555 1_555
C1E C2E 1_555 1_555
C2E O2UA 1_555 1_555
C3E C5E 1_555 1_555
O3E Tb1E 1_555 1_555
C4E C1E 1_555 1_555
H1E C4E 1_555 1_555
C5E C4E 1_555 1_555
H2E C5E 1_555 1_555
F1E C4E 1_555 1_555
O2V Tb1 1_555 1_555
C1V C2V 1_555 1_555
C2V O2V 1_555 1_555
C3V C3E 1_555 1_555
C4V C1V 1_555 1_555
H1V C4V 1_555 1_555
C5V C3V 1_555 1_555
H2V C5V 1_555 1_555
F1V C4V 1_555 1_555
O2BA C2V 1_555 1_555
C4BA C1V 1_555 1_555
H1BA C4BA 1_555 1_555
C5BA C3V 1_555 1_555
H2BA C5BA 1_555 1_555
F1BA C4BA 1_555 1_555
O2UA Tb1Y 1_555 1_555
C4UA C1E 1_555 1_555
H1UA C4UA 1_555 1_555
C5UA C3E 1_555 1_555
H2UA C5UA 1_555 1_555
F1UA C4UA 1_555 1_555
C4VC C1E 1_555 1_555
H1VC C4VC 1_555 1_555
C5VC C3E 1_555 1_555
H2VC C5VC 1_555 1_555
F1VC C4VC 1_555 1_555
C4OD C1V 1_555 1_555
H1OD C4OD 1_555 1_555
C5OD C3V 1_555 1_555
H2OD C5OD 1_555 1_555
F1OD C4OD 1_555 1_555
C4UD C1V 1_555 1_555
H1UD C4UD 1_555 1_555
C5UD C3V 1_555 1_555
H2UD C5UD 1_555 1_555
F1UD C4UD 1_555 1_555
C4LE C1E 1_555 1_555
H1LE C4LE 1_555 1_555
C5LE C3E 1_555 1_555
H2LE C5LE 1_555 1_555
F1LE C4LE 1_555 1_555
O1T Tb1 1_555 1_555
O1V Tb1 1_555 1_555
Tb1BA O2BA 1_555 1_555
O3BA Tb1BA 1_555 1_555
Tb1H O2N 1_555 1_555
Tb1I O2M 1_555 1_555
Tb1Y O1G 1_555 1_555
Tb1CA O1B 1_555 1_555
Tb1BC O2FC 1_555 1_555
Tb1CC O1 1_555 1_555
O1A Tb1BA 1_555 1_555
O1E Tb1E 1_555 1_555
O1G Tb1E 1_555 1_555
O1P Tb1E 1_555 1_555
O1R Tb1E 1_555 1_555
O1W Tb1BA 1_555 1_555
O2G Tb1E 1_555 1_555
O2P Tb1E 1_555 1_555
O2R Tb1E 1_555 1_555
O2T Tb1 1_555 1_555
O2DA Tb1BA 1_555 1_555
O2OA Tb1BA 1_555 1_555
O2QA Tb1BA 1_555 1_555
C4 C4SC 1_555 1_555
C4 C5SC 1_555 1_555
C5 C4SC 1_555 1_555
C5 C5SC 1_555 1_555
C4M C5M 1_555 1_555
C4M C4DD 1_555 1_555
C4M C5DD 1_555 1_555
C5M C4DD 1_555 1_555
C5M C5DD 1_555 1_555
C4UB C5UB 1_555 1_555
C4UB C4LF 1_555 1_555
C4UB C5LF 1_555 1_555
C5UB C4LF 1_555 1_555
C5UB C5LF 1_555 1_555
C4FC C5FC 1_555 1_555
C4FC C4YF 1_555 1_555
C4FC C5YF 1_555 1_555
C5FC C4YF 1_555 1_555
C5FC C5YF 1_555 1_555
C4SC C5SC 1_555 1_555
C4DD C5DD 1_555 1_555
C4LF C5LF 1_555 1_555
C4YF C5YF 1_555 1_555
O1B Tb1BC 1_555 1_555
C4B C4UC 1_555 1_555
C4B C5UC 1_555 1_555
C5B C4UC 1_555 1_555
C5B C5UC 1_555 1_555
C4N C5N 1_555 1_555
C4N C4GD 1_555 1_555
C4N C5GD 1_555 1_555
C5N C4GD 1_555 1_555
C5N C5GD 1_555 1_555
C4WB C5WB 1_555 1_555
C4WB C4NF 1_555 1_555
C4WB C5NF 1_555 1_555
C5WB C4NF 1_555 1_555
C5WB C5NF 1_555 1_555
O2IC Tb1CC 1_555 1_555
C4IC C5IC 1_555 1_555
C4IC C4ZF 1_555 1_555
C4IC C5ZF 1_555 1_555
C5IC C4ZF 1_555 1_555
C5IC C5ZF 1_555 1_555
C4UC C5UC 1_555 1_555
C4GD C5GD 1_555 1_555
C4NF C5NF 1_555 1_555
C4ZF C5ZF 1_555 1_555
C4E C4VC 1_555 1_555
C4E C5VC 1_555 1_555
C5E C4VC 1_555 1_555
C5E C5VC 1_555 1_555
C4V C5V 1_555 1_555
C4V C4OD 1_555 1_555
C4V C5OD 1_555 1_555
C5V C4OD 1_555 1_555
C5V C5OD 1_555 1_555
C4BA C5BA 1_555 1_555
C4BA C4UD 1_555 1_555
C4BA C5UD 1_555 1_555
C5BA C4UD 1_555 1_555
C5BA C5UD 1_555 1_555
C4UA C5UA 1_555 1_555
C4UA C4LE 1_555 1_555
C4UA C5LE 1_555 1_555
C5UA C4LE 1_555 1_555
C5UA C5LE 1_555 1_555
C4VC C5VC 1_555 1_555
C4OD C5OD 1_555 1_555
C4UD C5UD 1_555 1_555
C4LE C5LE 1_555 1_555
O1T Tb1BA 1_555 1_555
O1T Tb1BC 1_555 1_555
O1V Tb1CA 1_555 1_555
O1V Tb1CC 1_555 1_555
Tb1Y O1R 1_555 1_555
Tb1BC O1A 1_555 1_555
Tb1CC O1W 1_555 1_555

#END
