
#######################################################################
#
#                 Cambridge Crystallographic Data Centre
#                                CCDC 
#
#######################################################################
#
# If this CIF has been generated from an entry in the Cambridge 
# Structural Database, then it will include bibliographic, chemical, 
# crystal, experimental, refinement or atomic coordinate data resulting 
# from the CCDC's data processing and validation procedures.
#
#######################################################################

data_WAGQAY
_chemical_formula_moiety         '(C66 H66 N4 Ni5 O22)n'
_chemical_name_systematic        
catena-(bis((\m~8~-Benzene-1,3,5-tris(phenyl-4-carboxylato))-(\m~3~-oxo))-tetrakis(dimethylformamide)-tetra-aqua-penta-nickel)
_symmetry_cell_setting           rhombohedral
_symmetry_space_group_name_H-M   'R -3'
_symmetry_Int_Tables_number      148
_space_group_name_Hall           '-R 3'
loop_
_symmetry_equiv_pos_site_id
_symmetry_equiv_pos_as_xyz
1 x,y,z
2 -y,x-y,z
3 -x+y,-x,z
4 2/3+x,1/3+y,1/3+z
5 2/3-y,1/3+x-y,1/3+z
6 2/3-x+y,1/3-x,1/3+z
7 1/3+x,2/3+y,2/3+z
8 1/3-y,2/3+x-y,2/3+z
9 1/3-x+y,2/3-x,2/3+z
10 -x,-y,-z
11 y,-x+y,-z
12 x-y,x,-z
13 1/3-x,2/3-y,2/3-z
14 1/3+y,2/3-x+y,2/3-z
15 1/3+x-y,2/3+x,2/3-z
16 2/3-x,1/3-y,1/3-z
17 2/3+y,1/3-x+y,1/3-z
18 2/3+x-y,1/3+x,1/3-z
_cell_length_a                   35.411(5)
_cell_length_b                   35.411(5)
_cell_length_c                   45.691(9)
_cell_angle_alpha                90
_cell_angle_beta                 90
_cell_angle_gamma                120
_cell_volume                     49617.8
_exptl_crystal_colour            green
_cell_formula_units_Z            9
_chemical_properties_physical    'air- and moisture-sensitive'
loop_
_atom_site_label
_atom_site_type_symbol
_atom_site_fract_x
_atom_site_fract_y
_atom_site_fract_z
Ni1 Ni 0.5000 0.0000 0.0000
Ni2 Ni 0.560849(18) 0.02016(2) 0.051109(14)
Ni3 Ni 0.45932(2) 0.02018(2) 0.051103(14)
O1 O 0.51875(9) 0.03761(9) 0.03592(7)
C1 C 0.2107(2) -0.21110(17) 0.11797(13)
C2 C 0.1806(2) -0.24784(17) 0.10264(14)
H1 H 0.1554 -0.2684 0.1122
C3 C 0.1864(2) -0.25507(18) 0.07392(14)
C4 C 0.2238(2) -0.22401(18) 0.05905(15)
H2 H 0.2278 -0.2281 0.0394
C5 C 0.2551(2) -0.18671(17) 0.07393(14)
C6 C 0.2480(2) -0.18063(17) 0.10261(14)
H3 H 0.2685 -0.1555 0.1122
C7 C 0.2025(2) -0.20248(17) 0.14793(14)
C8 C 0.1602(8) -0.2198(5) 0.1589(3)
H4 H 0.1370 -0.2369 0.1466
C9 C 0.1510(7) -0.2129(4) 0.1869(4)
H5 H 0.1224 -0.2253 0.1933
C10 C 0.2124(7) -0.1511(6) 0.1869(3)
H6 H 0.2241 -0.1224 0.1932
C11 C 0.2202(8) -0.1601(6) 0.1590(4)
H7 H 0.2382 -0.1369 0.1469
C12 C 0.18633(18) -0.18614(16) 0.20593(13)
C13 C 0.2939(2) -0.15291(17) 0.05727(14)
C14 C 0.2906(3) -0.14516(18) 0.02863(15)
H8 H 0.2640 -0.1616 0.0192
C15 C 0.3261(2) -0.11342(17) 0.01266(15)
H9 H 0.3229 -0.1079 -0.0068
C16 C 0.36645(19) -0.09020(15) 0.02677(13)
C17 C 0.3702(2) -0.09799(16) 0.05545(14)
H10 H 0.3970 -0.0822 0.0648
C18 C 0.3339(2) -0.12978(17) 0.07128(14)
H11 H 0.3368 -0.1352 0.0908
C19 C 0.1532(2) -0.29385(18) 0.05739(14)
C20 C 0.1452(3) -0.2905(2) 0.02861(15)
H12 H 0.1613 -0.2639 0.0192
C21 C 0.1131(2) -0.3263(2) 0.01266(14)
H13 H 0.1075 -0.3231 -0.0068
C22 C 0.09004(19) -0.36653(16) 0.02671(13)
C23 C 0.0979(2) -0.37025(18) 0.05550(14)
H14 H 0.0821 -0.3971 0.0648
C24 C 0.1296(2) -0.33378(18) 0.07127(14)
H15 H 0.1346 -0.3367 0.0909
C25 C 0.40425(14) -0.05670(16) 0.00894(12)
O2 O 0.39774(10) -0.05341(13) -0.01703(10)
O3 O 0.44099(9) -0.03484(10) 0.02241(8)
C26 C 0.05676(16) -0.40433(16) 0.00889(12)
O4 O 0.05344(14) -0.39781(13) -0.01710(10)
O5 O 0.03479(10) -0.44100(10) 0.02245(8)
C27 C 0.17661(15) -0.17657(15) 0.23585(12)
O6 O 0.20468(12) -0.14118(13) 0.24717(9)
O7 O 0.14118(11) -0.20460(13) 0.24701(9)
O8 O 0.59541(17) 0.07549(18) 0.07680(15)
O9 O 0.60442(13) 0.00003(17) 0.06233(12)
C28 C 0.6102(4) -0.0054(4) 0.0885(3)
N1 N 0.6318(4) -0.0258(5) 0.0966(3)
C29 C 0.6488(5) -0.0440(8) 0.0763(6)
H16 H 0.6633 -0.0567 0.0867
H17 H 0.6692 -0.0215 0.0635
H18 H 0.6254 -0.0661 0.0649
C30 C 0.6330(8) -0.0352(9) 0.1291(5)
H19 H 0.6499 -0.0492 0.1319
H20 H 0.6038 -0.0539 0.1360
H21 H 0.6459 -0.0082 0.1399
O10 O 0.39563(14) -0.00003(17) 0.06245(12)
C31 C 0.3844(3) -0.0057(4) 0.0881(3)
N2 N 0.3425(4) -0.0259(5) 0.0972(3)
C32 C 0.3065(5) -0.0453(8) 0.0771(7)
H22 H 0.2796 -0.0577 0.0878
H23 H 0.3077 -0.0679 0.0662
H24 H 0.3081 -0.0235 0.0639
C33 C 0.3315(8) -0.0340(10) 0.1291(6)
H25 H 0.3005 -0.0474 0.1316
H26 H 0.3457 -0.0067 0.1395
H27 H 0.3414 -0.0529 0.1366
O11 O 0.4799(2) 0.07532(17) 0.07676(14)
Ni1A Ni 0.0000 -0.5000 0.0000
Ni1A_2 Ni 1.0000 0.5000 0.0000
Ni2I Ni 0.439151(18) -0.02016(2) -0.051109(14)
Ni2A Ni -0.02016(2) -0.459311(27) 0.051109(14)
Ni2Q Ni 0.207356(27) -0.105818(18) 0.282224(14)
Ni2J Ni 1.02016(2) 0.459311(27) -0.051109(14)
Ni2H Ni 0.792644(27) 0.105818(18) -0.282224(14)
Ni3I Ni 0.54068(2) -0.02018(2) -0.051103(14)
Ni3J Ni 0.02018(2) -0.43914(3) -0.051103(14)
Ni3Q Ni 0.10581(3) -0.20735(2) 0.282230(14)
Ni3A Ni 0.97982(2) 0.43914(3) 0.051103(14)
Ni3H Ni 0.89419(3) 0.20735(2) -0.282230(14)
O1I O 0.48125(9) -0.03761(9) -0.03592(7)
C1I C 0.7893(2) 0.21110(17) -0.11797(13)
C2I C 0.8194(2) 0.24784(17) -0.10264(14)
H1I H 0.8446 0.2684 -0.1122
C3I C 0.8136(2) 0.25507(18) -0.07392(14)
C4I C 0.7762(2) 0.22401(18) -0.05905(15)
H2I H 0.7722 0.2281 -0.0394
C5I C 0.7449(2) 0.18671(17) -0.07393(14)
C6I C 0.7520(2) 0.18063(17) -0.10261(14)
H3I H 0.7315 0.1555 -0.1122
C7I C 0.7975(2) 0.20248(17) -0.14793(14)
C8I C 0.8398(8) 0.2198(5) -0.1589(3)
H4I H 0.8630 0.2369 -0.1466
C9I C 0.8490(7) 0.2129(4) -0.1869(4)
H5I H 0.8776 0.2253 -0.1933
C10I C 0.7876(7) 0.1511(6) -0.1869(3)
H6I H 0.7759 0.1224 -0.1932
C11I C 0.7798(8) 0.1601(6) -0.1590(4)
H7I H 0.7618 0.1369 -0.1469
C12I C 0.81367(18) 0.18614(16) -0.20593(13)
C13I C 0.7061(2) 0.15291(17) -0.05727(14)
C14I C 0.7094(3) 0.14516(18) -0.02863(15)
H8I H 0.7360 0.1616 -0.0192
C15I C 0.6739(2) 0.11342(17) -0.01266(15)
H9I H 0.6771 0.1079 0.0068
C16I C 0.63355(19) 0.09020(15) -0.02677(13)
C17I C 0.6298(2) 0.09799(16) -0.05545(14)
H10I H 0.6030 0.0822 -0.0648
C18I C 0.6661(2) 0.12978(17) -0.07128(14)
H11I H 0.6632 0.1352 -0.0908
C19I C 0.8468(2) 0.29385(18) -0.05739(14)
C20I C 0.8548(3) 0.2905(2) -0.02861(15)
H12I H 0.8387 0.2639 -0.0192
C21I C 0.8869(2) 0.3263(2) -0.01266(14)
H13I H 0.8925 0.3231 0.0068
C22I C 0.90996(19) 0.36653(16) -0.02671(13)
C23I C 0.9021(2) 0.37025(18) -0.05550(14)
H14I H 0.9179 0.3971 -0.0648
C24I C 0.8704(2) 0.33378(18) -0.07127(14)
H15I H 0.8654 0.3367 -0.0909
C25I C 0.59575(14) 0.05670(16) -0.00894(12)
O2I O 0.60226(10) 0.05341(13) 0.01703(10)
O3I O 0.55901(9) 0.03484(10) -0.02241(8)
C26I C 0.94324(16) 0.40433(16) -0.00889(12)
O4I O 0.94656(14) 0.39781(13) 0.01710(10)
O4K O 0.45125(19) 0.05344(14) 0.01710(10)
O4B O 0.54875(19) -0.05344(14) -0.01710(10)
O5I O 0.96521(10) 0.44100(10) -0.02245(8)
O5B O 0.52421(14) -0.03479(10) 0.02245(8)
O5K O 0.47579(14) 0.03479(10) -0.02245(8)
C27I C 0.82339(15) 0.17657(15) -0.23585(12)
O6I O 0.79532(12) 0.14118(13) -0.24717(9)
O6P O 0.52549(13) -0.01253(18) 0.08616(9)
O6G O 0.47451(13) 0.01253(18) -0.08616(9)
O7I O 0.85882(11) 0.20460(13) -0.24701(9)
O7P O 0.46207(13) -0.01245(17) 0.08632(9)
O7G O 0.53793(13) 0.01245(17) -0.08632(9)
O8I O 0.40459(17) -0.07549(18) -0.07680(15)
O9I O 0.39558(13) -0.00003(17) -0.06233(12)
C28I C 0.3898(4) 0.0054(4) -0.0885(3)
N1I N 0.3682(4) 0.0258(5) -0.0966(3)
C29I C 0.3512(5) 0.0440(8) -0.0763(6)
H16I H 0.3367 0.0567 -0.0867
H17I H 0.3308 0.0215 -0.0635
H18I H 0.3746 0.0661 -0.0649
C30I C 0.3670(8) 0.0352(9) -0.1291(5)
H19I H 0.3501 0.0492 -0.1319
H20I H 0.3962 0.0539 -0.1360
H21I H 0.3541 0.0082 -0.1399
O10I O 0.60437(14) 0.00003(17) -0.06245(12)
C31I C 0.6156(3) 0.0057(4) -0.0881(3)
N2I N 0.6575(4) 0.0259(5) -0.0972(3)
C32I C 0.6935(5) 0.0453(8) -0.0771(7)
H22I H 0.7204 0.0577 -0.0878
H23I H 0.6923 0.0679 -0.0662
H24I H 0.6919 0.0235 -0.0639
C33I C 0.6685(8) 0.0340(10) -0.1291(6)
H25I H 0.6995 0.0474 -0.1316
H26I H 0.6543 0.0067 -0.1395
H27I H 0.6586 0.0529 -0.1366
O11I O 0.5201(2) -0.07532(17) -0.07676(14)
C34? C 0.6038(6) -0.2269(3) 0.1956(3)
C35? C 0.5854(6) -0.2355(4) 0.1678(3)
C36? C 0.5862(6) -0.1782(5) 0.1676(3)
C37? C 0.6039(6) -0.1690(5) 0.1951(3)
H28? H 0.5993 -0.2501 0.2075
H29? H 0.5662 -0.2642 0.1625
H30? H 0.5679 -0.1678 0.1619
H31? H 0.5994 -0.1502 0.2069
loop_
_geom_bond_atom_site_label_1
_geom_bond_atom_site_label_2
_geom_bond_site_symmetry_1
_geom_bond_site_symmetry_2
Ni1 O1 1_555 1_555
Ni2 O1 1_555 1_555
Ni3 O1 1_555 1_555
C1 C2 1_555 1_555
C2 H1 1_555 1_555
C3 C2 1_555 1_555
C4 C3 1_555 1_555
H2 C4 1_555 1_555
C5 C4 1_555 1_555
C6 C1 1_555 1_555
H3 C6 1_555 1_555
C7 C1 1_555 1_555
C8 C7 1_555 1_555
H4 C8 1_555 1_555
C9 C8 1_555 1_555
H5 C9 1_555 1_555
C10 H6 1_555 1_555
C11 C7 1_555 1_555
H7 C11 1_555 1_555
C12 C9 1_555 1_555
C13 C5 1_555 1_555
C14 C13 1_555 1_555
H8 C14 1_555 1_555
C15 C14 1_555 1_555
H9 C15 1_555 1_555
C16 C15 1_555 1_555
C17 C16 1_555 1_555
H10 C17 1_555 1_555
C18 C13 1_555 1_555
H11 C18 1_555 1_555
C19 C3 1_555 1_555
C20 C19 1_555 1_555
H12 C20 1_555 1_555
C21 C20 1_555 1_555
H13 C21 1_555 1_555
C22 C21 1_555 1_555
C23 C22 1_555 1_555
H14 C23 1_555 1_555
C24 C19 1_555 1_555
H15 C24 1_555 1_555
C25 C16 1_555 1_555
O2 C25 1_555 1_555
O3 Ni1 1_555 1_555
C26 C22 1_555 1_555
O4 C26 1_555 1_555
O5 C26 1_555 1_555
C27 C12 1_555 1_555
O6 C27 1_555 1_555
O7 C27 1_555 1_555
O8 Ni2 1_555 1_555
O9 Ni2 1_555 1_555
C28 O9 1_555 1_555
N1 C28 1_555 1_555
C29 N1 1_555 1_555
H16 C29 1_555 1_555
H17 C29 1_555 1_555
H18 C29 1_555 1_555
C30 N1 1_555 1_555
H19 C30 1_555 1_555
H20 C30 1_555 1_555
H21 C30 1_555 1_555
O10 Ni3 1_555 1_555
C31 O10 1_555 1_555
N2 C31 1_555 1_555
C32 N2 1_555 1_555
H22 C32 1_555 1_555
H23 C32 1_555 1_555
H24 C32 1_555 1_555
C33 N2 1_555 1_555
H25 C33 1_555 1_555
H26 C33 1_555 1_555
H27 C33 1_555 1_555
O11 Ni3 1_555 1_555
Ni1A O5 1_555 1_555
Ni1A_2 O5I 1_555 1_555
Ni2I O2 1_555 1_555
Ni2A O5 1_555 1_555
Ni2Q O6 1_555 1_555
Ni2J O5I 1_555 1_555
Ni2H O6I 1_555 1_555
Ni3I O1I 1_555 1_555
Ni3J O4 1_555 1_555
Ni3Q O7 1_555 1_555
Ni3A O4I 1_555 1_555
Ni3H O7I 1_555 1_555
O1I Ni1 1_555 1_555
C1I C2I 1_555 1_555
C2I H1I 1_555 1_555
C3I C2I 1_555 1_555
C4I C3I 1_555 1_555
H2I C4I 1_555 1_555
C5I C4I 1_555 1_555
C6I C1I 1_555 1_555
H3I C6I 1_555 1_555
C7I C1I 1_555 1_555
C8I C7I 1_555 1_555
H4I C8I 1_555 1_555
C9I C8I 1_555 1_555
H5I C9I 1_555 1_555
C10I H6I 1_555 1_555
C11I C7I 1_555 1_555
H7I C11I 1_555 1_555
C12I C9I 1_555 1_555
C13I C5I 1_555 1_555
C14I C13I 1_555 1_555
H8I C14I 1_555 1_555
C15I C14I 1_555 1_555
H9I C15I 1_555 1_555
C16I C15I 1_555 1_555
C17I C16I 1_555 1_555
H10I C17I 1_555 1_555
C18I C13I 1_555 1_555
H11I C18I 1_555 1_555
C19I C3I 1_555 1_555
C20I C19I 1_555 1_555
H12I C20I 1_555 1_555
C21I C20I 1_555 1_555
H13I C21I 1_555 1_555
C22I C21I 1_555 1_555
C23I C22I 1_555 1_555
H14I C23I 1_555 1_555
C24I C19I 1_555 1_555
H15I C24I 1_555 1_555
C25I C16I 1_555 1_555
O2I Ni2 1_555 1_555
O3I Ni1 1_555 1_555
C26I C22I 1_555 1_555
O4I C26I 1_555 1_555
O4K Ni3 1_555 1_555
O4B Ni3I 1_555 1_555
O5I C26I 1_555 1_555
O5B Ni1 1_555 1_555
O5K Ni1 1_555 1_555
C27I C12I 1_555 1_555
O6I C27I 1_555 1_555
O6P Ni2 1_555 1_555
O6G Ni2I 1_555 1_555
O7I C27I 1_555 1_555
O7P Ni3 1_555 1_555
O7G Ni3I 1_555 1_555
O8I Ni2I 1_555 1_555
O9I Ni2I 1_555 1_555
C28I O9I 1_555 1_555
N1I C28I 1_555 1_555
C29I N1I 1_555 1_555
H16I C29I 1_555 1_555
H17I C29I 1_555 1_555
H18I C29I 1_555 1_555
C30I N1I 1_555 1_555
H19I C30I 1_555 1_555
H20I C30I 1_555 1_555
H21I C30I 1_555 1_555
O10I Ni3I 1_555 1_555
C31I O10I 1_555 1_555
N2I C31I 1_555 1_555
C32I N2I 1_555 1_555
H22I C32I 1_555 1_555
H23I C32I 1_555 1_555
H24I C32I 1_555 1_555
C33I N2I 1_555 1_555
H25I C33I 1_555 1_555
H26I C33I 1_555 1_555
H27I C33I 1_555 1_555
O11I Ni3I 1_555 1_555
Ni2 O5B 1_555 1_555
Ni3 O3 1_555 1_555
C5 C6 1_555 1_555
C10 C11 1_555 1_555
C10 C12 1_555 1_555
C17 C18 1_555 1_555
C23 C24 1_555 1_555
C25 O3 1_555 1_555
Ni2I O1I 1_555 1_555
Ni2I O5K 1_555 1_555
Ni3I O3I 1_555 1_555
C5I C6I 1_555 1_555
C10I C11I 1_555 1_555
C10I C12I 1_555 1_555
C17I C18I 1_555 1_555
C23I C24I 1_555 1_555
C25I O2I 1_555 1_555
C25I O3I 1_555 1_555

#END
