
#######################################################################
#
#                 Cambridge Crystallographic Data Centre
#                                CCDC 
#
#######################################################################
#
# If this CIF has been generated from an entry in the Cambridge 
# Structural Database, then it will include bibliographic, chemical, 
# crystal, experimental, refinement or atomic coordinate data resulting 
# from the CCDC's data processing and validation procedures.
#
#######################################################################

data_RALZAH
_chemical_formula_moiety         '(C44 H25 N4 O13 S4 Sm1 V1)n'
_chemical_name_systematic        
'catena-((\m~9~-Hydrogen 5,10,15,20-tetrakis(4-sulfonatophenyl)porphyrinato)-oxo-samarium-vanadium)'
_symmetry_cell_setting           tetragonal
_symmetry_space_group_name_H-M   'P 4/m c c'
_symmetry_Int_Tables_number      124
_space_group_name_Hall           '-P 4 2c'
loop_
_symmetry_equiv_pos_site_id
_symmetry_equiv_pos_as_xyz
1 x,y,z
2 -x,-y,z
3 -y,x,z
4 y,-x,z
5 -x,y,1/2-z
6 x,-y,1/2-z
7 y,x,1/2-z
8 -y,-x,1/2-z
9 -x,-y,-z
10 x,y,-z
11 y,-x,-z
12 -y,x,-z
13 x,-y,1/2+z
14 -x,y,1/2+z
15 -y,-x,1/2+z
16 y,x,1/2+z
_cell_length_a                   15.368(3)
_cell_length_b                   15.368(3)
_cell_length_c                   9.914(3)
_cell_angle_alpha                90
_cell_angle_beta                 90
_cell_angle_gamma                90
_cell_volume                     2341.44
_exptl_crystal_colour            red
_exptl_crystal_description       block
_cell_formula_units_Z            2
loop_
_atom_site_label
_atom_site_type_symbol
_atom_site_fract_x
_atom_site_fract_y
_atom_site_fract_z
Sm1 Sm -0.5000 -0.5000 -0.7500
V1 V 0.0000 0.0000 -0.89758(18)
S1 S -0.31842(6) -0.52680(5) -1.0000
N1 N -0.1304(3) -0.0324(3) -1.0000
O1 O -0.37246(14) -0.53096(13) -0.8806(3)
O2 O -0.25117(16) -0.59034(16) -1.0000
O3 O 0.0000 0.0000 -0.7500
C1 C -0.2656(2) -0.4254(2) -1.0000
C2 C -0.2425(2) -0.3869(2) -1.1186(4)
H1 H -0.2608 -0.4117 -1.1994
C3 C -0.1923(3) -0.3117(3) -1.1221(5)
H2 H -0.1743 -0.2874 -1.2034
C4 C -0.1702(3) -0.2745(3) -1.0000
C5 C -0.1180(4) -0.1929(3) -1.0000
C6 C -0.1651(3) -0.1120(3) -1.0000
C7 C -0.2557(3) -0.1057(4) -1.0000
H3 H -0.2942 -0.1524 -1.0000
C8 C -0.2783(4) -0.0207(4) -1.0000
H4 H -0.3345 0.0018 -1.0000
C9 C -0.0287(4) -0.1972(4) -1.0000
Sm1H Sm -0.5000 -0.5000 -1.2500
Sm1_2 Sm -0.5000 0.5000 -0.7500
Sm1H_2 Sm -0.5000 0.5000 -1.2500
Sm1_3 Sm 0.5000 0.5000 -0.7500
Sm1H_3 Sm 0.5000 0.5000 -1.2500
Sm1_4 Sm 0.5000 -0.5000 -0.7500
Sm1H_4 Sm 0.5000 -0.5000 -1.2500
V1H V 0.0000 0.0000 -1.10242(18)
V1D V 0.0000 0.0000 -0.60242(18)
S1C S -0.52680(5) 0.31842(6) -1.0000
S1A S 0.31842(6) 0.52680(5) -1.0000
S1B S 0.52680(5) -0.31842(6) -1.0000
N1C N -0.0324(3) 0.1304(3) -1.0000
N1A N 0.1304(3) 0.0324(3) -1.0000
N1B N 0.0324(3) -0.1304(3) -1.0000
O1I O -0.37246(14) -0.53096(13) -1.1194(3)
O1C O -0.53096(13) 0.37246(14) -0.8806(3)
O1J O -0.53096(13) 0.37246(14) -1.1194(3)
O1A O 0.37246(14) 0.53096(13) -0.8806(3)
O1H O 0.37246(14) 0.53096(13) -1.1194(3)
O1B O 0.53096(13) -0.37246(14) -0.8806(3)
O1K O 0.53096(13) -0.37246(14) -1.1194(3)
O1A_2 O -0.62754(14) -0.46904(13) -0.8806(3)
O1B_2 O -0.46904(13) -0.37246(14) -0.8806(3)
O1C_2 O -0.53096(13) -0.62754(14) -0.8806(3)
O1D O -0.62754(14) -0.53096(13) -0.6194(3)
O1E O -0.37246(14) -0.46904(13) -0.6194(3)
O1F O -0.53096(13) -0.37246(14) -0.6194(3)
O1G O -0.46904(13) -0.62754(14) -0.6194(3)
O2C O -0.59034(16) 0.25117(16) -1.0000
O2A O 0.25117(16) 0.59034(16) -1.0000
O2B O 0.59034(16) -0.25117(16) -1.0000
O3H O 0.0000 0.0000 -1.2500
C1C C -0.4254(2) 0.2656(2) -1.0000
C1A C 0.2656(2) 0.4254(2) -1.0000
C1B C 0.4254(2) -0.2656(2) -1.0000
C2I C -0.2425(2) -0.3869(2) -0.8814(4)
C2C C -0.3869(2) 0.2425(2) -1.1186(4)
C2J C -0.3869(2) 0.2425(2) -0.8814(4)
C2A C 0.2425(2) 0.3869(2) -1.1186(4)
C2H C 0.2425(2) 0.3869(2) -0.8814(4)
C2B C 0.3869(2) -0.2425(2) -1.1186(4)
C2K C 0.3869(2) -0.2425(2) -0.8814(4)
H1I H -0.2608 -0.4117 -0.8006
H1J H -0.4117 0.2608 -0.8006
H1C H -0.4117 0.2608 -1.1994
H1H H 0.2608 0.4117 -0.8006
H1A H 0.2608 0.4117 -1.1994
H1K H 0.4117 -0.2608 -0.8006
H1B H 0.4117 -0.2608 -1.1994
C3I C -0.1923(3) -0.3117(3) -0.8779(5)
C3C C -0.3117(3) 0.1923(3) -1.1221(5)
C3J C -0.3117(3) 0.1923(3) -0.8779(5)
C3A C 0.1923(3) 0.3117(3) -1.1221(5)
C3H C 0.1923(3) 0.3117(3) -0.8779(5)
C3B C 0.3117(3) -0.1923(3) -1.1221(5)
C3K C 0.3117(3) -0.1923(3) -0.8779(5)
H2I H -0.1743 -0.2874 -0.7966
H2J H -0.2874 0.1743 -0.7966
H2C H -0.2874 0.1743 -1.2034
H2H H 0.1743 0.2874 -0.7966
H2A H 0.1743 0.2874 -1.2034
H2K H 0.2874 -0.1743 -0.7966
H2B H 0.2874 -0.1743 -1.2034
C4C C -0.2745(3) 0.1702(3) -1.0000
C4A C 0.1702(3) 0.2745(3) -1.0000
C4B C 0.2745(3) -0.1702(3) -1.0000
C5C C -0.1929(3) 0.1180(4) -1.0000
C5A C 0.1180(4) 0.1929(3) -1.0000
C5B C 0.1929(3) -0.1180(4) -1.0000
C6C C -0.1120(3) 0.1651(3) -1.0000
C6A C 0.1651(3) 0.1120(3) -1.0000
C6B C 0.1120(3) -0.1651(3) -1.0000
C7B C 0.1057(4) -0.2557(3) -1.0000
C7A C 0.2557(3) 0.1057(4) -1.0000
C7C C -0.1057(4) 0.2557(3) -1.0000
H3B H 0.1524 -0.2942 -1.0000
H3A H 0.2942 0.1524 -1.0000
H3C H -0.1524 0.2942 -1.0000
C8B C 0.0207(4) -0.2783(4) -1.0000
C8A C 0.2783(4) 0.0207(4) -1.0000
C8C C -0.0207(4) 0.2783(4) -1.0000
H4B H -0.0018 -0.3345 -1.0000
H4A H 0.3345 -0.0018 -1.0000
H4C H 0.0018 0.3345 -1.0000
C9C C -0.1972(4) 0.0287(4) -1.0000
C9A C 0.0287(4) 0.1972(4) -1.0000
C9B C 0.1972(4) -0.0287(4) -1.0000
loop_
_geom_bond_atom_site_label_1
_geom_bond_atom_site_label_2
_geom_bond_site_symmetry_1
_geom_bond_site_symmetry_2
Sm1 O1 1_555 1_555
V1 N1 1_555 1_555
S1 O1 1_555 1_555
N1 C6 1_555 1_555
O2 S1 1_555 1_555
O3 V1 1_555 1_555
C1 S1 1_555 1_555
C2 C1 1_555 1_555
H1 C2 1_555 1_555
C3 C2 1_555 1_555
H2 C3 1_555 1_555
C4 C3 1_555 1_555
C5 C4 1_555 1_555
C6 C5 1_555 1_555
C7 C6 1_555 1_555
H3 C7 1_555 1_555
C8 C7 1_555 1_555
H4 C8 1_555 1_555
C9 C5 1_555 1_555
Sm1H O1I 1_555 1_555
Sm1_2 O1C 1_555 1_555
Sm1H_2 O1J 1_555 1_555
Sm1_3 O1A 1_555 1_555
Sm1H_3 O1H 1_555 1_555
Sm1_4 O1B 1_555 1_555
Sm1H_4 O1K 1_555 1_555
V1H V1 1_555 1_555
V1D O3 1_555 1_555
S1C O1C 1_555 1_555
S1A O1A 1_555 1_555
S1B O1B 1_555 1_555
N1C V1 1_555 1_555
N1A V1 1_555 1_555
N1B V1 1_555 1_555
O1I S1 1_555 1_555
O1J S1C 1_555 1_555
O1H S1A 1_555 1_555
O1K S1B 1_555 1_555
O1A_2 Sm1 1_555 1_555
O1B_2 Sm1 1_555 1_555
O1C_2 Sm1 1_555 1_555
O1D Sm1 1_555 1_555
O1E Sm1 1_555 1_555
O1F Sm1 1_555 1_555
O1G Sm1 1_555 1_555
O2C S1C 1_555 1_555
O2A S1A 1_555 1_555
O2B S1B 1_555 1_555
O3H V1H 1_555 1_555
C1C S1C 1_555 1_555
C1A S1A 1_555 1_555
C1B S1B 1_555 1_555
C2I C1 1_555 1_555
C2C C1C 1_555 1_555
C2J C1C 1_555 1_555
C2A C1A 1_555 1_555
C2H C1A 1_555 1_555
C2B C1B 1_555 1_555
C2K C1B 1_555 1_555
H1I C2I 1_555 1_555
H1J C2J 1_555 1_555
H1C C2C 1_555 1_555
H1H C2H 1_555 1_555
H1A C2A 1_555 1_555
H1K C2K 1_555 1_555
H1B C2B 1_555 1_555
C3I C4 1_555 1_555
C3C C2C 1_555 1_555
C3J C2J 1_555 1_555
C3A C2A 1_555 1_555
C3H C2H 1_555 1_555
C3B C2B 1_555 1_555
C3K C2K 1_555 1_555
H2I C3I 1_555 1_555
H2J C3J 1_555 1_555
H2C C3C 1_555 1_555
H2H C3H 1_555 1_555
H2A C3A 1_555 1_555
H2K C3K 1_555 1_555
H2B C3B 1_555 1_555
C4C C3C 1_555 1_555
C4A C3A 1_555 1_555
C4B C3B 1_555 1_555
C5C C4C 1_555 1_555
C5A C4A 1_555 1_555
C5B C4B 1_555 1_555
C6C N1C 1_555 1_555
C6A N1A 1_555 1_555
C6B N1B 1_555 1_555
C7B C6B 1_555 1_555
C7A C6A 1_555 1_555
C7C C6C 1_555 1_555
H3B C7B 1_555 1_555
H3A C7A 1_555 1_555
H3C C7C 1_555 1_555
C8B C9 1_555 1_555
C8A C7A 1_555 1_555
C8C C7C 1_555 1_555
H4B C8B 1_555 1_555
H4A C8A 1_555 1_555
H4C C8C 1_555 1_555
C9C N1 1_555 1_555
C9A N1C 1_555 1_555
C9B N1A 1_555 1_555
N1 V1H 1_555 1_555
C8 C9C 1_555 1_555
C9 N1B 1_555 1_555
V1H N1C 1_555 1_555
V1H N1A 1_555 1_555
V1H N1B 1_555 1_555
C2I C3I 1_555 1_555
C3J C4C 1_555 1_555
C3H C4A 1_555 1_555
C3K C4B 1_555 1_555
C5C C6C 1_555 1_555
C5C C9C 1_555 1_555
C5A C6A 1_555 1_555
C5A C9A 1_555 1_555
C5B C6B 1_555 1_555
C5B C9B 1_555 1_555
C7B C8B 1_555 1_555
C8A C9B 1_555 1_555
C8C C9A 1_555 1_555

#END
