
#######################################################################
#
#                 Cambridge Crystallographic Data Centre
#                                CCDC 
#
#######################################################################
#
# If this CIF has been generated from an entry in the Cambridge 
# Structural Database, then it will include bibliographic, chemical, 
# crystal, experimental, refinement or atomic coordinate data resulting 
# from the CCDC's data processing and validation procedures.
#
#######################################################################

data_XIFHIF
_chemical_formula_moiety         '(C24 H20 N2 O17 Tb2)n'
_chemical_name_systematic        
'catena-[tris(\m~4~- Furan-2,5-dicarboxylato)-bis(N,N-dimethylformamide)-di-terbium unknown solvate]'
_symmetry_cell_setting           orthorhombic
_symmetry_space_group_name_H-M   'P n m a'
_symmetry_Int_Tables_number      62
_space_group_name_Hall           '-P 2ac 2n'
loop_
_symmetry_equiv_pos_site_id
_symmetry_equiv_pos_as_xyz
1 x,y,z
2 1/2-x,-y,1/2+z
3 1/2+x,1/2-y,1/2-z
4 -x,1/2+y,-z
5 -x,-y,-z
6 1/2+x,y,1/2-z
7 1/2-x,1/2+y,1/2+z
8 x,1/2-y,z
_cell_length_a                   8.5851(2)
_cell_length_b                   28.0467(8)
_cell_length_c                   15.4118(5)
_cell_angle_alpha                90
_cell_angle_beta                 90
_cell_angle_gamma                90
_cell_volume                     3710.91
_cell_formula_units_Z            4
loop_
_atom_site_label
_atom_site_type_symbol
_atom_site_fract_x
_atom_site_fract_y
_atom_site_fract_z
Tb1 Tb 0.94840(3) 0.586141(10) 0.202419(18)
O1 O 0.9061(8) 0.6086(2) 0.0535(4)
O2 O 0.7154(5) 0.47420(16) 0.6614(3)
O3 O 0.9563(5) 0.47803(17) 0.7169(3)
O4 O 0.7956(4) 0.53465(15) 0.5329(3)
O5 O 0.8756(5) 0.60301(18) 0.3444(3)
O6 O 0.6632(5) 0.56106(17) 0.3794(3)
O7 O 1.0498(5) 0.66257(17) 0.2096(3)
O8 O 1.2068(5) 0.62736(15) 0.3037(3)
O9 O 1.1342(7) 0.7500 0.2631(4)
N1 N 0.9354(10) 0.6015(3) -0.0896(5)
C1 C 0.9300(11) 0.5859(4) -0.0133(6)
H1 H 0.9458 0.5533 -0.0066
C2 C 0.9632(12) 0.5745(4) -0.1671(6)
H2 H 1.0713 0.5767 -0.1825
H3 H 0.9008 0.5871 -0.2135
H4 H 0.9360 0.5418 -0.1573
C3 C 0.8605(13) 0.6495(4) -0.1051(6)
H5 H 0.7895 0.6564 -0.0587
H6 H 0.8048 0.6488 -0.1591
H7 H 0.9396 0.6736 -0.1075
C4 C 0.8521(7) 0.4898(2) 0.6648(4)
C5 C 0.7961(7) 0.5775(2) 0.3942(4)
C6 C 0.8976(7) 0.5258(2) 0.5989(4)
C7 C 1.0131(8) 0.5765(2) 0.5097(4)
H8 H 1.0862 0.5968 0.4848
C8 C 1.0298(7) 0.5510(3) 0.5876(4)
H9 H 1.1157 0.5514 0.6243
C9 C 1.1479(7) 0.6641(2) 0.2701(4)
C10 C 1.1940(7) 0.7112(2) 0.3044(4)
C11 C 1.2886(7) 0.7248(2) 0.3691(4)
H10 H 1.3434 0.7049 0.4066
C12 C 0.8699(7) 0.5658(2) 0.4776(4)
O7G O 1.0498(5) 0.83743(17) 0.2096(3)
O8G O 1.2068(5) 0.87264(15) 0.3037(3)
C9G C 1.1479(7) 0.8359(2) 0.2701(4)
C10G C 1.1940(7) 0.7888(2) 0.3044(4)
C11G C 1.2886(7) 0.7752(2) 0.3691(4)
H10G H 1.3434 0.7951 0.4066
Tb1D Tb 1.05160(3) 0.413859(10) 0.797581(18)
O1D O 1.0939(8) 0.3914(2) 0.9465(4)
O2D O 1.2846(5) 0.52580(16) 0.3386(3)
O3D O 1.0437(5) 0.52197(17) 0.2831(3)
O4D O 1.2044(4) 0.46535(15) 0.4671(3)
O5D O 1.1244(5) 0.39699(18) 0.6556(3)
O6D O 1.3368(5) 0.43894(17) 0.6206(3)
N1D N 1.0646(10) 0.3985(3) 1.0896(5)
C1D C 1.0700(11) 0.4141(4) 1.0133(6)
H1D H 1.0542 0.4467 1.0066
C2D C 1.0368(12) 0.4255(4) 1.1671(6)
H2D H 0.9287 0.4233 1.1825
H3D H 1.0992 0.4129 1.2135
H4D H 1.0640 0.4582 1.1573
C3D C 1.1395(13) 0.3505(4) 1.1051(6)
H5D H 1.2105 0.3436 1.0587
H6D H 1.1952 0.3512 1.1591
H7D H 1.0604 0.3264 1.1075
C4D C 1.1479(7) 0.5102(2) 0.3352(4)
C5D C 1.2039(7) 0.4225(2) 0.6058(4)
C6D C 1.1024(7) 0.4742(2) 0.4011(4)
C7D C 0.9869(8) 0.4235(2) 0.4903(4)
H8D H 0.9138 0.4032 0.5152
C8D C 0.9702(7) 0.4490(3) 0.4124(4)
H9D H 0.8843 0.4486 0.3757
C12D C 1.1301(7) 0.4342(2) 0.5224(4)
Tb1A Tb 0.55160(3) 0.413859(10) 0.702419(18)
Tb1A_2 Tb 1.55160(3) 0.413859(10) 0.702419(18)
Tb1B Tb 1.44840(3) 0.913859(10) 0.297581(18)
Tb1E Tb 0.44840(3) 0.586141(10) 0.297581(18)
Tb1E_2 Tb 1.44840(3) 0.586141(10) 0.297581(18)
Tb1G Tb 0.94840(3) 0.913859(10) 0.202419(18)
O2A O 0.7846(5) 0.52580(16) 0.1614(3)
O2E O 1.2154(5) 0.47420(16) 0.8386(3)
O6A O 0.8368(5) 0.43894(17) 0.8794(3)
O6E O 1.1632(5) 0.56106(17) 0.1206(3)
O7D O 0.9502(5) 0.33743(17) 0.7904(3)
O8A O 1.2932(5) 0.37264(15) 0.8037(3)
O8E O 0.7068(5) 0.62736(15) 0.1963(3)
loop_
_geom_bond_atom_site_label_1
_geom_bond_atom_site_label_2
_geom_bond_site_symmetry_1
_geom_bond_site_symmetry_2
Tb1 O1 1_555 1_555
O1 C1 1_555 1_555
O2 C4 1_555 1_555
O3 C4 1_555 1_555
O4 C6 1_555 1_555
O5 Tb1 1_555 1_555
O6 C5 1_555 1_555
O7 Tb1 1_555 1_555
O8 C9 1_555 1_555
O9 C10 1_555 1_555
N1 C1 1_555 1_555
C1 H1 1_555 1_555
C2 N1 1_555 1_555
H2 C2 1_555 1_555
H3 C2 1_555 1_555
H4 C2 1_555 1_555
C3 N1 1_555 1_555
H5 C3 1_555 1_555
H6 C3 1_555 1_555
H7 C3 1_555 1_555
C4 C6 1_555 1_555
C5 O5 1_555 1_555
C6 C8 1_555 1_555
C7 H8 1_555 1_555
C8 C7 1_555 1_555
H9 C8 1_555 1_555
C9 O7 1_555 1_555
C10 C9 1_555 1_555
C11 C10 1_555 1_555
H10 C11 1_555 1_555
C12 O4 1_555 1_555
O7G C9G 1_555 1_555
O8G C9G 1_555 1_555
C9G C10G 1_555 1_555
C10G O9 1_555 1_555
C11G C11 1_555 1_555
H10G C11G 1_555 1_555
Tb1D O3 1_555 1_555
O1D Tb1D 1_555 1_555
O2D C4D 1_555 1_555
O3D Tb1 1_555 1_555
O4D C6D 1_555 1_555
O5D Tb1D 1_555 1_555
O6D C5D 1_555 1_555
N1D C1D 1_555 1_555
C1D O1D 1_555 1_555
H1D C1D 1_555 1_555
C2D N1D 1_555 1_555
H2D C2D 1_555 1_555
H3D C2D 1_555 1_555
H4D C2D 1_555 1_555
C3D N1D 1_555 1_555
H5D C3D 1_555 1_555
H6D C3D 1_555 1_555
H7D C3D 1_555 1_555
C4D O3D 1_555 1_555
C5D O5D 1_555 1_555
C6D C4D 1_555 1_555
C7D H8D 1_555 1_555
C8D C6D 1_555 1_555
H9D C8D 1_555 1_555
C12D O4D 1_555 1_555
Tb1A O2 1_555 1_555
Tb1A_2 O6D 1_555 1_555
Tb1B O8G 1_555 1_555
Tb1E O6 1_555 1_555
Tb1E_2 O8 1_555 1_555
Tb1G O7G 1_555 1_555
O2A Tb1 1_555 1_555
O2E Tb1D 1_555 1_555
O6A Tb1D 1_555 1_555
O6E Tb1 1_555 1_555
O7D Tb1D 1_555 1_555
O8A Tb1D 1_555 1_555
O8E Tb1 1_555 1_555
C5 C12 1_555 1_555
C7 C12 1_555 1_555
C10G C11G 1_555 1_555
O2D Tb1E_2 1_555 1_555
C5D C12D 1_555 1_555
C7D C8D 1_555 1_555
C7D C12D 1_555 1_555

#END
