
#######################################################################
#
#                 Cambridge Crystallographic Data Centre
#                                CCDC 
#
#######################################################################
#
# If this CIF has been generated from an entry in the Cambridge 
# Structural Database, then it will include bibliographic, chemical, 
# crystal, experimental, refinement or atomic coordinate data resulting 
# from the CCDC's data processing and validation procedures.
#
#######################################################################

data_QUJKUD
_chemical_formula_moiety         
'(C36 H25 Cu3 N12 O9 1+)n,n(N1 O3 1-),7n(H2 O1),n(C2 H6 O1)'
_chemical_name_systematic        
"catena-(tris(\m~3~-4-(4H-1,2,4-Triazol-4-yl)benzoato-N,N',O,O')-(\m~3~-4-(4H-1,2,4-triazol-4-yl)benzoato-N,N',O)-(\m~3~-hydroxo)-tri-copper nitrate ethanol solvate heptahydrate)"
_symmetry_cell_setting           monoclinic
_symmetry_space_group_name_H-M   'C 2/c'
_symmetry_Int_Tables_number      15
_space_group_name_Hall           '-C 2yc'
loop_
_symmetry_equiv_pos_site_id
_symmetry_equiv_pos_as_xyz
1 x,y,z
2 -x,y,1/2-z
3 1/2+x,1/2+y,z
4 1/2-x,1/2+y,1/2-z
5 -x,-y,-z
6 x,-y,1/2+z
7 1/2-x,1/2-y,-z
8 1/2+x,1/2-y,1/2+z
_cell_length_a                   25.4902(4)
_cell_length_b                   14.7273(2)
_cell_length_c                   27.1139(5)
_cell_angle_alpha                90
_cell_angle_beta                 94.6592(17)
_cell_angle_gamma                90
_cell_volume                     10145
_exptl_crystal_colour            blue
_exptl_crystal_description       block
_cell_formula_units_Z            8
loop_
_atom_site_label
_atom_site_type_symbol
_atom_site_fract_x
_atom_site_fract_y
_atom_site_fract_z
O10 O 0.1798(5) 0.2714(9) 0.2448(6)
N13 N 0.2045(5) 0.2062(9) 0.2512(5)
O11 O 0.1882(7) 0.1450(10) 0.2762(7)
O12 O 0.2439(6) 0.1927(12) 0.2305(6)
O13 O 0.2672(4) 0.7775(7) 0.0078(4)
Cu1 Cu 0.09909(2) 0.46394(3) 0.065922(19)
Cu2 Cu 0.22680(2) 0.46340(4) 0.11553(2)
Cu3 Cu 0.16273(2) 0.65149(3) 0.115463(19)
N1 N 0.18530(15) 0.3490(3) 0.11104(15)
N2 N 0.13637(16) 0.3474(3) 0.08560(15)
N3 N 0.17205(17) 0.5291(3) 0.26280(14)
C1 C 0.1515(2) 0.4993(4) 0.41382(18)
N4 N 0.16891(16) 0.5838(3) 0.18769(14)
C2 C 0.15314(19) 0.5959(3) 0.23174(17)
H1 H 0.1315 0.6446 0.2408
N5 N 0.19950(17) 0.5055(3) 0.18926(15)
C3 C 0.2062(2) 0.4881(5) 0.3458(2)
H2 H 0.2392 0.4745 0.3336
C4 C 0.1646(2) 0.5187(4) 0.31418(18)
C5 C 0.1164(2) 0.5384(4) 0.33109(19)
H3 H 0.0878 0.5576 0.3089
C6 C 0.1106(2) 0.5294(4) 0.38108(19)
H4 H 0.0778 0.5443 0.3933
N6 N 0.15659(19) 0.2107(3) 0.1101(2)
C7 C 0.1988(2) 0.4778(5) 0.3953(2)
H5 H 0.2269 0.4553 0.4171
C8 C 0.2009(2) 0.4747(4) 0.23449(18)
H6 H 0.2193 0.4218 0.2461
C9 C 0.1965(2) 0.2672(4) 0.1250(2)
H7 H 0.2282 0.2492 0.1432
C10 C 0.1200(2) 0.2636(4) 0.0851(2)
H8 H 0.0874 0.2428 0.0697
O1 O 0.16546(12) 0.5297(2) 0.08384(11)
N7 N 0.08511(15) 0.6511(3) 0.09936(15)
O2 O 0.03219(12) 0.3967(2) 0.05700(12)
N8 N -0.25884(15) 0.1573(3) 0.11395(16)
O3 O 0.03811(15) 0.4140(3) 0.13851(14)
N9 N 0.06061(15) 0.5819(3) 0.07215(14)
C11 C -0.03539(19) 0.3321(3) 0.1014(2)
C12 C 0.01501(19) 0.3853(3) 0.0995(2)
C13 C -0.0606(2) 0.2957(4) 0.0584(2)
H9 H -0.0459 0.3035 0.0276
N10 N -0.17635(18) 0.1879(3) 0.1087(2)
N11 N -0.23225(17) 0.0767(3) 0.1102(2)
C14 C -0.2246(2) 0.2225(3) 0.1131(2)
H10 H -0.2325 0.2853 0.1153
C15 C -0.0570(2) 0.3214(4) 0.1462(2)
H11 H -0.0396 0.3468 0.1752
O4 O 0.10543(13) 0.5245(2) 0.48508(12)
N12 N 0.00228(15) 0.6834(3) 0.08672(16)
C16 C 0.01103(18) 0.6028(3) 0.06463(17)
H12 H -0.0150 0.5673 0.0465
C17 C -0.04677(18) 0.7301(3) 0.0883(2)
C18 C 0.04976(19) 0.7106(3) 0.10765(19)
H13 H 0.0561 0.7654 0.1257
C19 C -0.14194(18) 0.8179(3) 0.09044(19)
C20 C -0.0820(2) 0.7287(4) 0.0466(2)
H14 H -0.0736 0.6977 0.0175
C21 C -0.0583(2) 0.7730(5) 0.1310(2)
H15 H -0.0340 0.7719 0.1594
C22 C -0.1059(2) 0.8178(4) 0.1322(2)
H16 H -0.1142 0.8485 0.1614
C23 C -0.1294(2) 0.7732(4) 0.0480(2)
H17 H -0.1538 0.7731 0.0196
C24 C -0.1073(2) 0.2479(5) 0.0608(3)
H18 H -0.1248 0.2225 0.0318
C25 C -0.1038(2) 0.2741(4) 0.1493(3)
H19 H -0.1190 0.2668 0.1799
C26 C -0.1275(2) 0.2382(4) 0.1057(3)
C27 C -0.1827(2) 0.0971(4) 0.1067(3)
H20 H -0.1554 0.0543 0.1033
O5 O 0.18218(17) 0.4505(3) 0.49367(13)
C28 C 0.1456(2) 0.4903(3) 0.46818(18)
O6 O 0.16074(13) -0.2185(2) 0.12831(14)
O7 O -0.21847(14) 0.8839(3) 0.05038(14)
C29 C -0.19274(18) 0.8684(3) 0.08993(19)
O8 O -0.20755(13) 0.8948(2) 0.13202(13)
O9 O 0.1723(3) -0.2121(5) 0.0532(3)
C30 C 0.1602(4) 0.1109(9) 0.0993(5)
C31 C 0.1750(5) 0.0700(7) 0.0569(4)
H21 H 0.1852 0.1052 0.0299
C32 C 0.1652(3) -0.1758(7) 0.0924(3)
C33 C 0.1745(5) -0.0234(7) 0.0548(4)
H22 H 0.1831 -0.0537 0.0256
C34 C 0.1464(5) 0.0626(8) 0.1402(5)
H23 H 0.1367 0.0917 0.1693
C35 C 0.1618(5) -0.0721(9) 0.0946(4)
C36 C 0.1478(8) -0.0315(11) 0.1356(7)
H24 H 0.1385 -0.0679 0.1625
H25 H 0.177(2) 0.537(4) 0.0559(11)
Cu1E Cu 0.09909(2) 0.53606(3) 0.565922(19)
Cu2B Cu -0.27320(2) -0.03660(4) 0.11553(2)
Cu2B_2 Cu -0.27320(2) 0.96340(4) 0.11553(2)
Cu3_2 Cu 0.16273(2) -0.34851(3) 0.115463(19)
Cu3B Cu -0.33727(2) 0.15149(3) 0.115463(19)
N8B N 0.24116(15) 0.6573(3) 0.11395(16)
N11B N 0.26775(17) 0.5767(3) 0.1102(2)
O4E O 0.10543(13) 0.4755(2) -0.01492(12)
O6_2 O 0.16074(13) 0.7815(2) 0.12831(14)
O7B O 0.28153(14) 0.3839(3) 0.05038(14)
O8B O 0.29245(13) 0.3948(2) 0.13202(13)
O9_2 O 0.1723(3) 0.7879(5) 0.0532(3)
C37? C 0.1507(4) 0.1133(8) 0.1292(4)
O14? O 0.1282(4) -0.1965(5) 0.1961(3)
C38? C 0.1454(4) -0.1666(7) 0.1575(4)
C39? C 0.1462(6) -0.0639(9) 0.1476(4)
C40? C 0.1635(5) 0.0551(7) 0.0938(4)
H26? H 0.1739 0.0764 0.0630
C41? C 0.1361(6) 0.0864(7) 0.1733(5)
H27? H 0.1276 0.1294 0.1975
C42? C 0.1339(7) -0.0035(6) 0.1822(5)
H28? H 0.1236 -0.0245 0.2131
C43? C 0.1608(6) -0.0346(8) 0.1036(5)
H29? H 0.1694 -0.0774 0.0793
O15? O 0.2030(4) -0.0911(7) -0.0026(4)
loop_
_geom_bond_atom_site_label_1
_geom_bond_atom_site_label_2
_geom_bond_site_symmetry_1
_geom_bond_site_symmetry_2
Cu1 N2 1_555 1_555
Cu2 N1 1_555 1_555
Cu3 N4 1_555 1_555
N1 N2 1_555 1_555
N2 C10 1_555 1_555
N3 C2 1_555 1_555
C1 C6 1_555 1_555
N4 C2 1_555 1_555
C2 H1 1_555 1_555
N5 Cu2 1_555 1_555
C3 H2 1_555 1_555
C4 N3 1_555 1_555
C5 C4 1_555 1_555
H3 C5 1_555 1_555
C6 C5 1_555 1_555
H4 C6 1_555 1_555
N6 C9 1_555 1_555
C7 C1 1_555 1_555
H5 C7 1_555 1_555
C8 N3 1_555 1_555
H6 C8 1_555 1_555
C9 N1 1_555 1_555
H7 C9 1_555 1_555
C10 N6 1_555 1_555
H8 C10 1_555 1_555
O1 Cu1 1_555 1_555
N7 Cu3 1_555 1_555
O2 Cu1 1_555 1_555
N8 N11 1_555 1_555
O3 Cu1 1_555 1_555
N9 Cu1 1_555 1_555
C11 C12 1_555 1_555
C12 O2 1_555 1_555
C13 C11 1_555 1_555
H9 C13 1_555 1_555
N10 C14 1_555 1_555
N11 C27 1_555 1_555
C14 N8 1_555 1_555
H10 C14 1_555 1_555
C15 C11 1_555 1_555
H11 C15 1_555 1_555
O4 C28 1_555 1_555
N12 C16 1_555 1_555
C16 N9 1_555 1_555
H12 C16 1_555 1_555
C17 N12 1_555 1_555
C18 N7 1_555 1_555
H13 C18 1_555 1_555
C19 C22 1_555 1_555
C20 C17 1_555 1_555
H14 C20 1_555 1_555
C21 C17 1_555 1_555
H15 C21 1_555 1_555
C22 C21 1_555 1_555
H16 C22 1_555 1_555
C23 C19 1_555 1_555
H17 C23 1_555 1_555
C24 C13 1_555 1_555
H18 C24 1_555 1_555
C25 C15 1_555 1_555
H19 C25 1_555 1_555
C26 N10 1_555 1_555
C27 N10 1_555 1_555
H20 C27 1_555 1_555
O5 C28 1_555 1_555
C28 C1 1_555 1_555
O6 C32 1_555 1_555
O7 C29 1_555 1_555
C29 C19 1_555 1_555
O8 C29 1_555 1_555
O9 C32 1_555 1_555
C30 N6 1_555 1_555
C31 C30 1_555 1_555
H21 C31 1_555 1_555
C32 C35 1_555 1_555
C33 C31 1_555 1_555
H22 C33 1_555 1_555
C34 C30 1_555 1_555
H23 C34 1_555 1_555
C35 C33 1_555 1_555
C36 C34 1_555 1_555
H24 C36 1_555 1_555
H25 O1 1_555 1_555
O10 N13 1_555 1_555
N13 O11 1_555 1_555
O12 N13 1_555 1_555
Cu1E O4 1_555 1_555
Cu2B N11 1_555 1_555
Cu2B_2 O7 1_555 1_555
Cu3_2 O6 1_555 1_555
Cu3B N8 1_555 1_555
N8B Cu3 1_555 1_555
N11B Cu2 1_555 1_555
O4E Cu1 1_555 1_555
O6_2 Cu3 1_555 1_555
O7B Cu2 1_555 1_555
O8B Cu2 1_555 1_555
O9_2 Cu3 1_555 1_555
Cu2 O1 1_555 1_555
Cu3 O1 1_555 1_555
N4 N5 1_555 1_555
N5 C8 1_555 1_555
C3 C4 1_555 1_555
C3 C7 1_555 1_555
N7 N9 1_555 1_555
O3 C12 1_555 1_555
N12 C18 1_555 1_555
C20 C23 1_555 1_555
C24 C26 1_555 1_555
C25 C26 1_555 1_555
O8 Cu2B_2 1_555 1_555
O9 Cu3_2 1_555 1_555
C35 C36 1_555 1_555
N8B N11B 1_555 1_555

#END
