
#######################################################################
#
#                 Cambridge Crystallographic Data Centre
#                                CCDC 
#
#######################################################################
#
# If this CIF has been generated from an entry in the Cambridge 
# Structural Database, then it will include bibliographic, chemical, 
# crystal, experimental, refinement or atomic coordinate data resulting 
# from the CCDC's data processing and validation procedures.
#
#######################################################################

data_QUJLAK02
_chemical_formula_moiety         '(C36 H25 Cu3 N12 O9 1+)n,n(N1 O3 1-)'
_chemical_name_systematic        
"catena-(tetrakis(\m~3~-4-(4H-1,2,4-triazol-4-yl)benzoato-N,N',O)-(\m~3~-hydroxo)-tri-copper nitrate)"
_symmetry_cell_setting           monoclinic
_symmetry_space_group_name_H-M   'C 2/c'
_symmetry_Int_Tables_number      15
_space_group_name_Hall           '-C 2yc'
loop_
_symmetry_equiv_pos_site_id
_symmetry_equiv_pos_as_xyz
1 x,y,z
2 -x,y,1/2-z
3 1/2+x,1/2+y,z
4 1/2-x,1/2+y,1/2-z
5 -x,-y,-z
6 x,-y,1/2+z
7 1/2-x,1/2-y,-z
8 1/2+x,1/2-y,1/2+z
_cell_length_a                   25.7877(6)
_cell_length_b                   14.8425(4)
_cell_length_c                   26.8476(12)
_cell_angle_alpha                90
_cell_angle_beta                 91.062(3)
_cell_angle_gamma                90
_cell_volume                     10274.3
_exptl_crystal_colour            blue
_exptl_crystal_description       block
_cell_formula_units_Z            8
_exptl_crystal_preparation       'activated, heated to 353 K for 12 hours'
loop_
_atom_site_label
_atom_site_type_symbol
_atom_site_fract_x
_atom_site_fract_y
_atom_site_fract_z
H1 H 0.3242(13) 0.459(3) 0.5275(5)
H2 H 0.5266 0.2254 0.6640
H3 H 0.6028 0.1466 0.6769
H4 H 0.6513 0.2213 0.5423
H5 H 0.5753 0.3003 0.5290
H6 H 0.4404 0.2287 0.6098
H7 H 0.5148 0.4373 0.5563
H8 H 0.1367 0.2221 0.6509
H9 H 0.0575 0.1459 0.6554
H10 H 0.0282 0.2082 0.5134
H11 H 0.1058 0.2880 0.5102
H12 H 0.2323 0.2114 0.5792
H13 H 0.1563 0.4410 0.5770
H14 H 0.3172 -0.0861 0.5219
H15 H 0.3255 0.0721 0.5371
H16 H 0.3533 0.0266 0.6798
H17 H 0.3534 -0.1268 0.6646
H18 H 0.2647 -0.2561 0.6022
H19 H 0.4091 -0.2468 0.5609
H20 H 0.4067 0.4288 0.7918
H21 H 0.4171 0.4445 0.8761
H22 H 0.2710 0.5323 0.8853
H23 H 0.2596 0.5121 0.8012
H24 H 0.2824 0.5683 0.7138
H25 H 0.3625 0.3437 0.7161
C1 C -0.01437(14) 0.1183(3) 0.58653(17)
C2 C 0.03524(14) 0.1701(3) 0.58482(17)
C3 C 0.06708(18) 0.1737(4) 0.6260(2)
C4 C 0.11441(18) 0.2197(4) 0.6233(2)
C5 C 0.12745(14) 0.2608(3) 0.58009(19)
C6 C 0.09635(16) 0.2587(3) 0.53924(19)
C7 C 0.04971(16) 0.2116(3) 0.54151(18)
C8 C 0.18297(14) 0.3987(3) 0.57714(18)
C9 C 0.22468(15) 0.2726(3) 0.57846(19)
C10 C 0.34273(19) 0.1641(4) 0.6184(2)
C11 C 0.34095(18) 0.0609(3) 0.6096(2)
C12 C 0.3480(3) 0.0047(4) 0.6476(3)
C13 C 0.3473(2) -0.0867(4) 0.6385(3)
C14 C 0.33738(16) -0.1193(3) 0.5906(2)
C15 C 0.3267(3) -0.0643(4) 0.5532(2)
C16 C 0.3304(2) 0.0311(4) 0.5630(2)
C17 C 0.29727(16) -0.2729(3) 0.5911(2)
C18 C 0.37621(15) -0.2676(3) 0.56872(18)
C19 C 0.68243(15) 0.1178(3) 0.61817(19)
C20 C 0.63414(14) 0.1733(3) 0.61029(17)
C21 C 0.59696(17) 0.1767(4) 0.6469(2)
C22 C 0.55169(16) 0.2240(4) 0.63961(18)
C23 C 0.54417(13) 0.2698(3) 0.59502(17)
C24 C 0.58087(14) 0.2690(3) 0.55865(17)
C25 C 0.62600(15) 0.2213(3) 0.56652(17)
C26 C 0.44777(13) 0.2848(3) 0.59621(16)
C27 C 0.48853(12) 0.3994(3) 0.56687(14)
C28 C 0.34479(16) 0.4906(3) 0.89019(16)
C29 C 0.38545(17) 0.4589(4) 0.86098(16)
C30 C 0.37926(18) 0.4490(4) 0.81082(17)
C31 C 0.33200(16) 0.4691(3) 0.78812(16)
C32 C 0.29150(18) 0.4994(4) 0.81628(18)
C33 C 0.29834(17) 0.5106(4) 0.86663(17)
C34 C 0.35144(16) 0.5056(3) 0.94510(15)
C35 C 0.34299(16) 0.3930(3) 0.70546(16)
C36 C 0.29926(16) 0.5159(3) 0.70408(16)
N1 N 0.17627(11) 0.3083(2) 0.57868(15)
N2 N 0.25873(12) 0.3369(2) 0.57699(14)
N3 N 0.23217(11) 0.4177(2) 0.57592(13)
N4 N 0.49596(11) 0.3162(2) 0.58659(13)
N5 N 0.41328(11) 0.3453(2) 0.58361(12)
N6 N 0.43925(10) 0.4183(2) 0.56498(12)
N7 N 0.32556(13) 0.4584(2) 0.73585(13)
N8 N 0.32921(12) 0.4074(2) 0.66012(12)
N9 N 0.30141(12) 0.4868(2) 0.65888(13)
N10 N 0.33732(12) -0.2155(2) 0.58444(15)
N11 N 0.36133(11) -0.3521(2) 0.56601(14)
N12 N 0.31083(12) -0.3553(2) 0.57994(15)
O1 O -0.03657(9) 0.10131(18) 0.54451(10)
O2 O -0.03153(12) 0.0918(3) 0.62669(13)
O3 O 0.33636(10) 0.2106(2) 0.58228(16)
O4 O 0.3531(2) 0.1916(3) 0.66135(19)
O5 O 0.69372(15) 0.0902(4) 0.66045(15)
O6 O 0.70851(9) 0.10135(19) 0.57988(11)
O7 O 0.31540(11) 0.5481(3) 0.96563(11)
O8 O 0.39109(10) 0.4753(2) 0.96696(10)
O9 O 0.33411(8) 0.46578(16) 0.55794(9)
Cu1 Cu -0.100534(14) 0.03225(3) 0.549421(17)
Cu2 Cu 0.336290(14) 0.34171(3) 0.586166(17)
Cu3 Cu 0.272168(15) 0.53085(3) 0.584178(18)
N6B N -0.06075(10) -0.0817(2) 0.56498(12)
N11B N -0.13867(11) 0.1479(2) 0.56601(14)
N12_2 N 0.31083(12) 0.6447(2) 0.57994(15)
O6B O 0.20851(9) 0.60135(19) 0.57988(11)
O8G O -0.10891(10) 0.0247(2) 0.46696(10)
O9B O -0.16589(8) -0.03422(16) 0.55794(9)
Cu1B Cu 0.399466(14) -0.46775(3) 0.549421(17)
Cu1B_2 Cu 0.399466(14) 0.53225(3) 0.549421(17)
Cu1G Cu 0.399466(14) 0.46775(3) 1.049421(17)
Cu3_2 Cu 0.272168(15) -0.46915(3) 0.584178(18)
Cu3B Cu 0.772168(15) 0.03085(3) 0.584178(18)
loop_
_geom_bond_atom_site_label_1
_geom_bond_atom_site_label_2
_geom_bond_site_symmetry_1
_geom_bond_site_symmetry_2
H1 O9 1_555 1_555
H2 C22 1_555 1_555
H3 C21 1_555 1_555
H4 C25 1_555 1_555
H5 C24 1_555 1_555
H6 C26 1_555 1_555
H7 C27 1_555 1_555
H8 C4 1_555 1_555
H9 C3 1_555 1_555
H10 C7 1_555 1_555
H11 C6 1_555 1_555
H12 C9 1_555 1_555
H13 C8 1_555 1_555
H14 C15 1_555 1_555
H15 C16 1_555 1_555
H16 C12 1_555 1_555
H17 C13 1_555 1_555
H18 C17 1_555 1_555
H19 C18 1_555 1_555
H20 C30 1_555 1_555
H21 C29 1_555 1_555
H22 C33 1_555 1_555
H23 C32 1_555 1_555
H24 C36 1_555 1_555
H25 C35 1_555 1_555
C1 C2 1_555 1_555
C2 C3 1_555 1_555
C3 C4 1_555 1_555
C4 C5 1_555 1_555
C5 C6 1_555 1_555
C6 C7 1_555 1_555
C7 C2 1_555 1_555
C8 N1 1_555 1_555
C9 N1 1_555 1_555
C10 C11 1_555 1_555
C11 C12 1_555 1_555
C12 C13 1_555 1_555
C13 C14 1_555 1_555
C14 C15 1_555 1_555
C15 C16 1_555 1_555
C16 C11 1_555 1_555
C17 N10 1_555 1_555
C18 N10 1_555 1_555
C19 C20 1_555 1_555
C20 C21 1_555 1_555
C21 C22 1_555 1_555
C22 C23 1_555 1_555
C23 C24 1_555 1_555
C24 C25 1_555 1_555
C25 C20 1_555 1_555
C26 N4 1_555 1_555
C27 N4 1_555 1_555
C28 C29 1_555 1_555
C29 C30 1_555 1_555
C30 C31 1_555 1_555
C31 C32 1_555 1_555
C32 C33 1_555 1_555
C33 C28 1_555 1_555
C34 C28 1_555 1_555
C35 N7 1_555 1_555
C36 N7 1_555 1_555
N1 C5 1_555 1_555
N2 C9 1_555 1_555
N3 C8 1_555 1_555
N4 C23 1_555 1_555
N5 C26 1_555 1_555
N6 C27 1_555 1_555
N7 C31 1_555 1_555
N8 C35 1_555 1_555
N9 C36 1_555 1_555
N10 C14 1_555 1_555
N11 C18 1_555 1_555
N12 C17 1_555 1_555
O1 C1 1_555 1_555
O2 C1 1_555 1_555
O3 C10 1_555 1_555
O4 C10 1_555 1_555
O5 C19 1_555 1_555
O6 C19 1_555 1_555
O7 C34 1_555 1_555
O8 C34 1_555 1_555
O9 Cu2 1_555 1_555
Cu1 O1 1_555 1_555
Cu2 N2 1_555 1_555
Cu3 N3 1_555 1_555
N6B Cu1 1_555 1_555
N11B Cu1 1_555 1_555
N12_2 Cu3 1_555 1_555
O6B Cu3 1_555 1_555
O8G Cu1 1_555 1_555
O9B Cu1 1_555 1_555
Cu1B N11 1_555 1_555
Cu1B_2 N6 1_555 1_555
Cu1G O8 1_555 1_555
Cu3_2 N12 1_555 1_555
Cu3B O6 1_555 1_555
N2 N3 1_555 1_555
N5 N6 1_555 1_555
N5 Cu2 1_555 1_555
N8 N9 1_555 1_555
N8 Cu2 1_555 1_555
N9 Cu3 1_555 1_555
N11 N12 1_555 1_555
O3 Cu2 1_555 1_555
O9 Cu3 1_555 1_555
O9 Cu1B_2 1_555 1_555

#END
