
#######################################################################
#
#                 Cambridge Crystallographic Data Centre
#                                CCDC 
#
#######################################################################
#
# If this CIF has been generated from an entry in the Cambridge 
# Structural Database, then it will include bibliographic, chemical, 
# crystal, experimental, refinement or atomic coordinate data resulting 
# from the CCDC's data processing and validation procedures.
#
#######################################################################

data_QUJLAK
_chemical_formula_moiety         '(C72 H50 Cu6 N24 O18 2+)n,2n(N1 O3 1-)'
_chemical_name_systematic        
"catena-(tetrakis(\m~3~-4-(4H-1,2,4-Triazol-4-yl)benzoato-N,N',O,O')-tetrakis(\m~3~-4-(4H-1,2,4-triazol-4-yl)benzoato-N,N',O)-bis(\m~3~-hydroxo)-hexa-copper dinitrate)"
_symmetry_cell_setting           monoclinic
_symmetry_space_group_name_H-M   'P 2/c'
_symmetry_Int_Tables_number      13
_space_group_name_Hall           '-P 2yc'
loop_
_symmetry_equiv_pos_site_id
_symmetry_equiv_pos_as_xyz
1 x,y,z
2 -x,y,1/2-z
3 -x,-y,-z
4 x,-y,1/2+z
_cell_length_a                   25.6014(3)
_cell_length_b                   14.8269(2)
_cell_length_c                   27.3104(4)
_cell_angle_alpha                90
_cell_angle_beta                 94.3220(10)
_cell_angle_gamma                90
_cell_volume                     10337.3
_exptl_crystal_colour            blue
_exptl_crystal_description       block
_cell_formula_units_Z            4
_exptl_crystal_preparation       'after heating to 393 K for 5 hours'
loop_
_atom_site_label
_atom_site_type_symbol
_atom_site_fract_x
_atom_site_fract_y
_atom_site_fract_z
Cu1 Cu 0.343079(17) 0.13723(3) 0.406955(18)
Cu2 Cu -0.220996(16) 0.44743(3) 0.383058(17)
Cu3 Cu -0.161183(16) 0.64105(3) 0.387653(18)
Cu4 Cu -0.094056(16) 0.45546(3) 0.434606(15)
Cu5 Cu 0.403341(17) -0.05508(3) 0.412679(19)
Cu6 Cu 0.279897(17) -0.04646(3) 0.451799(18)
O1 O -0.02772(9) 0.39223(18) 0.44852(9)
N1 N 0.26549(13) 0.1390(2) 0.41273(14)
O2 O -0.10464(11) 0.4672(2) 0.51514(9)
N2 N 0.24232(12) 0.0723(2) 0.43803(14)
O3 O -0.18192(12) 0.5366(2) 0.50554(10)
N3 N 0.18440(12) 0.1764(2) 0.41791(13)
C1 C -0.14469(16) 0.5002(3) 0.53171(14)
C2 C -0.00499(15) 0.3808(3) 0.40847(15)
C3 C -0.15080(17) 0.4942(3) 0.58641(14)
C4 C 0.13617(15) 0.2276(3) 0.41564(16)
C5 C 0.04557(15) 0.3267(3) 0.41194(15)
O4 O -0.02170(14) 0.4120(3) 0.36925(11)
C6 C 0.23104(16) 0.2001(3) 0.40109(18)
H1 H 0.2372 0.2526 0.3838
C7 C 0.06616(17) 0.2916(3) 0.45554(16)
H2 H 0.0494 0.3019 0.4840
C8 C 0.11172(17) 0.2408(3) 0.45772(16)
H3 H 0.1253 0.2162 0.4873
C9 C 0.07122(19) 0.3125(4) 0.37058(18)
H4 H 0.0580 0.3376 0.3410
C10 C 0.19356(16) 0.0966(3) 0.44085(19)
H5 H 0.1687 0.0637 0.4565
C11 C -0.1134(2) 0.4545(4) 0.61769(17)
H6 H -0.0831 0.4322 0.6053
C12 C -0.19414(19) 0.5305(4) 0.60585(16)
H7 H -0.2191 0.5603 0.5852
O5 O -0.16138(8) 0.51757(15) 0.41650(8)
N4 N -0.05812(11) -0.4239(2) 0.42857(11)
N5 N 0.76050(12) -0.3606(2) 0.38753(14)
N6 N -0.17747(12) 0.3372(2) 0.38832(13)
N7 N -0.12784(12) 0.3372(2) 0.41229(12)
N8 N -0.08423(12) -0.3546(2) 0.40492(13)
N9 N 0.73599(12) -0.4417(2) 0.38575(14)
C13 C -0.00999(14) -0.3988(3) 0.43719(14)
H8 H 0.0163 -0.4337 0.4530
C14 C -0.05077(16) -0.2889(3) 0.4010(2)
H9 H -0.0587 -0.2328 0.3871
O6 O 0.34646(9) 0.01409(16) 0.43981(9)
N10 N 0.42199(13) 0.1366(2) 0.41131(13)
N11 N 0.36195(13) -0.1675(2) 0.41772(13)
N12 N 0.44761(13) 0.0566(2) 0.41979(15)
N13 N 0.31268(12) -0.1672(2) 0.43439(13)
N14 N 0.50558(13) 0.1602(3) 0.41174(14)
C15 C 0.45778(16) 0.1974(3) 0.40654(18)
H10 H 0.4512 0.2582 0.4004
C16 C 0.49789(16) 0.0733(3) 0.42096(19)
H11 H 0.5243 0.0308 0.4273
C17 C 0.55547(16) 0.2067(3) 0.40999(17)
N15 N 0.33276(15) -0.3055(2) 0.41630(15)
C18 C 0.29584(18) -0.2507(3) 0.43413(17)
H12 H 0.2638 -0.2696 0.4445
C19 C 0.37259(18) -0.2498(3) 0.4071(2)
H13 H 0.4037 -0.2685 0.3948
O7 O 0.21464(11) -0.1090(2) 0.45785(12)
C20 C 0.13711(18) -0.1711(3) 0.4187(2)
O8 O 0.20179(16) -0.0918(4) 0.37777(16)
C21 C 0.18770(17) -0.1209(3) 0.4166(2)
C22 C 0.12610(17) -0.2206(3) 0.45858(18)
H14 H 0.1507 -0.2236 0.4854
C23 C 0.07968(16) -0.2661(3) 0.46017(17)
H15 H 0.0721 -0.2979 0.4881
C24 C 0.04490(16) -0.2640(3) 0.41994(19)
C25 C 0.3322(2) -0.4015(3) 0.4100(2)
C26 C 0.3212(2) -0.4565(3) 0.4476(3)
H16 H 0.3112 -0.4345 0.4774
O9 O 0.46154(12) -0.1268(2) 0.39218(14)
O10 O 0.48238(15) -0.1320(3) 0.47174(16)
C27 C 0.53890(18) -0.2048(3) 0.41889(19)
C28 C 0.49099(18) -0.1511(3) 0.4291(2)
N16 N 0.34367(15) -0.0697(2) 0.83573(13)
N17 N 0.3496(2) -0.0234(3) 0.76073(14)
N18 N 0.36824(18) 0.0134(3) 0.83756(13)
C29 C 0.33383(19) -0.0899(4) 0.79000(15)
H17 H 0.3180 -0.1432 0.7787
C30 C 0.3707(3) 0.0390(4) 0.79269(19)
H18 H 0.3850 0.0934 0.7834
C31 C 0.1165(2) 0.2616(4) 0.37184(18)
H19 H 0.1332 0.2509 0.3433
N19 N -0.16985(15) 0.4744(3) 0.73701(12)
C32 C -0.1197(2) 0.4470(4) 0.66744(17)
H20 H -0.0940 0.4191 0.6880
C33 C -0.16312(18) 0.4801(4) 0.68604(15)
C34 C -0.20140(19) 0.5238(4) 0.65530(16)
H21 H -0.2311 0.5477 0.6679
O11 O 0.29643(13) -0.0437(2) 0.53005(11)
N20 N -0.00325(13) -0.3144(2) 0.41987(14)
O12 O 0.37621(14) 0.0167(3) 0.53199(11)
C35 C 0.3371(2) -0.0139(3) 0.55182(15)
C36 C 0.3403(2) -0.0166(4) 0.60688(17)
C37 C 0.3786(3) 0.0297(5) 0.63419(18)
H22 H 0.4025 0.0637 0.6181
C38 C 0.3052(3) -0.0647(5) 0.63148(19)
H23 H 0.2789 -0.0965 0.6135
C39 C 0.3072(3) -0.0676(5) 0.68218(19)
H24 H 0.2827 -0.1004 0.6983
C40 C 0.62892(17) -0.2924(3) 0.4007(2)
C41 C 0.5782(2) -0.2137(4) 0.4555(2)
H25 H 0.5741 -0.1902 0.4865
C42 C 0.6238(2) -0.2575(4) 0.4461(2)
H26 H 0.6509 -0.2631 0.4706
C43 C 0.5446(2) -0.2395(4) 0.3734(2)
H27 H 0.5178 -0.2325 0.3488
C44 C 0.5906(2) -0.2861(5) 0.3632(2)
H28 H 0.5946 -0.3112 0.3325
C45 C 0.0559(2) -0.2197(5) 0.3780(2)
H29 H 0.0328 -0.2223 0.3500
C46 C 0.1018(2) -0.1712(5) 0.3781(3)
H30 H 0.1090 -0.1382 0.3505
C47 C 0.64881(16) 0.2966(3) 0.40729(17)
C48 C 0.5888(2) 0.2092(5) 0.4499(2)
H31 H 0.5803 0.1813 0.4787
C49 C 0.6358(2) 0.2534(5) 0.4479(2)
H32 H 0.6593 0.2534 0.4755
C50 C 0.6152(2) 0.2904(5) 0.3661(2)
H33 H 0.6242 0.3162 0.3369
C51 C 0.5677(2) 0.2457(6) 0.3677(2)
H34 H 0.5445 0.2427 0.3399
C52 C 0.3464(3) -0.0205(4) 0.70806(18)
C53 C 0.3827(3) 0.0274(5) 0.68425(19)
H35 H 0.4097 0.0579 0.7020
N21 N 0.67712(13) -0.3384(3) 0.39233(16)
O13 O 0.72278(15) 0.3658(3) 0.44839(13)
C54 C 0.69926(17) 0.3494(3) 0.40937(18)
O14 O 0.34417(15) -0.7325(3) 0.4136(3)
C55 C 0.3442(3) -0.6841(5) 0.3817(3)
O15 O 0.3491(6) -0.7096(4) 0.3385(3)
C56 C -0.15451(19) 0.4077(3) 0.76834(15)
H36 H -0.1374 0.3557 0.7592
C57 C -0.1934(2) 0.5344(3) 0.76581(16)
H37 H -0.2086 0.5882 0.7546
N22 N -0.14957(13) 0.1997(2) 0.39133(13)
C58 C -0.11264(16) 0.2538(3) 0.41251(17)
H38 H -0.0801 0.2340 0.4257
C59 C -0.18913(17) 0.2552(3) 0.37650(17)
H39 H -0.2205 0.2369 0.3601
C60 C -0.1625(4) -0.0803(6) 0.3990(3)
C61 C -0.1731(5) 0.0658(6) 0.4296(3)
H40 H -0.1829 0.1034 0.4546
C62 C -0.1424(5) -0.0447(5) 0.3595(3)
H41 H -0.1307 -0.0830 0.3357
C63 C -0.1387(5) 0.0488(5) 0.3532(4)
H42 H -0.1284 0.0725 0.3240
N23 N -0.16646(15) 0.4244(2) 0.81267(12)
N24 N -0.19195(15) 0.5067(2) 0.81095(12)
C64 C -0.1821(4) -0.0255(5) 0.4334(3)
H43 H -0.2007 -0.0490 0.4584
O16 O -0.1803(2) -0.2116(3) 0.44206(18)
O17 O -0.1584(2) -0.2316(6) 0.3656(2)
C65 C 0.3260(2) -0.5526(4) 0.4379(3)
H44 H 0.3194 -0.5947 0.4619
C66 C 0.3462(3) -0.4351(4) 0.3653(3)
H45 H 0.3540 -0.3951 0.3406
C67 C 0.3404(3) -0.5808(5) 0.3926(3)
C68 C 0.3485(3) -0.5239(5) 0.3571(3)
H46 H 0.3559 -0.5452 0.3264
C69 C -0.1666(3) -0.1825(6) 0.4024(3)
C70 C -0.15020(17) 0.1039(2) 0.39019(16)
O18 O 0.71515(11) 0.3748(2) 0.36820(12)
C71 C 0.72540(16) -0.2983(3) 0.3920(2)
C72 C 0.68544(17) -0.4282(3) 0.3882(2)
Cu1_2 Cu 0.343079(17) -0.86277(3) 0.406955(18)
Cu1C Cu 0.343079(17) -0.13723(3) 0.906955(18)
Cu2_2 Cu 0.779004(16) -0.55257(3) 0.383058(17)
Cu2_3 Cu 0.779004(16) 0.44743(3) 0.383058(17)
Cu2C Cu -0.220996(16) 0.55257(3) 0.883058(17)
Cu3_2 Cu -0.161183(16) -0.35895(3) 0.387653(18)
Cu3_3 Cu 0.838817(16) -0.35895(3) 0.387653(18)
Cu3C Cu -0.161183(16) 0.35895(3) 0.887653(18)
Cu4_2 Cu -0.094056(16) -0.54454(3) 0.434606(15)
Cu5C Cu 0.403341(17) 0.05508(3) 0.912679(19)
N4_2 N -0.05812(11) 0.5761(2) 0.42857(11)
N5_2 N -0.23950(12) 0.6394(2) 0.38753(14)
N8_2 N -0.08423(12) 0.6454(2) 0.40492(13)
N9_2 N -0.26401(12) 0.5583(2) 0.38575(14)
N16C N 0.34367(15) 0.0697(2) 0.33573(13)
N18C N 0.36824(18) -0.0134(3) 0.33756(13)
O13_2 O -0.27722(15) 0.3658(3) 0.44839(13)
O14_2 O 0.34417(15) 0.2675(3) 0.4136(3)
N23C N -0.16646(15) 0.5756(2) 0.31267(12)
N24C N -0.19195(15) 0.4933(2) 0.31095(12)
O16_2 O -0.1803(2) 0.7884(3) 0.44206(18)
O17_2 O -0.1584(2) 0.7684(6) 0.3656(2)
O18_2 O -0.28485(11) 0.3748(2) 0.36820(12)
O19? O -0.1651(4) -0.2304(11) 0.3899(5)
C73? C -0.1492(6) -0.1817(11) 0.3591(6)
O20? O -0.1274(6) -0.2094(7) 0.3244(5)
C74? C -0.1496(5) -0.0817(3) 0.3758(5)
C75? C -0.1171(4) -0.0268(5) 0.3503(4)
H47? H -0.0952 -0.0521 0.3284
C76? C -0.1174(3) 0.0660(5) 0.3575(3)
H48? H -0.0957 0.1028 0.3404
C77? C -0.1827(3) 0.0489(5) 0.4157(3)
H49? H -0.2047 0.0742 0.4376
C78? C -0.1824(5) -0.0439(4) 0.4086(5)
H50? H -0.2042 -0.0807 0.4257
loop_
_geom_bond_atom_site_label_1
_geom_bond_atom_site_label_2
_geom_bond_site_symmetry_1
_geom_bond_site_symmetry_2
Cu1 N1 1_555 1_555
Cu2 O5 1_555 1_555
Cu3 O5 1_555 1_555
Cu4 O1 1_555 1_555
Cu5 O6 1_555 1_555
Cu6 N2 1_555 1_555
O1 C2 1_555 1_555
N1 N2 1_555 1_555
O2 Cu4 1_555 1_555
N2 C10 1_555 1_555
O3 C1 1_555 1_555
N3 C4 1_555 1_555
C1 O2 1_555 1_555
C2 C5 1_555 1_555
C3 C1 1_555 1_555
C4 C8 1_555 1_555
C5 C7 1_555 1_555
O4 Cu4 1_555 1_555
C6 N1 1_555 1_555
H1 C6 1_555 1_555
C7 H2 1_555 1_555
C8 C7 1_555 1_555
H3 C8 1_555 1_555
C9 C5 1_555 1_555
H4 C9 1_555 1_555
C10 N3 1_555 1_555
H5 C10 1_555 1_555
C11 C3 1_555 1_555
H6 C11 1_555 1_555
C12 C3 1_555 1_555
H7 C12 1_555 1_555
O5 Cu4 1_555 1_555
N4 N8 1_555 1_555
N5 N9 1_555 1_555
N6 Cu2 1_555 1_555
N7 Cu4 1_555 1_555
N8 C14 1_555 1_555
N9 C72 1_555 1_555
C13 N4 1_555 1_555
H8 C13 1_555 1_555
C14 H9 1_555 1_555
O6 Cu1 1_555 1_555
N10 Cu1 1_555 1_555
N11 Cu5 1_555 1_555
N12 Cu5 1_555 1_555
N13 Cu6 1_555 1_555
N14 C15 1_555 1_555
C15 N10 1_555 1_555
H10 C15 1_555 1_555
C16 N12 1_555 1_555
H11 C16 1_555 1_555
C17 N14 1_555 1_555
N15 C18 1_555 1_555
C18 N13 1_555 1_555
H12 C18 1_555 1_555
C19 N11 1_555 1_555
H13 C19 1_555 1_555
O7 Cu6 1_555 1_555
C20 C21 1_555 1_555
O8 C21 1_555 1_555
C21 O7 1_555 1_555
C22 C20 1_555 1_555
H14 C22 1_555 1_555
C23 C22 1_555 1_555
H15 C23 1_555 1_555
C24 C23 1_555 1_555
C25 N15 1_555 1_555
C26 C25 1_555 1_555
H16 C26 1_555 1_555
O9 Cu5 1_555 1_555
O10 Cu5 1_555 1_555
C27 C28 1_555 1_555
C28 O9 1_555 1_555
N16 N18 1_555 1_555
N17 C29 1_555 1_555
N18 C30 1_555 1_555
C29 N16 1_555 1_555
H17 C29 1_555 1_555
C30 N17 1_555 1_555
H18 C30 1_555 1_555
C31 C4 1_555 1_555
H19 C31 1_555 1_555
N19 C33 1_555 1_555
C32 C11 1_555 1_555
H20 C32 1_555 1_555
C33 C32 1_555 1_555
C34 C12 1_555 1_555
H21 C34 1_555 1_555
O11 Cu6 1_555 1_555
N20 C13 1_555 1_555
O12 C35 1_555 1_555
C35 O11 1_555 1_555
C36 C35 1_555 1_555
C37 C36 1_555 1_555
H22 C37 1_555 1_555
C38 C36 1_555 1_555
H23 C38 1_555 1_555
C39 C38 1_555 1_555
H24 C39 1_555 1_555
C40 C42 1_555 1_555
C41 C27 1_555 1_555
H25 C41 1_555 1_555
C42 C41 1_555 1_555
H26 C42 1_555 1_555
C43 C27 1_555 1_555
H27 C43 1_555 1_555
C44 C40 1_555 1_555
H28 C44 1_555 1_555
C45 C24 1_555 1_555
H29 C45 1_555 1_555
C46 C20 1_555 1_555
H30 C46 1_555 1_555
C47 C49 1_555 1_555
C48 C17 1_555 1_555
H31 C48 1_555 1_555
C49 C48 1_555 1_555
H32 C49 1_555 1_555
C50 C47 1_555 1_555
H33 C50 1_555 1_555
C51 C17 1_555 1_555
H34 C51 1_555 1_555
C52 N17 1_555 1_555
C53 C37 1_555 1_555
H35 C53 1_555 1_555
N21 C40 1_555 1_555
O13 C54 1_555 1_555
C54 C47 1_555 1_555
O14 C55 1_555 1_555
C55 O15 1_555 1_555
C56 N19 1_555 1_555
H36 C56 1_555 1_555
C57 N19 1_555 1_555
H37 C57 1_555 1_555
N22 C58 1_555 1_555
C58 N7 1_555 1_555
H38 C58 1_555 1_555
C59 N6 1_555 1_555
H39 C59 1_555 1_555
C60 C62 1_555 1_555
C61 H40 1_555 1_555
C62 H41 1_555 1_555
C63 C62 1_555 1_555
H42 C63 1_555 1_555
N23 C56 1_555 1_555
N24 C57 1_555 1_555
C64 C60 1_555 1_555
H43 C64 1_555 1_555
O16 C69 1_555 1_555
O17 C69 1_555 1_555
C65 C26 1_555 1_555
H44 C65 1_555 1_555
C66 C25 1_555 1_555
H45 C66 1_555 1_555
C67 C55 1_555 1_555
C68 C66 1_555 1_555
H46 C68 1_555 1_555
C69 C60 1_555 1_555
C70 N22 1_555 1_555
O18 C54 1_555 1_555
C71 N5 1_555 1_555
C72 N21 1_555 1_555
Cu1_2 O14 1_555 1_555
Cu1C N16 1_555 1_555
Cu2_2 N9 1_555 1_555
Cu2_3 O13 1_555 1_555
Cu2C N24 1_555 1_555
Cu3_2 N8 1_555 1_555
Cu3_3 N5 1_555 1_555
Cu3C N23 1_555 1_555
Cu4_2 N4 1_555 1_555
Cu5C N18 1_555 1_555
N4_2 Cu4 1_555 1_555
N5_2 Cu3 1_555 1_555
N8_2 Cu3 1_555 1_555
N9_2 Cu2 1_555 1_555
N16C Cu1 1_555 1_555
N18C Cu5 1_555 1_555
O13_2 Cu2 1_555 1_555
O14_2 Cu1 1_555 1_555
N23C Cu3 1_555 1_555
N24C Cu2 1_555 1_555
O16_2 Cu3 1_555 1_555
O17_2 Cu3 1_555 1_555
O18_2 Cu2 1_555 1_555
Cu6 O6 1_555 1_555
N3 C6 1_555 1_555
C2 O4 1_555 1_555
C9 C31 1_555 1_555
N6 N7 1_555 1_555
C14 N20 1_555 1_555
N10 N12 1_555 1_555
N11 N13 1_555 1_555
N14 C16 1_555 1_555
N15 C19 1_555 1_555
C24 N20 1_555 1_555
O10 C28 1_555 1_555
C33 C34 1_555 1_555
C39 C52 1_555 1_555
C43 C44 1_555 1_555
C45 C46 1_555 1_555
C50 C51 1_555 1_555
C52 C53 1_555 1_555
N21 C71 1_555 1_555
N22 C59 1_555 1_555
C61 C64 1_555 1_555
C61 C70 1_555 1_555
C63 C70 1_555 1_555
N23 N24 1_555 1_555
O16 Cu3_2 1_555 1_555
O17 Cu3_2 1_555 1_555
C65 C67 1_555 1_555
C67 C68 1_555 1_555
O18 Cu2_3 1_555 1_555
N4_2 N8_2 1_555 1_555
N5_2 N9_2 1_555 1_555
N16C N18C 1_555 1_555
N23C N24C 1_555 1_555

#END
