
#######################################################################
#
#                 Cambridge Crystallographic Data Centre
#                                CCDC 
#
#######################################################################
#
# If this CIF has been generated from an entry in the Cambridge 
# Structural Database, then it will include bibliographic, chemical, 
# crystal, experimental, refinement or atomic coordinate data resulting 
# from the CCDC's data processing and validation procedures.
#
#######################################################################

data_QUJLAK01
_chemical_formula_moiety         '(C72 H50 Cu6 N24 O18 2+)n,2n(N1 O3 1-)'
_chemical_name_systematic        
"catena-(tetrakis(\m~3~-4-(4H-1,2,4-Triazol-4-yl)benzoato-N,N',O,O')-tetrakis(\m~3~-4-(4H-1,2,4-triazol-4-yl)benzoato-N,N',O)-bis(\m~3~-hydroxo)-hexa-copper dinitrate)"
_symmetry_cell_setting           monoclinic
_symmetry_space_group_name_H-M   'P 2/c'
_symmetry_Int_Tables_number      13
_space_group_name_Hall           '-P 2yc'
loop_
_symmetry_equiv_pos_site_id
_symmetry_equiv_pos_as_xyz
1 x,y,z
2 -x,y,1/2-z
3 -x,-y,-z
4 x,-y,1/2+z
_cell_length_a                   25.5831(5)
_cell_length_b                   14.8084(3)
_cell_length_c                   27.2527(11)
_cell_angle_alpha                90
_cell_angle_beta                 94.656(3)
_cell_angle_gamma                90
_cell_volume                     10290.5
_exptl_crystal_colour            black
_exptl_crystal_description       block
_cell_formula_units_Z            4
_exptl_crystal_preparation       
'after heating to 393 K for 5 hours, followed by cooling to 150 K for 5 hours'
loop_
_atom_site_label
_atom_site_type_symbol
_atom_site_fract_x
_atom_site_fract_y
_atom_site_fract_z
H1 H 0.8542 1.3857 0.3356
H2 H 1.0252 0.9687 0.4285
H3 H 0.6519 0.2236 0.4864
H4 H 0.5296 0.2129 0.3515
H5 H 0.2695 0.5495 0.1670
H6 H 0.8607 1.5393 0.3204
H7 H 0.1595 0.4723 0.3833
H8 H 0.5722 0.2975 0.4879
H9 H 0.4208 0.7659 0.4255
H10 H 0.2799 0.7644 0.3592
H11 H 0.7368 0.7478 0.3812
H12 H 1.0832 0.8256 0.4795
H13 H 0.5171 0.4311 0.4540
H14 H 0.5571 0.6603 0.3402
H15 H 0.0156 0.2363 0.3482
H16 H 0.3821 1.0754 0.3309
H17 H 0.7620 1.2664 0.4424
H18 H 0.4173 0.4295 0.1048
H19 H 0.4050 0.4165 0.1884
H20 H 0.3905 0.9194 0.3299
H21 H 0.9518 0.7406 0.3998
H22 H 0.0748 0.1893 0.4857
H23 H 0.8183 0.8568 0.2776
H24 H 0.5503 0.6977 0.4836
H25 H 1.1218 0.6789 0.3366
H26 H 1.1638 0.7506 0.4746
H27 H 0.1508 0.2668 0.4696
H28 H 0.2308 0.2371 0.3957
H29 H 0.9026 1.2673 0.3929
H30 H 0.6275 0.7765 0.4871
H31 H 0.2934 0.5898 0.2539
H32 H 0.6337 0.7459 0.3423
H33 H 0.3598 0.3513 0.2595
H34 H 0.4395 0.2324 0.3855
H35 H 0.6695 0.9344 0.4580
H36 H 0.2821 0.5631 0.0842
H37 H 0.0935 0.3116 0.3319
H38 H 0.9083 1.0574 0.1185
H39 H 0.7806 0.9024 0.1143
H40 H 0.8198 1.5927 0.4567
H41 H 1.0413 0.7480 0.3425
H42 H 0.6075 0.1314 0.3520
H43 H 0.8133 1.4391 0.4719
H44 H 0.7835 0.9026 0.1975
H45 H 0.2995 1.0577 0.4499
H46 H 0.8918 1.0880 0.2833
H47 H 0.9121 1.0578 0.2024
H48 H 0.3079 0.9017 0.4488
C1 C 0.6871(2) 0.1174(4) 0.4174(3)
C2 C 0.6369(2) 0.1677(4) 0.4189(3)
C3 C 0.6270(2) 0.2195(4) 0.4597(3)
C4 C 0.5798(2) 0.2648(4) 0.4602(3)
C5 C 0.5447(2) 0.2615(4) 0.4205(3)
C6 C 0.5538(3) 0.2134(5) 0.3789(3)
C7 C 0.6007(3) 0.1657(6) 0.3794(3)
C8 C 0.4479(2) 0.2878(4) 0.4001(3)
C9 C 0.49062(19) 0.3969(3) 0.4377(2)
C10 C 0.3329(3) 1.1874(6) 0.4006(3)
C11 C 0.3400(3) 1.0820(2) 0.3905(3)
C12 C 0.3672(3) 1.0406(4) 0.3546(3)
C13 C 0.3723(3) 0.9471(4) 0.3539(2)
C14 C 0.3500(2) 0.8951(2) 0.3893(2)
C15 C 0.3228(2) 0.9365(4) 0.4252(2)
C16 C 0.3177(3) 1.0300(4) 0.4258(3)
C17 C 0.3882(2) 0.7462(3) 0.4119(2)
C18 C 0.3114(2) 0.7456(3) 0.3755(2)
C19 C -0.0096(2) 0.1509(4) 0.4300(3)
C20 C 0.0386(2) 0.2046(4) 0.4186(3)
C21 C 0.0431(3) 0.2415(5) 0.3726(3)
C22 C 0.0893(3) 0.2870(5) 0.3627(3)
C23 C 0.1276(2) 0.2935(4) 0.4000(3)
C24 C 0.1236(3) 0.2597(4) 0.4451(3)
C25 C 0.0781(3) 0.2137(4) 0.4547(3)
C26 C 0.2244(2) 0.2987(4) 0.3923(3)
C27 C 0.1854(2) 0.4281(4) 0.3859(3)
C28 C 1.2011(2) 0.6526(4) 0.4093(3)
C29 C 1.1497(2) 0.7037(4) 0.4076(2)
C30 C 1.1138(3) 0.7060(6) 0.3659(3)
C31 C 1.0665(3) 0.7493(6) 0.3690(3)
C32 C 1.0566(2) 0.7932(4) 0.4103(3)
C33 C 1.0909(3) 0.7954(6) 0.4511(3)
C34 C 1.1389(3) 0.7492(5) 0.4478(3)
C35 C 0.9987(2) 0.9262(4) 0.4224(3)
C36 C 0.9582(2) 0.8012(4) 0.4069(3)
C37 C 0.8385(3) 0.9885(4) 0.0505(3)
C38 C 0.8423(3) 0.9858(5) 0.1063(3)
C39 C 0.8065(4) 0.9355(6) 0.1321(3)
C40 C 0.8087(4) 0.9339(6) 0.1815(3)
C41 C 0.8482(4) 0.9788(5) 0.2081(3)
C42 C 0.8854(4) 1.0267(6) 0.1843(3)
C43 C 0.8824(4) 1.0276(6) 0.1343(3)
C44 C 0.8750(3) 1.0357(5) 0.2926(3)
C45 C 0.8349(3) 0.9092(4) 0.2894(3)
C46 C 0.4947(2) 0.6177(3) 0.4086(2)
C47 C 0.54550(19) 0.6719(3) 0.4118(2)
C48 C 0.5708(2) 0.6854(4) 0.3698(2)
C49 C 0.6169(3) 0.7362(4) 0.3708(3)
C50 C 0.6365(2) 0.7711(4) 0.4147(2)
C51 C 0.6127(2) 0.7549(4) 0.4571(2)
C52 C 0.5671(2) 0.7068(4) 0.4549(2)
C53 C 0.6940(2) 0.9022(4) 0.4416(3)
C54 C 0.7309(2) 0.7993(4) 0.3995(3)
C55 C 0.3553(2) 0.5009(4) 0.0313(2)
C56 C 0.3499(2) 0.4944(4) 0.0860(2)
C57 C 0.3872(3) 0.4529(5) 0.1170(3)
C58 C 0.3066(2) 0.5323(5) 0.1050(2)
C59 C 0.2992(3) 0.5253(5) 0.1544(2)
C60 C 0.3800(3) 0.4457(5) 0.1674(3)
C61 C 0.3375(2) 0.4807(5) 0.1851(2)
C62 C 0.3438(3) 0.4045(4) 0.2685(2)
C63 C 0.3071(3) 0.5347(4) 0.2653(2)
C64 C 0.8441(6) 1.6794(9) 0.3783(5)
C65 C 0.8409(4) 1.5812(4) 0.3871(4)
C66 C 0.8512(4) 1.5192(6) 0.3508(3)
C67 C 0.8473(6) 1.4272(5) 0.3599(4)
C68 C 0.8331(7) 1.3972(4) 0.4053(4)
C69 C 0.8228(5) 1.4592(6) 0.4416(3)
C70 C 0.8267(4) 1.5512(5) 0.4325(3)
C71 C 0.8720(2) 1.2487(4) 0.4060(3)
C72 C 0.7945(2) 1.2483(4) 0.4329(2)
N1 N 0.49665(17) 0.3136(3) 0.41986(19)
N2 N 0.44203(15) 0.4229(3) 0.42884(17)
N3 N 0.41544(16) 0.3536(3) 0.40516(18)
N4 N 0.35139(17) 0.8006(3) 0.39015(19)
N5 N 0.37277(16) 0.6626(3) 0.41166(18)
N6 N 0.32293(16) 0.6619(3) 0.38741(18)
N7 N 0.17642(18) 0.3394(3) 0.3913(2)
N8 N 0.23526(17) 0.4433(3) 0.3851(2)
N9 N 0.26008(17) 0.3610(3) 0.3877(2)
N10 N 1.00615(17) 0.8392(3) 0.4133(2)
N11 N 0.94820(18) 0.9432(3) 0.4215(2)
N12 N 0.92182(17) 0.8622(3) 0.41205(19)
N13 N 0.8321(2) 1.3045(3) 0.4158(2)
N14 N 0.81202(17) 1.1660(3) 0.43346(19)
N15 N 0.86188(17) 1.1668(3) 0.41735(19)
N16 N 0.68432(16) 0.8217(3) 0.41753(19)
N17 N 0.76571(18) 0.8611(3) 0.4119(2)
N18 N 0.74270(18) 0.9268(3) 0.4381(2)
N19 N 0.3299(2) 0.4729(3) 0.23674(19)
N20 N 0.30702(19) 0.5066(3) 0.31025(18)
N21 N 0.33222(19) 0.4223(3) 0.31234(18)
N22 N 0.8523(3) 0.9759(4) 0.2604(2)
N23 N 0.8708(2) 1.0122(3) 0.3380(2)
N24 N 0.8449(2) 0.9288(3) 0.3358(2)
O1 O 0.71479(15) 0.1066(3) 0.45798(18)
O2 O 0.7010(2) 0.0889(4) 0.3773(2)
O3 O 0.33865(12) 0.4818(2) 0.41619(13)
O4 O 0.3407(2) 1.2301(4) 0.3665(3)
O5 O 0.3203(3) 1.2117(4) 0.4436(3)
O6 O 1.22564(19) 0.6365(4) 0.44854(19)
O7 O 1.21492(14) 0.6254(2) 0.36766(15)
O8 O -0.01774(19) 0.1312(3) 0.4722(2)
O9 O -0.03843(16) 0.1255(3) 0.3927(2)
O10 O 0.84676(12) 0.9846(2) 0.43952(12)
O11 O 0.87823(18) 1.0179(3) 0.03144(17)
O12 O 0.79774(18) 0.9578(3) 0.02957(17)
O13 O 0.8512(6) 1.7101(6) 0.3367(4)
O14 O 0.8452(4) 1.7324(8) 0.4171(4)
O15 O 0.47821(17) 0.5850(3) 0.36916(16)
O16 O 0.47273(13) 0.6074(2) 0.44865(14)
O17 O 0.39600(14) 0.4662(2) 0.01467(14)
O18 O 0.31888(14) 0.5381(3) 0.00482(15)
Cu1 Cu 0.90346(2) 1.05385(4) 0.41286(3)
Cu2 Cu 0.78009(2) 1.04488(4) 0.45160(3)
Cu3 Cu 0.84327(2) 0.86204(4) 0.40650(3)
Cu4 Cu 0.40602(2) 0.54403(4) 0.43450(2)
Cu5 Cu 0.27889(2) 0.55280(4) 0.38210(3)
Cu6 Cu 0.33814(2) 0.35919(4) 0.38747(3)
O1_2 O 0.71479(15) 1.1066(3) 0.45798(18)
O4_2 O 0.3407(2) 0.2301(4) 0.3665(3)
O5_2 O 0.3203(3) 0.2117(4) 0.4436(3)
O6_2 O 0.22564(19) 0.6365(4) 0.44854(19)
O7_2 O 0.21492(14) 0.6254(2) 0.36766(15)
O8_2 O 0.98226(19) 1.1312(3) 0.4722(2)
O9_2 O 0.96157(16) 1.1255(3) 0.3927(2)
O12C O 0.79774(18) 1.0422(3) 0.52957(17)
O14_2 O 0.8452(4) 0.7324(8) 0.4171(4)
O17C O 0.39600(14) 0.5338(2) 0.51467(14)
Cu1_2 Cu -0.09654(2) 0.05385(4) 0.41286(3)
Cu2_2 Cu 0.78009(2) 0.04488(4) 0.45160(3)
Cu2C Cu 0.78009(2) 0.95512(4) -0.04840(3)
Cu3_2 Cu 0.84327(2) 1.86204(4) 0.40650(3)
Cu4C Cu 0.40602(2) 0.45597(4) -0.06550(2)
Cu5_2 Cu 1.27889(2) 0.55280(4) 0.38210(3)
Cu6_2 Cu 0.33814(2) 1.35919(4) 0.38747(3)
H49? H 0.8558 1.5756 0.3525
H50? H 0.8032 1.5701 0.4875
H51? H 0.8020 1.4135 0.4852
H52? H 0.8546 1.4190 0.3502
C73? C 0.8273(8) 1.6863(12) 0.4254(8)
C74? C 0.8296(5) 1.5884(5) 0.4202(6)
C75? C 0.8450(5) 1.5431(7) 0.3791(6)
C76? C 0.8443(7) 1.4493(7) 0.3777(5)
C77? C 0.8282(9) 1.4007(5) 0.4175(6)
C78? C 0.8128(7) 1.4460(7) 0.4586(5)
C79? C 0.8135(5) 1.5398(7) 0.4600(5)
O19? O 0.8427(5) 1.7307(10) 0.3895(6)
O20? O 0.8194(7) 1.7264(7) 0.4629(5)
loop_
_geom_bond_atom_site_label_1
_geom_bond_atom_site_label_2
_geom_bond_site_symmetry_1
_geom_bond_site_symmetry_2
H1 C67 1_555 1_555
H2 C35 1_555 1_555
H3 C3 1_555 1_555
H4 C6 1_555 1_555
H5 C59 1_555 1_555
H6 C66 1_555 1_555
H7 C27 1_555 1_555
H8 C4 1_555 1_555
H9 C17 1_555 1_555
H10 C18 1_555 1_555
H11 C54 1_555 1_555
H12 C33 1_555 1_555
H13 C9 1_555 1_555
H14 C48 1_555 1_555
H15 C21 1_555 1_555
H16 C12 1_555 1_555
H17 C72 1_555 1_555
H18 C57 1_555 1_555
H19 C60 1_555 1_555
H20 C13 1_555 1_555
H21 C36 1_555 1_555
H22 C25 1_555 1_555
H23 C45 1_555 1_555
H24 C52 1_555 1_555
H25 C30 1_555 1_555
H26 C34 1_555 1_555
H27 C24 1_555 1_555
H28 C26 1_555 1_555
H29 C71 1_555 1_555
H30 C51 1_555 1_555
H31 C63 1_555 1_555
H32 C49 1_555 1_555
H33 C62 1_555 1_555
H34 C8 1_555 1_555
H35 C53 1_555 1_555
H36 C58 1_555 1_555
H37 C22 1_555 1_555
H38 C43 1_555 1_555
H39 C39 1_555 1_555
H40 C70 1_555 1_555
H41 C31 1_555 1_555
H42 C7 1_555 1_555
H43 C69 1_555 1_555
H44 C40 1_555 1_555
H45 C16 1_555 1_555
H46 C44 1_555 1_555
H47 C42 1_555 1_555
H48 C15 1_555 1_555
C1 C2 1_555 1_555
C2 C3 1_555 1_555
C3 C4 1_555 1_555
C4 C5 1_555 1_555
C5 C6 1_555 1_555
C6 C7 1_555 1_555
C7 C2 1_555 1_555
C8 N1 1_555 1_555
C9 N1 1_555 1_555
C10 C11 1_555 1_555
C11 C12 1_555 1_555
C12 C13 1_555 1_555
C13 C14 1_555 1_555
C14 C15 1_555 1_555
C15 C16 1_555 1_555
C16 C11 1_555 1_555
C17 N4 1_555 1_555
C18 N4 1_555 1_555
C19 C20 1_555 1_555
C20 C21 1_555 1_555
C21 C22 1_555 1_555
C22 C23 1_555 1_555
C23 C24 1_555 1_555
C24 C25 1_555 1_555
C25 C20 1_555 1_555
C26 N7 1_555 1_555
C27 N7 1_555 1_555
C28 C29 1_555 1_555
C29 C30 1_555 1_555
C30 C31 1_555 1_555
C31 C32 1_555 1_555
C32 C33 1_555 1_555
C33 C34 1_555 1_555
C34 C29 1_555 1_555
C35 N10 1_555 1_555
C36 N10 1_555 1_555
C37 C38 1_555 1_555
C38 C39 1_555 1_555
C39 C40 1_555 1_555
C40 C41 1_555 1_555
C41 C42 1_555 1_555
C42 C43 1_555 1_555
C43 C38 1_555 1_555
C44 N22 1_555 1_555
C45 N22 1_555 1_555
C46 C47 1_555 1_555
C47 C48 1_555 1_555
C48 C49 1_555 1_555
C49 C50 1_555 1_555
C50 C51 1_555 1_555
C51 C52 1_555 1_555
C52 C47 1_555 1_555
C53 N16 1_555 1_555
C54 N16 1_555 1_555
C55 C56 1_555 1_555
C56 C57 1_555 1_555
C57 C60 1_555 1_555
C58 C56 1_555 1_555
C59 C58 1_555 1_555
C60 C61 1_555 1_555
C61 C59 1_555 1_555
C62 N19 1_555 1_555
C63 N19 1_555 1_555
C64 C65 1_555 1_555
C65 C66 1_555 1_555
C66 C67 1_555 1_555
C67 C68 1_555 1_555
C68 C69 1_555 1_555
C69 C70 1_555 1_555
C70 C65 1_555 1_555
C71 N13 1_555 1_555
C72 N13 1_555 1_555
N1 C5 1_555 1_555
N2 C9 1_555 1_555
N3 C8 1_555 1_555
N4 C14 1_555 1_555
N5 C17 1_555 1_555
N6 C18 1_555 1_555
N7 C23 1_555 1_555
N8 C27 1_555 1_555
N9 C26 1_555 1_555
N10 C32 1_555 1_555
N11 C35 1_555 1_555
N12 C36 1_555 1_555
N13 C68 1_555 1_555
N14 C72 1_555 1_555
N15 C71 1_555 1_555
N16 C50 1_555 1_555
N17 C54 1_555 1_555
N18 C53 1_555 1_555
N19 C61 1_555 1_555
N20 C63 1_555 1_555
N21 C62 1_555 1_555
N22 C41 1_555 1_555
N23 C44 1_555 1_555
N24 C45 1_555 1_555
O1 C1 1_555 1_555
O2 C1 1_555 1_555
O3 Cu4 1_555 1_555
O4 C10 1_555 1_555
O5 C10 1_555 1_555
O6 C28 1_555 1_555
O7 C28 1_555 1_555
O8 C19 1_555 1_555
O9 C19 1_555 1_555
O10 Cu1 1_555 1_555
O11 C37 1_555 1_555
O12 C37 1_555 1_555
O13 C64 1_555 1_555
O14 C64 1_555 1_555
O15 C46 1_555 1_555
O16 C46 1_555 1_555
O17 C55 1_555 1_555
O18 C55 1_555 1_555
Cu1 N11 1_555 1_555
Cu2 N14 1_555 1_555
Cu3 N12 1_555 1_555
Cu4 N2 1_555 1_555
Cu5 N6 1_555 1_555
Cu6 N3 1_555 1_555
O1_2 Cu2 1_555 1_555
O4_2 Cu6 1_555 1_555
O5_2 Cu6 1_555 1_555
O6_2 Cu5 1_555 1_555
O7_2 Cu5 1_555 1_555
O8_2 Cu1 1_555 1_555
O9_2 Cu1 1_555 1_555
O12C Cu2 1_555 1_555
O14_2 Cu3 1_555 1_555
O17C Cu4 1_555 1_555
Cu1_2 O8 1_555 1_555
Cu2_2 O1 1_555 1_555
Cu2C O12 1_555 1_555
Cu3_2 O14 1_555 1_555
Cu4C O17 1_555 1_555
Cu5_2 O6 1_555 1_555
Cu6_2 O4 1_555 1_555
N2 N3 1_555 1_555
N5 N6 1_555 1_555
N5 Cu4 1_555 1_555
N8 N9 1_555 1_555
N8 Cu5 1_555 1_555
N9 Cu6 1_555 1_555
N11 N12 1_555 1_555
N14 N15 1_555 1_555
N15 Cu1 1_555 1_555
N17 N18 1_555 1_555
N17 Cu3 1_555 1_555
N18 Cu2 1_555 1_555
N20 N21 1_555 1_555
N20 Cu5 1_555 1_555
N21 Cu6 1_555 1_555
N23 N24 1_555 1_555
N23 Cu1 1_555 1_555
N24 Cu3 1_555 1_555
O3 Cu5 1_555 1_555
O3 Cu6 1_555 1_555
O5 Cu6_2 1_555 1_555
O7 Cu5_2 1_555 1_555
O9 Cu1_2 1_555 1_555
O10 Cu2 1_555 1_555
O10 Cu3 1_555 1_555
O15 Cu4 1_555 1_555
O16 Cu4 1_555 1_555

#END
