
#######################################################################
#
#                 Cambridge Crystallographic Data Centre
#                                CCDC 
#
#######################################################################
#
# If this CIF has been generated from an entry in the Cambridge 
# Structural Database, then it will include bibliographic, chemical, 
# crystal, experimental, refinement or atomic coordinate data resulting 
# from the CCDC's data processing and validation procedures.
#
#######################################################################

data_ZESQIZ01
_chemical_formula_moiety         '(C54 H34 O20 Zn3)n'
_chemical_name_systematic        
"catena-[(\m~6~-4,4',4''-[benzene-1,3,5-triyltris(oxy)]tribenzoato)-diaqua-tri-zinc(ii) unknown solvate]"
_symmetry_cell_setting           trigonal
_symmetry_space_group_name_H-M   'P -3 1 c'
_symmetry_Int_Tables_number      163
_space_group_name_Hall           '-P 3 2c'
loop_
_symmetry_equiv_pos_site_id
_symmetry_equiv_pos_as_xyz
1 x,y,z
2 -y,x-y,z
3 -x+y,-x,z
4 -y,-x,1/2-z
5 -x+y,y,1/2-z
6 x,x-y,1/2-z
7 -x,-y,-z
8 y,-x+y,-z
9 x-y,x,-z
10 y,x,1/2+z
11 x-y,-y,1/2+z
12 -x,-x+y,1/2+z
_cell_length_a                   16.7421(2)
_cell_length_b                   16.7421(2)
_cell_length_c                   14.3737(3)
_cell_angle_alpha                90
_cell_angle_beta                 90
_cell_angle_gamma                120
_cell_volume                     3489.15
_exptl_crystal_colour            colorless
_exptl_crystal_description       rod
_cell_formula_units_Z            2
loop_
_atom_site_label
_atom_site_type_symbol
_atom_site_fract_x
_atom_site_fract_y
_atom_site_fract_z
Zn1 Zn 0.6667 0.3333 0.2500
Zn2 Zn 0.6667 0.3333 0.49684(5)
O1 O 0.6667 0.3333 0.6344(6)
O2 O 0.6628(2) 0.4366(2) 0.3266(2)
O3 O 0.7146(2) 0.4615(2) 0.4738(2)
C1 C 0.7008(3) 0.4892(3) 0.3932(4)
C2 C 0.7316(3) 0.5892(3) 0.3854(3)
C3 C 0.7158(3) 0.6217(3) 0.3051(3)
H1 H 0.6848 0.5802 0.2553
C4 C 0.7446(3) 0.7156(3) 0.2944(3)
H2 H 0.7340 0.7383 0.2379
C5 C 0.7890(3) 0.7746(3) 0.3689(3)
C6 C 0.8046(3) 0.7407(3) 0.4532(3)
H3 H 0.8345 0.7805 0.5044
C7 C 0.7748(3) 0.6490(3) 0.4578(3)
H4 H 0.7845 0.6251 0.5140
O4 O 0.8160(2) 0.8663(2) 0.35886(18)
C8 C 0.9096(3) 0.9307(3) 0.3648(2)
C9 C 0.9774(3) 0.9077(3) 0.3654(2)
H5 H 0.9624 0.8449 0.3662
O2A O 1.5634(2) 1.2262(3) 0.3266(2)
O3A O 1.5385(2) 1.2531(3) 0.4738(2)
C1A C 1.5108(3) 1.2116(4) 0.3932(4)
C2A C 1.4108(3) 1.1424(4) 0.3854(3)
C3A C 1.3783(3) 1.0941(4) 0.3051(3)
H1A H 1.4198 1.1046 0.2553
C4A C 1.2844(3) 1.0290(4) 0.2944(3)
H2A H 1.2617 0.9957 0.2379
C5A C 1.2254(3) 1.0144(4) 0.3689(3)
C6A C 1.2593(3) 1.0639(4) 0.4532(3)
H3A H 1.2195 1.0540 0.5044
C7A C 1.3510(3) 1.1258(4) 0.4578(3)
H4A H 1.3749 1.1594 0.5140
O4A O 1.1337(2) 0.9497(3) 0.35886(18)
C8A C 1.0693(3) 0.9789(4) 0.3648(2)
C9A C 1.0923(3) 1.0697(4) 0.3654(2)
H5A H 1.1551 1.1175 0.3662
O2B O 0.7738(3) 1.3372(2) 0.3266(2)
O3B O 0.7469(3) 1.2854(2) 0.4738(2)
C1B C 0.7884(4) 1.2992(3) 0.3932(4)
C2B C 0.8576(4) 1.2684(3) 0.3854(3)
C3B C 0.9059(4) 1.2842(3) 0.3051(3)
H1B H 0.8954 1.3152 0.2553
C4B C 0.9710(4) 1.2554(3) 0.2944(3)
H2B H 1.0043 1.2660 0.2379
C5B C 0.9856(4) 1.2110(3) 0.3689(3)
C6B C 0.9361(4) 1.1954(3) 0.4532(3)
H3B H 0.9460 1.1655 0.5044
C7B C 0.8742(4) 1.2252(3) 0.4578(3)
H4B H 0.8406 1.2155 0.5140
O4B O 1.0503(3) 1.1840(2) 0.35886(18)
C8B C 1.0211(4) 1.0904(3) 0.3648(2)
C9B C 0.9303(4) 1.0226(3) 0.3654(2)
H5B H 0.8825 1.0376 0.3662
O2A_2 O 0.5634(2) 0.2262(3) 0.3266(2)
O3A_2 O 0.5385(2) 0.2531(3) 0.4738(2)
C1A_2 C 0.5108(3) 0.2116(4) 0.3932(4)
C2A_2 C 0.4108(3) 0.1424(4) 0.3854(3)
C3A_2 C 0.3783(3) 0.0941(4) 0.3051(3)
H1A_2 H 0.4198 0.1046 0.2553
C4A_2 C 0.2844(3) 0.0290(4) 0.2944(3)
H2A_2 H 0.2617 -0.0043 0.2379
C5A_2 C 0.2254(3) 0.0144(4) 0.3689(3)
C6A_2 C 0.2593(3) 0.0639(4) 0.4532(3)
H3A_2 H 0.2195 0.0540 0.5044
C7A_2 C 0.3510(3) 0.1258(4) 0.4578(3)
H4A_2 H 0.3749 0.1594 0.5140
O4A_2 O 0.1337(2) -0.0503(3) 0.35886(18)
C8A_2 C 0.0693(3) -0.0211(4) 0.3648(2)
C9A_2 C 0.0923(3) 0.0697(4) 0.3654(2)
H5A_2 H 0.1551 0.1175 0.3662
O2B_2 O -0.2262(3) 0.3372(2) 0.3266(2)
O3B_2 O -0.2531(3) 0.2854(2) 0.4738(2)
C1B_2 C -0.2116(4) 0.2992(3) 0.3932(4)
C2B_2 C -0.1424(4) 0.2684(3) 0.3854(3)
C3B_2 C -0.0941(4) 0.2842(3) 0.3051(3)
H1B_2 H -0.1046 0.3152 0.2553
C4B_2 C -0.0290(4) 0.2554(3) 0.2944(3)
H2B_2 H 0.0043 0.2660 0.2379
C5B_2 C -0.0144(4) 0.2110(3) 0.3689(3)
C6B_2 C -0.0639(4) 0.1954(3) 0.4532(3)
H3B_2 H -0.0540 0.1655 0.5044
C7B_2 C -0.1258(4) 0.2252(3) 0.4578(3)
H4B_2 H -0.1594 0.2155 0.5140
O4B_2 O 0.0503(3) 0.1840(2) 0.35886(18)
C8B_2 C 0.0211(4) 0.0904(3) 0.3648(2)
C9B_2 C -0.0697(4) 0.0226(3) 0.3654(2)
H5B_2 H -0.1175 0.0376 0.3662
O2_2 O -0.3372(2) -0.5634(2) 0.3266(2)
O3_2 O -0.2854(2) -0.5385(2) 0.4738(2)
C1_2 C -0.2992(3) -0.5108(3) 0.3932(4)
C2_2 C -0.2684(3) -0.4108(3) 0.3854(3)
C3_2 C -0.2842(3) -0.3783(3) 0.3051(3)
H1_2 H -0.3152 -0.4198 0.2553
C4_2 C -0.2554(3) -0.2844(3) 0.2944(3)
H2_2 H -0.2660 -0.2617 0.2379
C5_2 C -0.2110(3) -0.2254(3) 0.3689(3)
C6_2 C -0.1954(3) -0.2593(3) 0.4532(3)
H3_2 H -0.1655 -0.2195 0.5044
C7_2 C -0.2252(3) -0.3510(3) 0.4578(3)
H4_2 H -0.2155 -0.3749 0.5140
O4_2 O -0.1840(2) -0.1337(2) 0.35886(18)
C8_2 C -0.0904(3) -0.0693(3) 0.3648(2)
C9_2 C -0.0226(3) -0.0923(3) 0.3654(2)
H5_2 H -0.0376 -0.1551 0.3662
Zn2_2 Zn 1.6667 1.3333 0.49684(5)
O1_2 O 1.6667 1.3333 0.6344(6)
Zn1_2 Zn -0.3333 -0.6667 0.2500
Zn1_3 Zn -0.3333 0.3333 0.2500
Zn1_4 Zn 0.6667 1.3333 0.2500
Zn1_5 Zn 1.6667 1.3333 0.2500
Zn2_3 Zn -0.3333 -0.6667 0.49684(5)
Zn2_4 Zn -0.3333 0.3333 0.49684(5)
Zn2_5 Zn 0.6667 1.3333 0.49684(5)
O2B_3 O 0.7738(3) 0.3372(2) 0.3266(2)
O2C O 0.5634(2) 0.3372(2) 0.1734(2)
O2D O 0.7738(3) 0.4366(2) 0.1734(2)
O2E O 0.6628(2) 0.2262(3) 0.1734(2)
O3_3 O 1.7146(2) 1.4615(2) 0.4738(2)
O3B_3 O 0.7469(3) 0.2854(2) 0.4738(2)
O3B_4 O 1.7469(3) 1.2854(2) 0.4738(2)
loop_
_geom_bond_atom_site_label_1
_geom_bond_atom_site_label_2
_geom_bond_site_symmetry_1
_geom_bond_site_symmetry_2
Zn1 O2 1_555 1_555
Zn2 O1 1_555 1_555
O2 C1 1_555 1_555
O3 Zn2 1_555 1_555
C1 O3 1_555 1_555
C2 C1 1_555 1_555
C3 C2 1_555 1_555
H1 C3 1_555 1_555
C4 C3 1_555 1_555
H2 C4 1_555 1_555
C5 C4 1_555 1_555
C6 C5 1_555 1_555
H3 C6 1_555 1_555
C7 C2 1_555 1_555
H4 C7 1_555 1_555
O4 C5 1_555 1_555
C8 O4 1_555 1_555
C9 C8 1_555 1_555
H5 C9 1_555 1_555
O2A C1A 1_555 1_555
O3A C1A 1_555 1_555
C1A C2A 1_555 1_555
C2A C3A 1_555 1_555
C3A H1A 1_555 1_555
C4A C3A 1_555 1_555
H2A C4A 1_555 1_555
C5A C4A 1_555 1_555
C6A C5A 1_555 1_555
H3A C6A 1_555 1_555
C7A C2A 1_555 1_555
H4A C7A 1_555 1_555
O4A C5A 1_555 1_555
C8A C9 1_555 1_555
C9A C8A 1_555 1_555
H5A C9A 1_555 1_555
O2B C1B 1_555 1_555
O3B C1B 1_555 1_555
C1B C2B 1_555 1_555
C2B C3B 1_555 1_555
C3B H1B 1_555 1_555
C4B C3B 1_555 1_555
H2B C4B 1_555 1_555
C5B C4B 1_555 1_555
C6B C5B 1_555 1_555
H3B C6B 1_555 1_555
C7B C2B 1_555 1_555
H4B C7B 1_555 1_555
O4B C5B 1_555 1_555
C8B C9A 1_555 1_555
C9B C8 1_555 1_555
H5B C9B 1_555 1_555
O2A_2 Zn1 1_555 1_555
O3A_2 Zn2 1_555 1_555
C1A_2 O2A_2 1_555 1_555
C2A_2 C1A_2 1_555 1_555
C3A_2 C2A_2 1_555 1_555
H1A_2 C3A_2 1_555 1_555
C4A_2 C3A_2 1_555 1_555
H2A_2 C4A_2 1_555 1_555
C5A_2 C4A_2 1_555 1_555
C6A_2 C5A_2 1_555 1_555
H3A_2 C6A_2 1_555 1_555
C7A_2 C2A_2 1_555 1_555
H4A_2 C7A_2 1_555 1_555
O4A_2 C5A_2 1_555 1_555
C8A_2 O4A_2 1_555 1_555
C9A_2 C8A_2 1_555 1_555
H5A_2 C9A_2 1_555 1_555
O2B_2 C1B_2 1_555 1_555
O3B_2 C1B_2 1_555 1_555
C1B_2 C2B_2 1_555 1_555
C2B_2 C3B_2 1_555 1_555
C3B_2 H1B_2 1_555 1_555
C4B_2 C3B_2 1_555 1_555
H2B_2 C4B_2 1_555 1_555
C5B_2 C4B_2 1_555 1_555
C6B_2 C5B_2 1_555 1_555
H3B_2 C6B_2 1_555 1_555
C7B_2 C2B_2 1_555 1_555
H4B_2 C7B_2 1_555 1_555
O4B_2 C5B_2 1_555 1_555
C8B_2 C9A_2 1_555 1_555
C9B_2 C8B_2 1_555 1_555
H5B_2 C9B_2 1_555 1_555
O2_2 C1_2 1_555 1_555
O3_2 C1_2 1_555 1_555
C1_2 C2_2 1_555 1_555
C2_2 C3_2 1_555 1_555
C3_2 H1_2 1_555 1_555
C4_2 C3_2 1_555 1_555
H2_2 C4_2 1_555 1_555
C5_2 C4_2 1_555 1_555
C6_2 C5_2 1_555 1_555
H3_2 C6_2 1_555 1_555
C7_2 C2_2 1_555 1_555
H4_2 C7_2 1_555 1_555
O4_2 C5_2 1_555 1_555
C8_2 C9B_2 1_555 1_555
C9_2 C8A_2 1_555 1_555
H5_2 C9_2 1_555 1_555
Zn2_2 O3A 1_555 1_555
O1_2 Zn2_2 1_555 1_555
Zn1_2 O2_2 1_555 1_555
Zn1_3 O2B_2 1_555 1_555
Zn1_4 O2B 1_555 1_555
Zn1_5 O2A 1_555 1_555
Zn2_3 O3_2 1_555 1_555
Zn2_4 O3B_2 1_555 1_555
Zn2_5 O3B 1_555 1_555
O2B_3 Zn1 1_555 1_555
O2C Zn1 1_555 1_555
O2D Zn1 1_555 1_555
O2E Zn1 1_555 1_555
O3_3 Zn2_2 1_555 1_555
O3B_3 Zn2 1_555 1_555
O3B_4 Zn2_2 1_555 1_555
C6 C7 1_555 1_555
C6A C7A 1_555 1_555
O4A C8A 1_555 1_555
C6B C7B 1_555 1_555
O4B C8B 1_555 1_555
C8B C9B 1_555 1_555
O3A_2 C1A_2 1_555 1_555
C6A_2 C7A_2 1_555 1_555
C6B_2 C7B_2 1_555 1_555
O4B_2 C8B_2 1_555 1_555
C6_2 C7_2 1_555 1_555
O4_2 C8_2 1_555 1_555
C8_2 C9_2 1_555 1_555

#END
