
#######################################################################
#
#                 Cambridge Crystallographic Data Centre
#                                CCDC 
#
#######################################################################
#
# If this CIF has been generated from an entry in the Cambridge 
# Structural Database, then it will include bibliographic, chemical, 
# crystal, experimental, refinement or atomic coordinate data resulting 
# from the CCDC's data processing and validation procedures.
#
#######################################################################

data_VOFXOF
_chemical_name_common            MONT-5
_chemical_formula_moiety         '(C12 H12 Ag2 N8 O6)n,n(C5 H9 N1 O1)'
_chemical_name_systematic        
"catena-[(\m~4~-4,4'-(1,4-Phenylenebis(methylene))bis(4H-1,2,4-triazole))-bis(\m~2~-nitrato-O,O')-di-silver(i) N-methyl-2-pyrrolidone solvate]"
_symmetry_cell_setting           monoclinic
_symmetry_space_group_name_H-M   'C 2/c'
_symmetry_Int_Tables_number      15
_space_group_name_Hall           '-C 2yc'
loop_
_symmetry_equiv_pos_site_id
_symmetry_equiv_pos_as_xyz
1 x,y,z
2 -x,y,1/2-z
3 1/2+x,1/2+y,z
4 1/2-x,1/2+y,1/2-z
5 -x,-y,-z
6 x,-y,1/2+z
7 1/2-x,1/2-y,-z
8 1/2+x,1/2-y,1/2+z
_cell_length_a                   21.823(18)
_cell_length_b                   14.573(12)
_cell_length_c                   7.503(6)
_cell_angle_alpha                90
_cell_angle_beta                 107.950(9)
_cell_angle_gamma                90
_cell_volume                     2270.01
_exptl_crystal_colour            colorless
_exptl_crystal_description       needle
_cell_formula_units_Z            4
loop_
_atom_site_label
_atom_site_type_symbol
_atom_site_fract_x
_atom_site_fract_y
_atom_site_fract_z
Ag1 Ag 0.20846(5) 1.00354(6) 0.19250(14)
N1 N 0.1931(6) 0.8769(7) 0.3314(13)
O1 O 0.3562(5) 0.8173(6) 0.1164(11)
O2 O 0.3205(5) 0.9454(6) 0.2010(13)
N2 N 0.3118(6) 0.8778(7) 0.0858(14)
N3 N 0.1637(5) 0.7398(7) 0.3883(13)
O3 O 0.2622(5) 0.8724(7) -0.0396(13)
C1 C 0.0319(7) 0.6364(9) 0.1155(18)
H1 H 0.0521 0.6368 0.0229
C2 C 0.1766(6) 0.7951(9) 0.2612(15)
H2 H 0.1741 0.7777 0.1400
C3 C 0.0685(6) 0.6374(8) 0.3024(17)
C4 C -0.0356(7) 0.6348(9) 0.0652(16)
H3 H -0.0593 0.6318 -0.0611
C5 C 0.1394(7) 0.6412(8) 0.3596(18)
H4 H 0.1544 0.6124 0.2642
H5 H 0.1570 0.6072 0.4753
N4 N 0.1905(5) 0.8739(7) 0.5112(14)
C6 C 0.1723(6) 0.7919(9) 0.5445(17)
H6 H 0.1664 0.7725 0.6561
N1A N -0.1931(6) 0.8769(7) 0.1686(13)
N3A N -0.1637(5) 0.7398(7) 0.1117(13)
C1A C -0.0319(7) 0.6364(9) 0.3845(18)
H1A H -0.0521 0.6368 0.4771
C2A C -0.1766(6) 0.7951(9) 0.2388(15)
H2A H -0.1741 0.7777 0.3600
C3A C -0.0685(6) 0.6374(8) 0.1976(17)
C4A C 0.0356(7) 0.6348(9) 0.4348(16)
H3A H 0.0593 0.6318 0.5611
C5A C -0.1394(7) 0.6412(8) 0.1404(18)
H4A H -0.1544 0.6124 0.2358
H5A H -0.1570 0.6072 0.0247
N4A N -0.1905(5) 0.8739(7) -0.0112(14)
C6A C -0.1723(6) 0.7919(9) -0.0445(17)
H6A H -0.1664 0.7725 -0.1561
Ag1A Ag -0.20846(5) 1.00354(6) 0.30750(14)
O1A O -0.3562(5) 0.8173(6) 0.3836(11)
O2A O -0.3205(5) 0.9454(6) 0.2990(13)
N2A N -0.3118(6) 0.8778(7) 0.4142(14)
O3A O -0.2622(5) 0.8724(7) 0.5396(13)
Ag1D Ag -0.20846(5) 0.99646(6) -0.19250(14)
Ag1D_2 Ag -0.20846(5) 0.99646(6) 0.80750(14)
Ag1E Ag 0.20846(5) 0.99646(6) -0.30750(14)
Ag1E_2 Ag 0.20846(5) 0.99646(6) 0.69250(14)
O3D O -0.2622(5) 1.1276(7) 0.0396(13)
O3E O 0.2622(5) 1.1276(7) 0.4604(13)
N4D N -0.1905(5) 1.1261(7) 0.4888(14)
N4E N 0.1905(5) 1.1261(7) 0.0112(14)
loop_
_geom_bond_atom_site_label_1
_geom_bond_atom_site_label_2
_geom_bond_site_symmetry_1
_geom_bond_site_symmetry_2
Ag1 N1 1_555 1_555
N1 C2 1_555 1_555
O1 N2 1_555 1_555
O2 Ag1 1_555 1_555
N2 O2 1_555 1_555
N3 C2 1_555 1_555
O3 N2 1_555 1_555
C1 H1 1_555 1_555
C2 H2 1_555 1_555
C3 C1 1_555 1_555
C4 C1 1_555 1_555
H3 C4 1_555 1_555
C5 N3 1_555 1_555
H4 C5 1_555 1_555
H5 C5 1_555 1_555
N4 N1 1_555 1_555
C6 N3 1_555 1_555
H6 C6 1_555 1_555
N1A C2A 1_555 1_555
N3A C2A 1_555 1_555
C1A H1A 1_555 1_555
C2A H2A 1_555 1_555
C3A C4 1_555 1_555
C4A C3 1_555 1_555
H3A C4A 1_555 1_555
C5A N3A 1_555 1_555
H4A C5A 1_555 1_555
H5A C5A 1_555 1_555
N4A N1A 1_555 1_555
C6A N3A 1_555 1_555
H6A C6A 1_555 1_555
Ag1A N1A 1_555 1_555
O1A N2A 1_555 1_555
O2A Ag1A 1_555 1_555
N2A O2A 1_555 1_555
O3A N2A 1_555 1_555
Ag1D N4A 1_555 1_555
Ag1D_2 O3A 1_555 1_555
Ag1E O3 1_555 1_555
Ag1E_2 N4 1_555 1_555
O3D Ag1A 1_555 1_555
O3E Ag1 1_555 1_555
N4D Ag1A 1_555 1_555
N4E Ag1 1_555 1_555
C3 C5 1_555 1_555
N4 C6 1_555 1_555
C1A C3A 1_555 1_555
C1A C4A 1_555 1_555
C3A C5A 1_555 1_555
N4A C6A 1_555 1_555

#END
