
#######################################################################
#
#                 Cambridge Crystallographic Data Centre
#                                CCDC 
#
#######################################################################
#
# If this CIF has been generated from an entry in the Cambridge 
# Structural Database, then it will include bibliographic, chemical, 
# crystal, experimental, refinement or atomic coordinate data resulting 
# from the CCDC's data processing and validation procedures.
#
#######################################################################

data_VOFXEV
_chemical_name_common            MONT-3
_chemical_formula_moiety         '(C12 H12 Br2 Cu2 N6)n,n(C3 H7 N1 O1)'
_chemical_name_systematic        
"catena-[(\m~4~-4,4'-(1,4-Phenylenebis(methylene))bis(4H-1,2,4-triazole))-bis(\m~2~-bromo)-di-copper(i) N,N-dimethylformamide solvate]"
_symmetry_cell_setting           orthorhombic
_symmetry_space_group_name_H-M   'I m m a'
_symmetry_Int_Tables_number      74
_space_group_name_Hall           '-I 2b 2'
loop_
_symmetry_equiv_pos_site_id
_symmetry_equiv_pos_as_xyz
1 x,y,z
2 -x,1/2-y,z
3 -x,1/2+y,-z
4 x,-y,-z
5 1/2+x,1/2+y,1/2+z
6 1/2-x,-y,1/2+z
7 1/2-x,y,1/2-z
8 1/2+x,1/2-y,1/2-z
9 -x,-y,-z
10 x,1/2+y,-z
11 x,1/2-y,z
12 -x,y,z
13 1/2-x,1/2-y,1/2-z
14 1/2+x,y,1/2-z
15 1/2+x,-y,1/2+z
16 1/2-x,1/2+y,1/2+z
_cell_length_a                   20.611(7)
_cell_length_b                   7.029(2)
_cell_length_c                   13.620(5)
_cell_angle_alpha                90
_cell_angle_beta                 90
_cell_angle_gamma                90
_cell_volume                     1973.19
_exptl_crystal_colour            colorless
_exptl_crystal_description       needle
_cell_formula_units_Z            4
loop_
_atom_site_label
_atom_site_type_symbol
_atom_site_fract_x
_atom_site_fract_y
_atom_site_fract_z
N3 N 0.5000 0.2500 0.5190(6)
C5 C 0.5000 0.2500 0.4112(7)
C6 C 0.4404(3) 0.2500 0.5704(6)
O1 O 0.4334(4) 0.2500 0.6555(7)
C6A C 0.5596(3) 0.2500 0.5704(6)
O1A O 0.5666(4) 0.2500 0.6555(7)
Br1 Br 0.20814(3) 0.2500 0.59683(5)
Cu1 Cu 0.27550(4) 0.0000 0.5000
N1 N 0.30796(17) 0.1511(5) 0.3885(3)
N2 N 0.3364(2) 0.2500 0.2427(4)
C1 C 0.3248(2) 0.0969(6) 0.2998(3)
H1 H 0.3283 -0.0290 0.2793
C2 C 0.3592(3) 0.2500 0.1399(4)
H2 H 0.3426 0.3617 0.1064
C3 C 0.4325(3) 0.2500 0.1352(4)
C4 C 0.4666(2) 0.4196(7) 0.1348(3)
H3 H 0.4442 0.5345 0.1345
N1J N 0.30796(17) 0.3489(5) 0.3885(3)
C1J C 0.3248(2) 0.4031(6) 0.2998(3)
H1J H 0.3283 0.5290 0.2793
H2J H 0.3426 0.1383 0.1064
C4J C 0.4666(2) 0.0804(7) 0.1348(3)
H3J H 0.4442 -0.0345 0.1345
N1K N 0.69204(17) 0.1511(5) 0.3885(3)
N2A N 0.6636(2) 0.2500 0.2427(4)
C1K C 0.6752(2) 0.0969(6) 0.2998(3)
H1K H 0.6717 -0.0290 0.2793
C2A C 0.6408(3) 0.2500 0.1399(4)
H2K H 0.6574 0.3617 0.1064
C3A C 0.5675(3) 0.2500 0.1352(4)
C4K C 0.5334(2) 0.4196(7) 0.1348(3)
H3K H 0.5558 0.5345 0.1345
N1A N 0.69204(17) 0.3489(5) 0.3885(3)
C1A C 0.6752(2) 0.4031(6) 0.2998(3)
H1A H 0.6717 0.5290 0.2793
H2A H 0.6574 0.1383 0.1064
C4A C 0.5334(2) 0.0804(7) 0.1348(3)
H3A H 0.5558 -0.0345 0.1345
Br1A Br 0.79186(3) 0.2500 0.59683(5)
Cu1H Cu 0.72450(4) 0.0000 0.5000
Br1B Br 0.79186(3) -0.2500 0.40317(5)
Br1C Br 0.20814(3) -0.2500 0.40317(5)
Cu1A Cu 0.72450(4) 0.5000 0.5000
Cu1I Cu 0.27550(4) 0.5000 0.5000
N1C N 0.30796(17) -0.1511(5) 0.6115(3)
N1H N 0.69204(17) -0.1511(5) 0.6115(3)
H4? H 0.3426 0.3617 0.1064
loop_
_geom_bond_atom_site_label_1
_geom_bond_atom_site_label_2
_geom_bond_site_symmetry_1
_geom_bond_site_symmetry_2
Br1 Cu1 1_555 1_555
Cu1 N1 1_555 1_555
N1 C1 1_555 1_555
N2 C1 1_555 1_555
C1 H1 1_555 1_555
C2 N2 1_555 1_555
H2 C2 1_555 1_555
C3 C2 1_555 1_555
C4 C3 1_555 1_555
H3 C4 1_555 1_555
N3 C5 1_555 1_555
C6 N3 1_555 1_555
O1 C6 1_555 1_555
N1J N1 1_555 1_555
C1J N2 1_555 1_555
H1J C1J 1_555 1_555
H2J C2 1_555 1_555
C4J C3 1_555 1_555
H3J C4J 1_555 1_555
N1K C1K 1_555 1_555
N2A C1K 1_555 1_555
C1K H1K 1_555 1_555
C2A N2A 1_555 1_555
H2K C2A 1_555 1_555
C3A C2A 1_555 1_555
C4K C4 1_555 1_555
H3K C4K 1_555 1_555
N1A N1K 1_555 1_555
C1A N2A 1_555 1_555
H1A C1A 1_555 1_555
H2A C2A 1_555 1_555
C4A C4J 1_555 1_555
H3A C4A 1_555 1_555
Br1A Cu1H 1_555 1_555
Cu1H N1K 1_555 1_555
Br1B Cu1H 1_555 1_555
Br1C Cu1 1_555 1_555
Cu1A N1A 1_555 1_555
Cu1I Br1 1_555 1_555
N1C Cu1 1_555 1_555
N1H Cu1H 1_555 1_555
C6A N3 1_555 1_555
O1A C6A 1_555 1_555
N1J C1J 1_555 1_555
N1J Cu1I 1_555 1_555
C3A C4K 1_555 1_555
C3A C4A 1_555 1_555
N1A C1A 1_555 1_555
Br1A Cu1A 1_555 1_555

#END
