
#######################################################################
#
#                 Cambridge Crystallographic Data Centre
#                                CCDC 
#
#######################################################################
#
# If this CIF has been generated from an entry in the Cambridge 
# Structural Database, then it will include bibliographic, chemical, 
# crystal, experimental, refinement or atomic coordinate data resulting 
# from the CCDC's data processing and validation procedures.
#
#######################################################################

data_YUSJIG01
_chemical_formula_moiety         
'(C19 H14 N2 O5 Zn1)n,0.5n(C3 H7 N1 O1),0.5n(C1 H4 O1)'
_chemical_name_systematic        
"catena((\m~3~-5-methoxyisophthalato)-(\m~2~-4,4'-bipyridyl)-zinc hemidimethylformamide hemimethanol clathrate)"
_symmetry_cell_setting           triclinic
_symmetry_space_group_name_H-M   'P -1'
_symmetry_Int_Tables_number      2
_space_group_name_Hall           '-P 1'
loop_
_symmetry_equiv_pos_site_id
_symmetry_equiv_pos_as_xyz
1 x,y,z
2 -x,-y,-z
_cell_length_a                   10.105(11)
_cell_length_b                   10.496(9)
_cell_length_c                   10.583(9)
_cell_angle_alpha                65.36(5)
_cell_angle_beta                 76.28(5)
_cell_angle_gamma                76.56(5)
_cell_volume                     979.738
_exptl_crystal_colour            colorless
_exptl_crystal_description       plate
_cell_formula_units_Z            2
loop_
_atom_site_label
_atom_site_type_symbol
_atom_site_fract_x
_atom_site_fract_y
_atom_site_fract_z
Zn1 Zn 0.38727(8) 0.42346(10) 0.41606(9)
N1 N 0.3959(7) 0.6127(7) 0.2293(6)
O1 O 0.1729(5) 0.4316(7) 0.4215(7)
N2 N 0.3928(7) 1.2323(7) -0.3945(8)
C1 C 0.3968(8) 0.9855(9) -0.1517(9)
C2 C 0.3978(9) 0.8556(9) -0.0195(9)
C3 C 0.4738(10) 1.1150(10) -0.3956(9)
C4 C 0.4708(10) 0.6116(10) 0.1072(9)
C5 C 0.4758(12) 0.9891(11) -0.2789(10)
C6 C 0.4730(10) 0.7297(10) -0.0198(9)
C7 C 0.3276(13) 0.7413(12) 0.2251(10)
C8 C 0.3258(13) 0.8617(11) 0.1041(10)
C9 C 0.3179(16) 1.2325(12) -0.2743(13)
C10 C 0.3143(16) 1.1129(13) -0.1540(14)
O2 O -0.4116(5) 0.3568(7) 0.3480(6)
O3 O -0.3401(5) 0.4545(7) 0.4629(6)
C11 C -0.3185(7) 0.3905(8) 0.3848(8)
C12 C 0.070(2) 0.281(2) 0.365(2)
C13 C -0.172(2) 0.306(2) 0.370(2)
C14 C -0.156(2) 0.185(3) 0.337(3)
C15 C -0.064(2) 0.353(2) 0.393(2)
C16 C 0.1962(19) 0.331(2) 0.375(2)
O4 O 0.3115(12) 0.2877(15) 0.3274(14)
O5 O 0.024(3) -0.008(3) 0.279(3)
C17 C -0.018(3) 0.118(3) 0.314(3)
C18 C 0.093(3) 0.163(3) 0.331(3)
C19 C -0.099(4) -0.047(4) 0.266(4)
Zn1_2 Zn 0.38727(8) 1.42346(10) -0.58394(9)
Zn1_3 Zn -0.61273(8) 0.42346(10) 0.41606(9)
Zn1A Zn -0.38727(8) 0.57654(10) 0.58394(9)
N2_2 N 0.3928(7) 0.2323(7) 0.6055(8)
O2_2 O 0.5884(5) 0.3568(7) 0.3480(6)
O3A O 0.3401(5) 0.5455(7) 0.5371(6)
O6? O 0.3129(10) 0.3404(13) 0.2757(12)
C20? C -0.0618(12) 0.3930(15) 0.3472(15)
C21? C 0.1959(12) 0.3852(15) 0.3243(14)
C22? C 0.0713(11) 0.3664(13) 0.2785(12)
C23? C 0.0939(13) 0.3294(15) 0.1642(14)
C24? C -0.1744(11) 0.3751(13) 0.3024(12)
C25? C -0.1542(14) 0.3370(15) 0.1870(14)
C26? C -0.0199(14) 0.3168(16) 0.1175(15)
N3? N 0.0093(16) 0.2789(17) 0.0020(17)
O7? O -0.098(2) 0.272(3) -0.052(2)
O8? O 0.085(4) 0.302(4) -0.074(4)
loop_
_geom_bond_atom_site_label_1
_geom_bond_atom_site_label_2
_geom_bond_site_symmetry_1
_geom_bond_site_symmetry_2
Zn1 N1 1_555 1_555
N1 C4 1_555 1_555
O1 Zn1 1_555 1_555
N2 C3 1_555 1_555
C1 C2 1_555 1_555
C2 C6 1_555 1_555
C3 C5 1_555 1_555
C4 C6 1_555 1_555
C5 C1 1_555 1_555
C7 N1 1_555 1_555
C8 C2 1_555 1_555
C9 N2 1_555 1_555
C10 C1 1_555 1_555
O2 C11 1_555 1_555
O3 C11 1_555 1_555
C11 C13 1_555 1_555
C12 C15 1_555 1_555
C13 C14 1_555 1_555
C14 C17 1_555 1_555
C15 C13 1_555 1_555
C16 O1 1_555 1_555
O4 Zn1 1_555 1_555
O5 C17 1_555 1_555
C17 C18 1_555 1_555
C18 C12 1_555 1_555
C19 O5 1_555 1_555
Zn1_2 N2 1_555 1_555
Zn1_3 O2 1_555 1_555
Zn1A O3 1_555 1_555
N2_2 Zn1 1_555 1_555
O2_2 Zn1 1_555 1_555
O3A Zn1 1_555 1_555
C7 C8 1_555 1_555
C9 C10 1_555 1_555
C12 C16 1_555 1_555
C16 O4 1_555 1_555

#END
