
#######################################################################
#
#                 Cambridge Crystallographic Data Centre
#                                CCDC 
#
#######################################################################
#
# If this CIF has been generated from an entry in the Cambridge 
# Structural Database, then it will include bibliographic, chemical, 
# crystal, experimental, refinement or atomic coordinate data resulting 
# from the CCDC's data processing and validation procedures.
#
#######################################################################

data_YUSJAY
_chemical_formula_moiety         
'(C18 H11 N3 O6 Zn1)n,0.5n(C3 H7 N1 O1),0.5n(C1 H4 O1)'
_chemical_name_systematic        
"catena((\m~3~-5-nitroisophthalato)-(\m~2~-4,4'-bipyridyl)-zinc hemidimethylformamide hemimethanol clathrate)"
_symmetry_cell_setting           triclinic
_symmetry_space_group_name_H-M   'P -1'
_symmetry_Int_Tables_number      2
_space_group_name_Hall           '-P 1'
loop_
_symmetry_equiv_pos_site_id
_symmetry_equiv_pos_as_xyz
1 x,y,z
2 -x,-y,-z
_cell_length_a                   10.1128(3)
_cell_length_b                   10.34970(10)
_cell_length_c                   10.73030(10)
_cell_angle_alpha                65.201(15)
_cell_angle_beta                 77.284(19)
_cell_angle_gamma                79.334(18)
_cell_volume                     989.039
_exptl_crystal_colour            colorless
_exptl_crystal_description       plate
_cell_formula_units_Z            2
loop_
_atom_site_label
_atom_site_type_symbol
_atom_site_fract_x
_atom_site_fract_y
_atom_site_fract_z
Zn1 Zn 0.88439(3) 0.43202(3) -0.09186(3)
O1 O 1.0820(2) 0.3765(3) -0.1612(2)
O2 O 1.1636(2) 0.4449(3) -0.0250(2)
C1 C 1.1775(3) 0.4032(3) -0.1205(3)
C2 C 1.3186(3) 0.3793(3) -0.1941(3)
C3 C 1.4333(3) 0.3945(3) -0.1515(3)
H1 H 1.4231 0.4220 -0.0765
C4 C 1.5638(3) 0.3688(3) -0.2200(3)
C5 C 1.5791(3) 0.3340(4) -0.3333(4)
H2 H 1.6663 0.3180 -0.3809
C6 C 1.4638(4) 0.3230(4) -0.3757(4)
C7 C 1.3338(3) 0.3432(4) -0.3073(4)
H3 H 1.2572 0.3326 -0.3370
N1 N 1.4784(4) 0.2903(5) -0.4980(4)
O3 O 1.3793(4) 0.2729(7) -0.5304(5)
O4 O 1.5905(3) 0.2910(4) -0.5681(4)
C8 C 1.6893(3) 0.3802(3) -0.1718(3)
O5 O 1.6743(2) 0.4357(3) -0.0855(3)
O6 O 1.8029(2) 0.3357(3) -0.2204(3)
N2 N 0.8901(3) 0.2360(3) 0.0888(3)
C9 C 0.9652(10) 0.1182(9) 0.0903(10)
H4 H 1.0171 0.1186 0.0060
C10 C 0.9734(10) -0.0097(10) 0.2105(9)
H5 H 1.0282 -0.0920 0.2057
C11 C 0.8986(4) -0.0106(4) 0.3353(3)
C12 C 0.8290(8) 0.1187(8) 0.3370(8)
H6 H 0.7866 0.1247 0.4219
C13 C 0.8225(8) 0.2379(8) 0.2137(8)
H7 H 0.7703 0.3224 0.2157
C14 C 0.9034(4) -0.1374(3) 0.4675(3)
C15 C 0.9712(4) -0.2675(4) 0.4741(3)
H8 H 1.0196 -0.2779 0.3928
C16 C 0.9678(4) -0.3830(4) 0.6007(3)
H9 H 1.0156 -0.4708 0.6031
N3 N 0.8997(3) -0.3761(3) 0.7203(3)
C17 C 0.8349(4) -0.2505(4) 0.7144(4)
H10 H 0.7873 -0.2431 0.7973
C18 C 0.8342(5) -0.1302(4) 0.5921(4)
H11 H 0.7869 -0.0433 0.5930
Zn1A Zn 1.11561(3) 0.56798(3) 0.09186(3)
Zn1_2 Zn 1.88439(3) 0.43202(3) -0.09186(3)
Zn1_3 Zn 0.88439(3) -0.56798(3) 0.90814(3)
O2A O 0.8364(2) 0.5551(3) 0.0250(2)
O5_2 O 0.6743(2) 0.4357(3) -0.0855(3)
O6_2 O 0.8029(2) 0.3357(3) -0.2204(3)
N3_2 N 0.8997(3) 0.6239(3) -0.2797(3)
C19? C 0.9947(8) 0.1287(8) 0.0998(8)
C20? C 1.0010(8) 0.0056(8) 0.2186(8)
C21? C 0.7883(7) 0.0932(7) 0.3148(7)
C22? C 0.7876(7) 0.2129(7) 0.1919(7)
H12? H 0.7125 0.0819 0.3857
H13? H 0.7105 0.2807 0.1817
H14? H 1.0648 0.1395 0.0234
H15? H 1.0731 -0.0670 0.2219
loop_
_geom_bond_atom_site_label_1
_geom_bond_atom_site_label_2
_geom_bond_site_symmetry_1
_geom_bond_site_symmetry_2
Zn1 O1 1_555 1_555
O1 C1 1_555 1_555
O2 C1 1_555 1_555
C1 C2 1_555 1_555
C2 C3 1_555 1_555
C3 H1 1_555 1_555
C4 C3 1_555 1_555
C5 C4 1_555 1_555
H2 C5 1_555 1_555
C6 C5 1_555 1_555
C7 C2 1_555 1_555
H3 C7 1_555 1_555
N1 C6 1_555 1_555
O3 N1 1_555 1_555
O4 N1 1_555 1_555
C8 C4 1_555 1_555
O5 C8 1_555 1_555
O6 C8 1_555 1_555
N2 Zn1 1_555 1_555
C9 N2 1_555 1_555
H4 C9 1_555 1_555
C10 C9 1_555 1_555
H5 C10 1_555 1_555
C11 C10 1_555 1_555
C12 C11 1_555 1_555
H6 C12 1_555 1_555
C13 N2 1_555 1_555
H7 C13 1_555 1_555
C14 C11 1_555 1_555
C15 C14 1_555 1_555
H8 C15 1_555 1_555
C16 C15 1_555 1_555
H9 C16 1_555 1_555
N3 C16 1_555 1_555
C17 N3 1_555 1_555
H10 C17 1_555 1_555
C18 C14 1_555 1_555
H11 C18 1_555 1_555
Zn1A O2 1_555 1_555
Zn1_2 O5 1_555 1_555
Zn1_3 N3 1_555 1_555
O2A Zn1 1_555 1_555
O5_2 Zn1 1_555 1_555
O6_2 Zn1 1_555 1_555
N3_2 Zn1 1_555 1_555
C6 C7 1_555 1_555
O6 Zn1_2 1_555 1_555
C12 C13 1_555 1_555
C17 C18 1_555 1_555

#END
