
#######################################################################
#
#                 Cambridge Crystallographic Data Centre
#                                CCDC 
#
#######################################################################
#
# If this CIF has been generated from an entry in the Cambridge 
# Structural Database, then it will include bibliographic, chemical, 
# crystal, experimental, refinement or atomic coordinate data resulting 
# from the CCDC's data processing and validation procedures.
#
#######################################################################

data_QEVNOV
_chemical_formula_moiety         '(C32 H24 N2 O8 Rh2)n,3n(O2 S1)'
_chemical_name_systematic        
"catena-(tetrakis(\m~2~-Benzoato-O,O')-(\m~2~-pyrazine-N,N')-di-rhodium(ii) tris(sulfur dioxide) clathrate)"
_symmetry_cell_setting           triclinic
_symmetry_space_group_name_H-M   'P -1'
_symmetry_Int_Tables_number      2
_space_group_name_Hall           '-P 1'
loop_
_symmetry_equiv_pos_site_id
_symmetry_equiv_pos_as_xyz
1 x,y,z
2 -x,-y,-z
_cell_length_a                   9.5786(15)
_cell_length_b                   10.467(2)
_cell_length_c                   10.8121(18)
_cell_angle_alpha                85.965(4)
_cell_angle_beta                 65.131(3)
_cell_angle_gamma                62.971(3)
_cell_volume                     866.24
_exptl_crystal_colour            red
_exptl_crystal_description       plate
_cell_formula_units_Z            1
loop_
_atom_site_label
_atom_site_type_symbol
_atom_site_fract_x
_atom_site_fract_y
_atom_site_fract_z
C1 C -0.1764(7) 0.6364(6) 1.2520(6)
C2 C -0.2778(7) 0.7161(6) 1.3969(6)
C3 C -0.4575(7) 0.7902(7) 1.4543(6)
H1 H -0.5165 0.7943 1.4009
C4 C -0.5516(8) 0.8584(8) 1.5896(6)
H2 H -0.6753 0.9085 1.6294
C5 C -0.4665(8) 0.8536(8) 1.6660(6)
H3 H -0.5317 0.9015 1.7585
C6 C -0.2878(8) 0.7804(8) 1.6104(7)
H4 H -0.2296 0.7762 1.6645
C7 C -0.1925(8) 0.7125(7) 1.4741(6)
H5 H -0.0688 0.6635 1.4342
C8 C 0.0819(6) 0.2472(5) 1.0811(5)
C9 C 0.1355(6) 0.0957(5) 1.1164(5)
C10 C 0.0299(7) 0.0313(6) 1.1385(6)
H6 H -0.0766 0.0827 1.1308
C11 C 0.0797(7) -0.1072(5) 1.1715(6)
H7 H 0.0077 -0.1514 1.1860
C12 C 0.2340(7) -0.1823(6) 1.1835(6)
H8 H 0.2664 -0.2770 1.2080
C13 C 0.3410(7) -0.1204(6) 1.1602(6)
H9 H 0.4481 -0.1732 1.1667
C14 C 0.2917(6) 0.0197(5) 1.1272(6)
H10 H 0.3645 0.0632 1.1119
C15 C -0.4439(6) 0.4401(5) 1.0938(6)
H11 H -0.4067 0.3964 1.1618
C16 C -0.5819(6) 0.4351(6) 1.0890(6)
H12 H -0.6385 0.3881 1.1538
N1 N -0.3609(5) 0.5047(5) 1.0054(5)
O1 O -0.2598(4) 0.6107(4) 1.2001(4)
O2 O -0.0152(5) 0.6005(4) 1.1934(4)
O3 O -0.0594(5) 0.3091(4) 1.0700(4)
O4 O 0.1847(5) 0.2988(4) 1.0626(4)
Rh1 Rh -0.12882(5) 0.50459(4) 1.00368(5)
C1A C 0.1764(7) 0.3636(6) 0.7480(6)
C2A C 0.2778(7) 0.2839(6) 0.6031(6)
C3A C 0.4575(7) 0.2098(7) 0.5457(6)
H1A H 0.5165 0.2057 0.5991
C4A C 0.5516(8) 0.1416(8) 0.4104(6)
H2A H 0.6753 0.0915 0.3706
C5A C 0.4665(8) 0.1464(8) 0.3340(6)
H3A H 0.5317 0.0985 0.2415
C6A C 0.2878(8) 0.2196(8) 0.3896(7)
H4A H 0.2296 0.2238 0.3355
C7A C 0.1925(8) 0.2875(7) 0.5259(6)
H5A H 0.0688 0.3365 0.5658
C8A C -0.0819(6) 0.7528(5) 0.9189(5)
C9A C -0.1355(6) 0.9043(5) 0.8836(5)
C10A C -0.0299(7) 0.9687(6) 0.8615(6)
H6A H 0.0766 0.9173 0.8692
C11A C -0.0797(7) 1.1072(5) 0.8285(6)
H7A H -0.0077 1.1514 0.8140
C12A C -0.2340(7) 1.1823(6) 0.8165(6)
H8A H -0.2664 1.2770 0.7920
C13A C -0.3410(7) 1.1204(6) 0.8398(6)
H9A H -0.4481 1.1732 0.8333
C14A C -0.2917(6) 0.9803(5) 0.8728(6)
H10A H -0.3645 0.9368 0.8881
C15A C -0.5561(6) 0.5599(5) 0.9062(6)
H11A H -0.5933 0.6036 0.8382
C16A C -0.4181(6) 0.5649(6) 0.9110(6)
H12A H -0.3615 0.6119 0.8462
N1A N -0.6391(5) 0.4953(5) 0.9946(5)
O1A O 0.2598(4) 0.3893(4) 0.7999(4)
O1A_2 O -0.7402(4) 0.3893(4) 0.7999(4)
O2A O 0.0152(5) 0.3995(4) 0.8066(4)
O2_2 O -1.0152(5) 0.6005(4) 1.1934(4)
O3A O 0.0594(5) 0.6909(4) 0.9300(4)
O3A_2 O -0.9406(5) 0.6909(4) 0.9300(4)
O4A O -0.1847(5) 0.7012(4) 0.9374(4)
O4_2 O -0.8153(5) 0.2988(4) 1.0626(4)
Rh1A Rh -0.87118(5) 0.49541(4) 0.99632(5)
Rh1A_2 Rh 0.12882(5) 0.49541(4) 0.99632(5)
Rh1_2 Rh -1.12882(5) 0.50459(4) 1.00368(5)
O5 O 0.0890(6) 0.6439(7) 0.6112(7)
O6 O 0.3667(9) 0.5625(7) 0.4215(5)
S1 S 0.2614(3) 0.6109(3) 0.5602(2)
O7? O 0.8650(8) 0.0886(7) 0.4849(6)
S2? S 0.9777(6) -0.0385(5) 0.5094(4)
loop_
_geom_bond_atom_site_label_1
_geom_bond_atom_site_label_2
_geom_bond_site_symmetry_1
_geom_bond_site_symmetry_2
C1 C2 1_555 1_555
C2 C3 1_555 1_555
C3 H1 1_555 1_555
C4 C3 1_555 1_555
H2 C4 1_555 1_555
C5 C4 1_555 1_555
H3 C5 1_555 1_555
C6 C5 1_555 1_555
H4 C6 1_555 1_555
C7 C2 1_555 1_555
H5 C7 1_555 1_555
C8 C9 1_555 1_555
C9 C10 1_555 1_555
C10 H6 1_555 1_555
C11 C10 1_555 1_555
H7 C11 1_555 1_555
C12 C11 1_555 1_555
H8 C12 1_555 1_555
C13 C12 1_555 1_555
H9 C13 1_555 1_555
C14 C9 1_555 1_555
H10 C14 1_555 1_555
C15 H11 1_555 1_555
C16 C15 1_555 1_555
H12 C16 1_555 1_555
N1 C15 1_555 1_555
O1 C1 1_555 1_555
O2 C1 1_555 1_555
O3 C8 1_555 1_555
O4 C8 1_555 1_555
O5 S1 1_555 1_555
O6 S1 1_555 1_555
Rh1 N1 1_555 1_555
C1A C2A 1_555 1_555
C2A C3A 1_555 1_555
C3A H1A 1_555 1_555
C4A C3A 1_555 1_555
H2A C4A 1_555 1_555
C5A C4A 1_555 1_555
H3A C5A 1_555 1_555
C6A C5A 1_555 1_555
H4A C6A 1_555 1_555
C7A C2A 1_555 1_555
H5A C7A 1_555 1_555
C8A C9A 1_555 1_555
C9A C10A 1_555 1_555
C10A H6A 1_555 1_555
C11A C10A 1_555 1_555
H7A C11A 1_555 1_555
C12A C11A 1_555 1_555
H8A C12A 1_555 1_555
C13A C12A 1_555 1_555
H9A C13A 1_555 1_555
C14A C9A 1_555 1_555
H10A C14A 1_555 1_555
C15A H11A 1_555 1_555
C16A N1 1_555 1_555
H12A C16A 1_555 1_555
N1A C16 1_555 1_555
O1A C1A 1_555 1_555
O1A_2 Rh1A 1_555 1_555
O2A Rh1 1_555 1_555
O2_2 Rh1A 1_555 1_555
O3A C8A 1_555 1_555
O3A_2 Rh1A 1_555 1_555
O4A Rh1 1_555 1_555
O4_2 Rh1A 1_555 1_555
Rh1A N1A 1_555 1_555
Rh1A_2 O2 1_555 1_555
Rh1_2 Rh1A 1_555 1_555
C6 C7 1_555 1_555
C13 C14 1_555 1_555
O1 Rh1 1_555 1_555
O3 Rh1 1_555 1_555
O4 Rh1A_2 1_555 1_555
Rh1 Rh1A_2 1_555 1_555
C1A O2A 1_555 1_555
C6A C7A 1_555 1_555
C8A O4A 1_555 1_555
C13A C14A 1_555 1_555
C15A C16A 1_555 1_555
C15A N1A 1_555 1_555
O1A Rh1A_2 1_555 1_555
O3A Rh1A_2 1_555 1_555

#END
