
#######################################################################
#
#                 Cambridge Crystallographic Data Centre
#                                CCDC 
#
#######################################################################
#
# If this CIF has been generated from an entry in the Cambridge 
# Structural Database, then it will include bibliographic, chemical, 
# crystal, experimental, refinement or atomic coordinate data resulting 
# from the CCDC's data processing and validation procedures.
#
#######################################################################

data_UGONEL
_chemical_formula_moiety         '(C48 H28 Co3 N6 O20)n'
_chemical_name_systematic        
"catena-[tetrakis(\m-4,4',4''-(1,3,5-triazine-2,4,6-triyltris(oxy))tribenzoato)-diaqua-tri-cobalt unknown solvate]"
_symmetry_cell_setting           trigonal
_symmetry_space_group_name_H-M   'P -3 1 c'
_symmetry_Int_Tables_number      163
_space_group_name_Hall           '-P 3 2c'
loop_
_symmetry_equiv_pos_site_id
_symmetry_equiv_pos_as_xyz
1 x,y,z
2 -y,x-y,z
3 -x+y,-x,z
4 -y,-x,1/2-z
5 -x+y,y,1/2-z
6 x,x-y,1/2-z
7 -x,-y,-z
8 y,-x+y,-z
9 x-y,x,-z
10 y,x,1/2+z
11 x-y,-y,1/2+z
12 -x,-x+y,1/2+z
_cell_length_a                   16.483(4)
_cell_length_b                   16.483(4)
_cell_length_c                   14.203(3)
_cell_angle_alpha                90
_cell_angle_beta                 90
_cell_angle_gamma                120
_cell_volume                     3341.82
_exptl_crystal_colour            red
_exptl_crystal_description       needle
_cell_formula_units_Z            2
loop_
_atom_site_label
_atom_site_type_symbol
_atom_site_fract_x
_atom_site_fract_y
_atom_site_fract_z
Co1 Co 0.6667 0.3333 0.2500
Co2 Co 0.6667 0.3333 0.50303(12)
O1 O 0.5592(4) 0.2266(4) 0.3242(5)
O2 O 0.5395(4) 0.2385(4) 0.4796(6)
C1 C 0.2207(4) 0.0118(4) 0.3724(5)
C2 C 0.3694(5) 0.0953(5) 0.3023(6)
H1 H 0.4081 0.1100 0.2499
C3 C 0.2556(5) 0.0471(5) 0.4594(5)
H2 H 0.2168 0.0296 0.5119
C4 C 0.2750(5) 0.0347(6) 0.2932(5)
H3 H 0.2486 0.0099 0.2349
C5 C 0.3508(4) 0.1099(5) 0.4671(5)
H4 H 0.3764 0.1354 0.5255
C6 C 0.4077(4) 0.1347(4) 0.3890(6)
O3 O 0.1243(3) -0.0537(3) 0.3646(3)
C7 C 0.0638(4) -0.0239(4) 0.3676(4)
N1 N -0.0266(3) -0.0947(3) 0.3676(4)
C8 C 0.5100(5) 0.2048(5) 0.3984(8)
O4 O 0.6667 0.3333 0.6382(7)
O1A O -0.2266(4) 0.3326(6) 0.3242(5)
O2A O -0.2385(4) 0.3010(6) 0.4796(6)
C1A C -0.0118(4) 0.2089(6) 0.3724(5)
C2A C -0.0953(5) 0.2741(7) 0.3023(6)
H1A H -0.1100 0.2981 0.2499
C3A C -0.0471(5) 0.2085(7) 0.4594(5)
H2A H -0.0296 0.1872 0.5119
C4A C -0.0347(6) 0.2403(8) 0.2932(5)
H3A H -0.0099 0.2387 0.2349
C5A C -0.1099(5) 0.2409(6) 0.4671(5)
H4A H -0.1354 0.2410 0.5255
C6A C -0.1347(4) 0.2730(6) 0.3890(6)
O3A O 0.0537(3) 0.1780(4) 0.3646(3)
C7A C 0.0239(4) 0.0877(6) 0.3676(4)
N1A N 0.0947(3) 0.0681(4) 0.3676(4)
C8A C -0.2048(5) 0.3052(7) 0.3984(8)
O1B O -0.3326(6) -0.5592(4) 0.3242(5)
O2B O -0.3010(6) -0.5395(4) 0.4796(6)
C1B C -0.2089(6) -0.2207(4) 0.3724(5)
C2B C -0.2741(7) -0.3694(5) 0.3023(6)
H1B H -0.2981 -0.4081 0.2499
C3B C -0.2085(7) -0.2556(5) 0.4594(5)
H2B H -0.1872 -0.2168 0.5119
C4B C -0.2403(8) -0.2750(5) 0.2932(5)
H3B H -0.2387 -0.2486 0.2349
C5B C -0.2409(6) -0.3508(4) 0.4671(5)
H4B H -0.2410 -0.3764 0.5255
C6B C -0.2730(6) -0.4077(4) 0.3890(6)
O3B O -0.1780(4) -0.1243(3) 0.3646(3)
C7B C -0.0877(6) -0.0638(4) 0.3676(4)
N1B N -0.0681(4) 0.0266(3) 0.3676(4)
C8B C -0.3052(7) -0.5100(5) 0.3984(8)
Co2_2 Co -0.3333 -0.6667 0.50303(12)
O1A_2 O -0.2266(4) -0.6674(6) 0.3242(5)
O2A_2 O -0.2385(4) -0.6990(6) 0.4796(6)
C1A_2 C -0.0118(4) -0.7911(6) 0.3724(5)
C2A_2 C -0.0953(5) -0.7259(7) 0.3023(6)
H1A_2 H -0.1100 -0.7019 0.2499
C3A_2 C -0.0471(5) -0.7915(7) 0.4594(5)
H2A_2 H -0.0296 -0.8128 0.5119
C4A_2 C -0.0347(6) -0.7597(8) 0.2932(5)
H3A_2 H -0.0099 -0.7613 0.2349
C5A_2 C -0.1099(5) -0.7591(6) 0.4671(5)
H4A_2 H -0.1354 -0.7590 0.5255
C6A_2 C -0.1347(4) -0.7270(6) 0.3890(6)
O3A_2 O 0.0537(3) -0.8220(4) 0.3646(3)
C7A_2 C 0.0239(4) -0.9123(6) 0.3676(4)
N1A_2 N 0.0947(3) -0.9319(4) 0.3676(4)
C8A_2 C -0.2048(5) -0.6948(7) 0.3984(8)
O4_2 O -0.3333 -0.6667 0.6382(7)
O1B_2 O -0.3326(6) -1.5592(4) 0.3242(5)
O2B_2 O -0.3010(6) -1.5395(4) 0.4796(6)
C1B_2 C -0.2089(6) -1.2207(4) 0.3724(5)
C2B_2 C -0.2741(7) -1.3694(5) 0.3023(6)
H1B_2 H -0.2981 -1.4081 0.2499
C3B_2 C -0.2085(7) -1.2556(5) 0.4594(5)
H2B_2 H -0.1872 -1.2168 0.5119
C4B_2 C -0.2403(8) -1.2750(5) 0.2932(5)
H3B_2 H -0.2387 -1.2486 0.2349
C5B_2 C -0.2409(6) -1.3508(4) 0.4671(5)
H4B_2 H -0.2410 -1.3764 0.5255
C6B_2 C -0.2730(6) -1.4077(4) 0.3890(6)
O3B_2 O -0.1780(4) -1.1243(3) 0.3646(3)
C7B_2 C -0.0877(6) -1.0638(4) 0.3676(4)
N1B_2 N -0.0681(4) -0.9734(3) 0.3676(4)
C8B_2 C -0.3052(7) -1.5100(5) 0.3984(8)
O1_2 O 0.5592(4) -0.7734(4) 0.3242(5)
O2_2 O 0.5395(4) -0.7615(4) 0.4796(6)
C1_2 C 0.2207(4) -0.9882(4) 0.3724(5)
C2_2 C 0.3694(5) -0.9047(5) 0.3023(6)
H1_2 H 0.4081 -0.8900 0.2499
C3_2 C 0.2556(5) -0.9529(5) 0.4594(5)
H2_2 H 0.2168 -0.9704 0.5119
C4_2 C 0.2750(5) -0.9653(6) 0.2932(5)
H3_2 H 0.2486 -0.9901 0.2349
C5_2 C 0.3508(4) -0.8901(5) 0.4671(5)
H4_2 H 0.3764 -0.8646 0.5255
C6_2 C 0.4077(4) -0.8653(4) 0.3890(6)
O3_2 O 0.1243(3) -1.0537(3) 0.3646(3)
C7_2 C 0.0638(4) -1.0239(4) 0.3676(4)
N1_2 N -0.0266(3) -1.0947(3) 0.3676(4)
C8_2 C 0.5100(5) -0.7952(5) 0.3984(8)
Co1_2 Co -0.3333 -1.6667 0.2500
Co1_3 Co -0.3333 -0.6667 0.2500
Co1_4 Co -0.3333 0.3333 0.2500
Co1_5 Co 0.6667 -0.6667 0.2500
Co2_3 Co -0.3333 -1.6667 0.50303(12)
Co2_4 Co -0.3333 0.3333 0.50303(12)
Co2_5 Co 0.6667 -0.6667 0.50303(12)
O1A_3 O 0.7734(4) 0.3326(6) 0.3242(5)
O1B_3 O 0.6674(6) 0.4408(4) 0.3242(5)
O1C O 0.7734(4) 0.4408(4) 0.1758(5)
O1D O 0.6674(6) 0.2266(4) 0.1758(5)
O1E O 0.5592(4) 0.3326(6) 0.1758(5)
O2_3 O -0.4605(4) -0.7615(4) 0.4796(6)
O2A_3 O 0.7615(4) 0.3010(6) 0.4796(6)
O2B_3 O 0.6990(6) 0.4605(4) 0.4796(6)
loop_
_geom_bond_atom_site_label_1
_geom_bond_atom_site_label_2
_geom_bond_site_symmetry_1
_geom_bond_site_symmetry_2
Co1 O1 1_555 1_555
Co2 O2 1_555 1_555
O1 C8 1_555 1_555
O2 C8 1_555 1_555
C1 C3 1_555 1_555
C2 H1 1_555 1_555
C3 H2 1_555 1_555
C4 C1 1_555 1_555
H3 C4 1_555 1_555
C5 C3 1_555 1_555
H4 C5 1_555 1_555
C6 C2 1_555 1_555
O3 C1 1_555 1_555
C7 O3 1_555 1_555
N1 C7 1_555 1_555
C8 C6 1_555 1_555
O4 Co2 1_555 1_555
O1A C8A 1_555 1_555
O2A C8A 1_555 1_555
C1A C3A 1_555 1_555
C2A H1A 1_555 1_555
C3A H2A 1_555 1_555
C4A C1A 1_555 1_555
H3A C4A 1_555 1_555
C5A C3A 1_555 1_555
H4A C5A 1_555 1_555
C6A C2A 1_555 1_555
O3A C1A 1_555 1_555
C7A O3A 1_555 1_555
N1A C7 1_555 1_555
C8A C6A 1_555 1_555
O1B C8B 1_555 1_555
O2B C8B 1_555 1_555
C1B C3B 1_555 1_555
C2B H1B 1_555 1_555
C3B H2B 1_555 1_555
C4B C1B 1_555 1_555
H3B C4B 1_555 1_555
C5B C3B 1_555 1_555
H4B C5B 1_555 1_555
C6B C2B 1_555 1_555
O3B C1B 1_555 1_555
C7B N1 1_555 1_555
N1B C7A 1_555 1_555
C8B C6B 1_555 1_555
Co2_2 O2B 1_555 1_555
O1A_2 C8A_2 1_555 1_555
O2A_2 Co2_2 1_555 1_555
C1A_2 C3A_2 1_555 1_555
C2A_2 H1A_2 1_555 1_555
C3A_2 H2A_2 1_555 1_555
C4A_2 C1A_2 1_555 1_555
H3A_2 C4A_2 1_555 1_555
C5A_2 C3A_2 1_555 1_555
H4A_2 C5A_2 1_555 1_555
C6A_2 C2A_2 1_555 1_555
O3A_2 C1A_2 1_555 1_555
C7A_2 O3A_2 1_555 1_555
N1A_2 C7A_2 1_555 1_555
C8A_2 O2A_2 1_555 1_555
O4_2 Co2_2 1_555 1_555
O1B_2 C8B_2 1_555 1_555
O2B_2 C8B_2 1_555 1_555
C1B_2 C3B_2 1_555 1_555
C2B_2 H1B_2 1_555 1_555
C3B_2 H2B_2 1_555 1_555
C4B_2 C1B_2 1_555 1_555
H3B_2 C4B_2 1_555 1_555
C5B_2 C3B_2 1_555 1_555
H4B_2 C5B_2 1_555 1_555
C6B_2 C2B_2 1_555 1_555
O3B_2 C1B_2 1_555 1_555
C7B_2 O3B_2 1_555 1_555
N1B_2 C7A_2 1_555 1_555
C8B_2 C6B_2 1_555 1_555
O1_2 C8_2 1_555 1_555
O2_2 C8_2 1_555 1_555
C1_2 C3_2 1_555 1_555
C2_2 H1_2 1_555 1_555
C3_2 H2_2 1_555 1_555
C4_2 C1_2 1_555 1_555
H3_2 C4_2 1_555 1_555
C5_2 C3_2 1_555 1_555
H4_2 C5_2 1_555 1_555
C6_2 C2_2 1_555 1_555
O3_2 C1_2 1_555 1_555
C7_2 N1A_2 1_555 1_555
N1_2 C7B_2 1_555 1_555
C8_2 C6_2 1_555 1_555
Co1_2 O1B_2 1_555 1_555
Co1_3 O1B 1_555 1_555
Co1_4 O1A 1_555 1_555
Co1_5 O1_2 1_555 1_555
Co2_3 O2B_2 1_555 1_555
Co2_4 O2A 1_555 1_555
Co2_5 O2_2 1_555 1_555
O1A_3 Co1 1_555 1_555
O1B_3 Co1 1_555 1_555
O1C Co1 1_555 1_555
O1D Co1 1_555 1_555
O1E Co1 1_555 1_555
O2_3 Co2_2 1_555 1_555
O2A_3 Co2 1_555 1_555
O2B_3 Co2 1_555 1_555
C2 C4 1_555 1_555
C5 C6 1_555 1_555
C2A C4A 1_555 1_555
C5A C6A 1_555 1_555
C7A N1A 1_555 1_555
C2B C4B 1_555 1_555
C5B C6B 1_555 1_555
O3B C7B 1_555 1_555
C7B N1B 1_555 1_555
O1A_2 Co1_3 1_555 1_555
C2A_2 C4A_2 1_555 1_555
C5A_2 C6A_2 1_555 1_555
C6A_2 C8A_2 1_555 1_555
C2B_2 C4B_2 1_555 1_555
C5B_2 C6B_2 1_555 1_555
C7B_2 N1B_2 1_555 1_555
C2_2 C4_2 1_555 1_555
C5_2 C6_2 1_555 1_555
O3_2 C7_2 1_555 1_555
C7_2 N1_2 1_555 1_555

#END
