
#######################################################################
#
#                 Cambridge Crystallographic Data Centre
#                                CCDC 
#
#######################################################################
#
# If this CIF has been generated from an entry in the Cambridge 
# Structural Database, then it will include bibliographic, chemical, 
# crystal, experimental, refinement or atomic coordinate data resulting 
# from the CCDC's data processing and validation procedures.
#
#######################################################################

data_LASDEQ
_chemical_formula_moiety         
'(C57 H46 Cu6 N2 O36)n,19n(C3 H7 N1 O1),11n(H2 O1)'
_chemical_name_systematic        
"catena-[tris(\m~8~-5,5'-(Methanediylbis(oxy))dibenzene-1,3-dicarboxylato)-tetra-aqua-bis(N,N-dimethylformamide)-hexa-copper(ii) N,N-dimethylformamide solvate undecahydrate]"
_symmetry_cell_setting           tetragonal
_symmetry_space_group_name_H-M   'P 4/m c c'
_symmetry_Int_Tables_number      124
_space_group_name_Hall           '-P 4 2c'
loop_
_symmetry_equiv_pos_site_id
_symmetry_equiv_pos_as_xyz
1 x,y,z
2 -y,x,z
3 -x,-y,z
4 y,-x,z
5 x,-y,1/2-z
6 y,x,1/2-z
7 -x,y,1/2-z
8 -y,-x,1/2-z
9 -x,-y,-z
10 y,-x,-z
11 x,y,-z
12 -y,x,-z
13 -x,y,1/2+z
14 -y,-x,1/2+z
15 x,-y,1/2+z
16 y,x,1/2+z
_cell_length_a                   23.5670(6)
_cell_length_b                   23.5670(6)
_cell_length_c                   46.997(2)
_cell_angle_alpha                90
_cell_angle_beta                 90
_cell_angle_gamma                90
_cell_volume                     26102.3
_exptl_crystal_colour            blue
_exptl_crystal_description       block
_cell_formula_units_Z            8
loop_
_atom_site_label
_atom_site_type_symbol
_atom_site_fract_x
_atom_site_fract_y
_atom_site_fract_z
_atom_site_U_iso_or_equiv
_atom_site_thermal_displace_type
Cu1 Cu 0.31541(2) 1.03936(2) 0.840952(10) 0.0275 Uani
Cu2 Cu 0.23727(2) 1.03039(2) 0.881111(11) 0.0311 Uani
Cu3 Cu 0.21327(3) 1.26373(3) 1.0000 0.0323 Uani
Cu4 Cu 0.28307(3) 1.35119(3) 1.0000 0.0272 Uani
C1 C 0.32372(19) 1.11423(17) 0.88736(10) 0.0360 Uani
C2 C 0.34866(18) 1.16300(18) 0.90327(10) 0.0370 Uani
C3 C 0.32011(19) 1.18672(17) 0.92570(9) 0.0367 Uani
H1 H 0.2857 1.1713 0.9316 0.0440 Uiso
C4 C 0.34232(18) 1.23359(17) 0.93968(10) 0.0370 Uani
C5 C 0.30824(19) 1.26238(19) 0.96240(9) 0.0373 Uani
C6 C 0.39483(19) 1.25419(19) 0.93213(11) 0.0433 Uani
H2 H 0.4102 1.2851 0.9418 0.0520 Uiso
C7 C 0.42512(18) 1.22870(17) 0.90999(11) 0.0387 Uani
C8 C 0.40184(19) 1.18418(18) 0.89505(10) 0.0413 Uani
H3 H 0.4211 1.1683 0.8797 0.0500 Uiso
C9 C 0.5054(2) 1.2364(2) 0.87936(11) 0.0493 Uani
H4 H 0.4803 1.2450 0.8636 0.0590 Uiso
H5 H 0.5390 1.2597 0.8773 0.0590 Uiso
C10 C 0.66773(18) 1.04018(16) 0.88607(10) 0.0327 Uani
C11 C 0.63699(17) 1.09017(17) 0.89878(9) 0.0330 Uani
C12 C 0.59149(17) 1.11296(18) 0.88410(10) 0.0357 Uani
H6 H 0.5788 1.0956 0.8675 0.0430 Uiso
C13 C 0.56518(17) 1.16086(18) 0.89383(9) 0.0350 Uani
C14 C 0.58287(18) 1.18648(19) 0.91907(10) 0.0383 Uani
H7 H 0.5645 1.2185 0.9260 0.0460 Uiso
C15 C 0.62873(18) 1.16287(18) 0.93361(10) 0.0363 Uani
C16 C 0.65033(18) 1.19185(18) 0.96021(9) 0.0347 Uani
C17 C 0.65546(19) 1.11482(17) 0.92351(9) 0.0340 Uani
H8 H 0.6858 1.0992 0.9334 0.0410 Uiso
C18 C 0.04665(19) 1.23260(18) 0.83498(9) 0.0357 Uani
C19 C 0.10006(17) 1.21204(18) 0.82106(9) 0.0337 Uani
C20 C 0.11980(18) 1.23773(18) 0.79654(9) 0.0360 Uani
H9 H 0.0985 1.2662 0.7879 0.0430 Uiso
C21 C 0.17062(18) 1.22139(19) 0.78494(10) 0.0383 Uani
C22 C 0.20268(18) 1.17924(19) 0.79758(9) 0.0367 Uani
H10 H 0.2373 1.1685 0.7898 0.0440 Uiso
C23 C 0.13140(19) 1.16916(19) 0.83354(10) 0.0400 Uani
H11 H 0.1178 1.1511 0.8498 0.0480 Uiso
C24 C 0.18256(18) 1.15316(18) 0.82207(9) 0.0363 Uani
C25 C 0.21714(19) 1.10770(19) 0.83597(10) 0.0390 Uani
C26 C 0.2416(2) 1.2416(2) 0.7500 0.0440 Uani
H12 H 0.2486 1.2690 0.7350 0.0530 Uiso
O1 O 0.34924(12) 1.09742(12) 0.86581(6) 0.0362 Uani
O2 O 0.27799(13) 1.09476(13) 0.89714(7) 0.0444 Uani
O3 O 0.26493(14) 1.23625(14) 0.97079(7) 0.0486 Uani
O4 O 0.32543(12) 1.30935(12) 0.97147(6) 0.0370 Uani
O5 O 0.64880(12) 1.02035(12) 0.86324(6) 0.0366 Uani
O6 O 0.70993(13) 1.02203(13) 0.89959(7) 0.0436 Uani
O7 O 0.62204(13) 1.23241(12) 0.96934(6) 0.0384 Uani
O8 O 0.69481(14) 1.17248(13) 0.97016(7) 0.0448 Uani
O9 O 0.47756(13) 1.25161(13) 0.90522(8) 0.0475 Uani
O10 O 0.52093(13) 1.18028(14) 0.87778(7) 0.0451 Uani
O11 O 0.01952(12) 1.27091(12) 0.82248(6) 0.0375 Uani
O12 O 0.03350(14) 1.21043(13) 0.85820(7) 0.0445 Uani
O13 O 0.26529(12) 1.09775(12) 0.82544(6) 0.0365 Uani
O14 O 0.19567(13) 1.08340(13) 0.85695(7) 0.0449 Uani
O15 O 0.18615(13) 1.25063(13) 0.76103(6) 0.0410 Uani
O16 O 0.37875(17) 1.04511(17) 0.80933(8) 0.0737 Uani
O17 O 0.3321(2) 1.4265(2) 1.0000 0.0720 Uani
O18 O 0.1588(3) 1.1911(3) 1.0000 0.0927 Uani
O19 O 0.17296(19) 1.0333(2) 0.91338(10) 0.0933 Uani
N1 N 0.1212(4) 1.1194(4) 0.9317(2) 0.1260 Uani
C27 C 0.1619(7) 1.0878(4) 0.9150(4) 0.1260 Uani
C28 C 0.1071(7) 1.1768(5) 0.9267(4) 0.1260 Uani
C29 C 0.0927(7) 1.0890(6) 0.9557(3) 0.1260 Uani
Cu1J Cu 0.31541(2) 1.03936(2) 1.159048(10) 0.0275 Uani
Cu1B Cu 0.68459(2) 0.96064(2) 0.840952(10) 0.0275 Uani
Cu1A Cu -0.03936(2) 1.31541(2) 0.840952(10) 0.0275 Uani
Cu1D Cu 0.31541(2) 0.96064(2) 0.659048(10) 0.0275 Uani
Cu1E Cu 0.03936(2) 1.31541(2) 0.659048(10) 0.0275 Uani
Cu1H Cu 0.68459(2) 0.96064(2) 1.159048(10) 0.0275 Uani
Cu2J Cu 0.23727(2) 1.03039(2) 1.118889(11) 0.0311 Uani
Cu2B Cu 0.76273(2) 0.96961(2) 0.881111(11) 0.0311 Uani
Cu2A Cu -0.03039(2) 1.23727(2) 0.881111(11) 0.0311 Uani
Cu2D Cu 0.23727(2) 0.96961(2) 0.618889(11) 0.0311 Uani
Cu2E Cu 0.03039(2) 1.23727(2) 0.618889(11) 0.0311 Uani
Cu2H Cu 0.76273(2) 0.96961(2) 1.118889(11) 0.0311 Uani
Cu3A Cu 0.73627(3) 1.21327(3) 1.0000 0.0323 Uani
Cu4A Cu 0.64881(3) 1.28307(3) 1.0000 0.0272 Uani
C1J C 0.32372(19) 1.11423(17) 1.11264(10) 0.0360 Uani
C2J C 0.34866(18) 1.16300(18) 1.09673(10) 0.0370 Uani
C3J C 0.32011(19) 1.18672(17) 1.07430(9) 0.0367 Uani
H1J H 0.2857 1.1713 1.0684 0.0440 Uiso
C4J C 0.34232(18) 1.23359(17) 1.06032(10) 0.0370 Uani
C5J C 0.30824(19) 1.26238(19) 1.03760(9) 0.0373 Uani
C6J C 0.39483(19) 1.25419(19) 1.06787(11) 0.0433 Uani
H2J H 0.4102 1.2851 1.0582 0.0520 Uiso
C7J C 0.42512(18) 1.22870(17) 1.09001(11) 0.0387 Uani
C8J C 0.40184(19) 1.18418(18) 1.10495(10) 0.0413 Uani
H3J H 0.4211 1.1683 1.1203 0.0500 Uiso
C9J C 0.5054(2) 1.2364(2) 1.12064(11) 0.0493 Uani
H4J H 0.4803 1.2450 1.1364 0.0590 Uiso
H5J H 0.5390 1.2597 1.1227 0.0590 Uiso
C10J C 0.66773(18) 1.04018(16) 1.11393(10) 0.0327 Uani
C11J C 0.63699(17) 1.09017(17) 1.10122(9) 0.0330 Uani
C12J C 0.59149(17) 1.11296(18) 1.11590(10) 0.0357 Uani
H6J H 0.5788 1.0956 1.1325 0.0430 Uiso
C13J C 0.56518(17) 1.16086(18) 1.10617(9) 0.0350 Uani
C14J C 0.58287(18) 1.18648(19) 1.08093(10) 0.0383 Uani
H7J H 0.5645 1.2185 1.0740 0.0460 Uiso
C15J C 0.62873(18) 1.16287(18) 1.06639(10) 0.0363 Uani
C16J C 0.65033(18) 1.19185(18) 1.03979(9) 0.0347 Uani
C17J C 0.65546(19) 1.11482(17) 1.07649(9) 0.0340 Uani
H8J H 0.6858 1.0992 1.0666 0.0410 Uiso
C18E C 0.23260(18) 1.04665(19) 0.66502(9) 0.0357 Uani
C19E C 0.21204(18) 1.10006(17) 0.67894(9) 0.0337 Uani
C20E C 0.23773(18) 1.11980(18) 0.70346(9) 0.0360 Uani
H9E H 0.2662 1.0985 0.7121 0.0430 Uiso
C21E C 0.22139(19) 1.17062(18) 0.71506(10) 0.0383 Uani
C22E C 0.17924(19) 1.20268(18) 0.70242(9) 0.0367 Uani
H10E H 0.1685 1.2373 0.7102 0.0440 Uiso
C23E C 0.16916(19) 1.13140(19) 0.66646(10) 0.0400 Uani
H11E H 0.1511 1.1178 0.6502 0.0480 Uiso
C24E C 0.15316(18) 1.18256(18) 0.67793(9) 0.0363 Uani
C25E C 0.10770(19) 1.21714(19) 0.66403(10) 0.0390 Uani
H12E H 0.2690 1.2486 0.7650 0.0530 Uiso
O1J O 0.34924(12) 1.09742(12) 1.13419(6) 0.0362 Uani
O2J O 0.27799(13) 1.09476(13) 1.10286(7) 0.0444 Uani
O3J O 0.26493(14) 1.23625(14) 1.02921(7) 0.0486 Uani
O4J O 0.32543(12) 1.30935(12) 1.02853(6) 0.0370 Uani
O5J O 0.64880(12) 1.02035(12) 1.13676(6) 0.0366 Uani
O5B O 0.35120(12) 0.97965(12) 0.86324(6) 0.0366 Uani
O5H O 0.35120(12) 0.97965(12) 1.13676(6) 0.0366 Uani
O6J O 0.70993(13) 1.02203(13) 1.10041(7) 0.0436 Uani
O6B O 0.29007(13) 0.97797(13) 0.89959(7) 0.0436 Uani
O6H O 0.29007(13) 0.97797(13) 1.10041(7) 0.0436 Uani
O7J O 0.62204(13) 1.23241(12) 1.03066(6) 0.0384 Uani
O7C O 0.23241(12) 1.37796(13) 0.96934(6) 0.0384 Uani
O7I O 0.23241(12) 1.37796(13) 1.03066(6) 0.0384 Uani
O8J O 0.69481(14) 1.17248(13) 1.02984(7) 0.0448 Uani
O8C O 0.17248(13) 1.30519(14) 0.97016(7) 0.0448 Uani
O8I O 0.17248(13) 1.30519(14) 1.02984(7) 0.0448 Uani
O9J O 0.47756(13) 1.25161(13) 1.09478(8) 0.0475 Uani
O10J O 0.52093(13) 1.18028(14) 1.12222(7) 0.0451 Uani
O11E O 0.27091(12) 1.01952(12) 0.67752(6) 0.0375 Uani
O11C O 0.27091(12) 0.98048(12) 0.82248(6) 0.0375 Uani
O11I O 0.27091(12) 0.98048(12) 1.17752(6) 0.0375 Uani
O12E O 0.21043(13) 1.03350(14) 0.64180(7) 0.0445 Uani
O12C O 0.21043(13) 0.96650(14) 0.85820(7) 0.0445 Uani
O12I O 0.21043(13) 0.96650(14) 1.14180(7) 0.0445 Uani
O13E O 0.09775(12) 1.26529(12) 0.67456(6) 0.0365 Uani
O13J O 0.26529(12) 1.09775(12) 1.17456(6) 0.0365 Uani
O14E O 0.08340(13) 1.19567(13) 0.64305(7) 0.0449 Uani
O14J O 0.19567(13) 1.08340(13) 1.14305(7) 0.0449 Uani
O15E O 0.25063(13) 1.18615(13) 0.73897(6) 0.0410 Uani
O16J O 0.37875(17) 1.04511(17) 1.19067(8) 0.0737 Uani
O19J O 0.17296(19) 1.0333(2) 1.08662(10) 0.0933 Uani
N1J N 0.1212(4) 1.1194(4) 1.0683(2) 0.1260 Uani
C27J C 0.1619(7) 1.0878(4) 1.0850(4) 0.1260 Uani
C28J C 0.1071(7) 1.1768(5) 1.0733(4) 0.1260 Uani
C29J C 0.0927(7) 1.0890(6) 1.0443(3) 0.1260 Uani
loop_
_atom_site_aniso_label
_atom_site_aniso_U_11
_atom_site_aniso_U_22
_atom_site_aniso_U_33
_atom_site_aniso_U_23
_atom_site_aniso_U_13
_atom_site_aniso_U_12
Cu1 0.0285(3) 0.0252(3) 0.0289(3) 0.0012(2) 0.0023(2) 0.00172(19)
Cu2 0.0327(3) 0.0273(3) 0.0332(3) 0.0015(2) 0.0057(2) 0.0017(2)
Cu3 0.0339 0.0295 0.0336 0 0 -0.0071
Cu4 0.0286 0.025 0.028 0 0 -0.0031
C1 0.04 0.026 0.042 -0.002 0 0.0092
C2 0.039 0.031 0.041 -0.002 -0.004 0.0043
C3 0.037 0.03 0.043 -0.005 -0.001 0.0007
C4 0.039 0.031 0.041 -0.01 -0.002 0.0061
C5 0.042 0.042 0.028 -0.004 -0.004 0.002
C6 0.042 0.033 0.055 -0.012 0.005 0.002
C7 0.033 0.03 0.053 -0.008 0.002 0.0057
C8 0.042 0.034 0.048 -0.01 -0.007 0.006
C9 0.043 0.046 0.059 -0.001 0.008 0.01
C10 0.035 0.024 0.039 -0.007 0.006 0.0024
C11 0.029 0.031 0.039 -0.008 0.011 -0.0051
C12 0.03 0.038 0.039 -0.011 0.004 -0.0045
C13 0.028 0.04 0.037 -0.007 0.005 -0.0014
C14 0.036 0.036 0.043 -0.011 0.007 0.0007
C15 0.035 0.035 0.039 -0.003 0.009 -0.0028
C16 0.038 0.037 0.029 -0.012 0.012 -0.008
C17 0.042 0.029 0.031 -0.0054 0.004 -0.0026
C18 0.035 0.039 0.033 -0.004 -0.005 0.0066
C19 0.035 0.033 0.033 -0.005 -0.008 0.0076
C20 0.037 0.038 0.033 -0.006 -0.006 0.0117
C21 0.045 0.035 0.035 -0.006 -0.003 0.0081
C22 0.04 0.036 0.034 -0.006 0.001 0.0102
C23 0.041 0.041 0.038 0.001 0.001 0.008
C24 0.04 0.035 0.034 -0.005 -0.008 0.0057
C25 0.042 0.035 0.04 0 0.001 0.006
C26 0.042 0.042 0.048 0 0 0.008
O1 0.0354 0.037 0.0363 -0.0085 -0.001 0.0006
O2 0.0436 0.0405 0.049 -0.0143 0.0096 -0.0049
O3 0.0474 0.0465 0.052 -0.0203 0.0038 -0.0094
O4 0.0397 0.0358 0.0356 -0.007 -0.0002 0.0009
O5 0.0366 0.0336 0.0395 -0.0082 0.0033 0.0033
O6 0.0451 0.0428 0.0428 -0.0089 -0.0033 0.0088
O7 0.0403 0.0379 0.0371 -0.0136 0.0033 -0.0003
O8 0.0475 0.0427 0.0441 -0.0152 -0.0096 0.01
O9 0.0361 0.0413 0.065 -0.0187 0.0078 0.0033
O10 0.0375 0.0514 0.0465 -0.017 -0.0009 0.0104
O11 0.0341 0.0366 0.0417 0.0003 -0.0031 0.0066
O12 0.0369 0.0487 0.048 0.0032 -0.0017 0.011
O13 0.04 0.0379 0.0316 0.0038 0.001 0.0098
O14 0.0404 0.0499 0.0445 0.0108 0.0037 0.0167
O15 0.0496 0.0428 0.0307 0.0023 0.0066 0.0163
O16 0.085(3) 0.070(2) 0.066(3) -0.006(2) 0.046(2) -0.011(2)
O17 0.047 0.034 0.135 0 0 -0.01
O18 0.05 0.042 0.186 0 0 -0.031
O19 0.070(3) 0.140(4) 0.070(3) 0.007(3) 0.029(2) 0.003(3)
N1 0.121(5) 0.124(5) 0.133(5) 0.012(5) 0.030(4) -0.003(4)
C27 0.121(5) 0.124(5) 0.133(5) 0.012(5) 0.030(4) -0.003(4)
C28 0.121(5) 0.124(5) 0.133(5) 0.012(5) 0.030(4) -0.003(4)
C29 0.121(5) 0.124(5) 0.133(5) 0.012(5) 0.030(4) -0.003(4)
Cu1J 0.0285 0.0252 0.0289 -0.0012 -0.0023 0.00172
Cu1B 0.0285 0.0252 0.0289 -0.0012 -0.0023 0.00172
Cu1A 0.0252 0.0285 0.0289 0.0023 -0.0012 -0.00172
Cu1D 0.0285 0.0252 0.0289 0.0012 -0.0023 -0.00172
Cu1E 0.0252 0.0285 0.0289 -0.0023 -0.0012 0.00172
Cu1H 0.0285 0.0252 0.0289 0.0012 0.0023 0.00172
Cu2J 0.0327 0.0273 0.0332 -0.0015 -0.0057 0.0017
Cu2B 0.0327 0.0273 0.0332 -0.0015 -0.0057 0.0017
Cu2A 0.0273 0.0327 0.0332 0.0057 -0.0015 -0.0017
Cu2D 0.0327 0.0273 0.0332 0.0015 -0.0057 -0.0017
Cu2E 0.0273 0.0327 0.0332 -0.0057 -0.0015 0.0017
Cu2H 0.0327 0.0273 0.0332 0.0015 0.0057 0.0017
Cu3A 0.0295 0.0339 0.0336 0 0 0.0071
Cu4A 0.025 0.0286 0.028 0 0 0.0031
C1J 0.04 0.026 0.042 0.002 0 0.0092
C2J 0.039 0.031 0.041 0.002 0.004 0.0043
C3J 0.037 0.03 0.043 0.005 0.001 0.0007
C4J 0.039 0.031 0.041 0.01 0.002 0.0061
C5J 0.042 0.042 0.028 0.004 0.004 0.002
C6J 0.042 0.033 0.055 0.012 -0.005 0.002
C7J 0.033 0.03 0.053 0.008 -0.002 0.0057
C8J 0.042 0.034 0.048 0.01 0.007 0.006
C9J 0.043 0.046 0.059 0.001 -0.008 0.01
C10J 0.035 0.024 0.039 0.007 -0.006 0.0024
C11J 0.029 0.031 0.039 0.008 -0.011 -0.0051
C12J 0.03 0.038 0.039 0.011 -0.004 -0.0045
C13J 0.028 0.04 0.037 0.007 -0.005 -0.0014
C14J 0.036 0.036 0.043 0.011 -0.007 0.0007
C15J 0.035 0.035 0.039 0.003 -0.009 -0.0028
C16J 0.038 0.037 0.029 0.012 -0.012 -0.008
C17J 0.042 0.029 0.031 0.0054 -0.004 -0.0026
C18E 0.039 0.035 0.033 0.005 0.004 0.0066
C19E 0.033 0.035 0.033 0.008 0.005 0.0076
C20E 0.038 0.037 0.033 0.006 0.006 0.0117
C21E 0.035 0.045 0.035 0.003 0.006 0.0081
C22E 0.036 0.04 0.034 -0.001 0.006 0.0102
C23E 0.041 0.041 0.038 -0.001 -0.001 0.008
C24E 0.035 0.04 0.034 0.008 0.005 0.0057
C25E 0.035 0.042 0.04 -0.001 0 0.006
O1J 0.0354 0.037 0.0363 0.0085 0.001 0.0006
O2J 0.0436 0.0405 0.049 0.0143 -0.0096 -0.0049
O3J 0.0474 0.0465 0.052 0.0203 -0.0038 -0.0094
O4J 0.0397 0.0358 0.0356 0.007 0.0002 0.0009
O5J 0.0366 0.0336 0.0395 0.0082 -0.0033 0.0033
O5B 0.0366(16) 0.0336(15) 0.0395(17) 0.0082(14) -0.0033(14) 0.0033(12)
O5H 0.0366 0.0336 0.0395 -0.0082 0.0033 0.0033
O6J 0.0451 0.0428 0.0428 0.0089 0.0033 0.0088
O6B 0.0451(19) 0.0428(18) 0.0428(18) 0.0089(15) 0.0033(16) 0.0088(15)
O6H 0.0451 0.0428 0.0428 -0.0089 -0.0033 0.0088
O7J 0.0403 0.0379 0.0371 0.0136 -0.0033 -0.0003
O7C 0.0379 0.0403 0.0371 -0.0033 -0.0136 0.0003
O7I 0.0379 0.0403 0.0371 0.0033 0.0136 0.0003
O8J 0.0475 0.0427 0.0441 0.0152 0.0096 0.01
O8C 0.0427 0.0475 0.0441 0.0096 -0.0152 -0.01
O8I 0.0427 0.0475 0.0441 -0.0096 0.0152 -0.01
O9J 0.0361 0.0413 0.065 0.0187 -0.0078 0.0033
O10J 0.0375 0.0514 0.0465 0.017 0.0009 0.0104
O11E 0.0366 0.0341 0.0417 0.0031 -0.0003 0.0066
O11C 0.0366(16) 0.0341(16) 0.0417(18) 0.0031(14) 0.0003(14) -0.0066(13)
O11I 0.0366 0.0341 0.0417 -0.0031 -0.0003 -0.0066
O12E 0.0487 0.0369 0.048 0.0017 -0.0032 0.011
O12C 0.0487(19) 0.0369(17) 0.048(2) 0.0017(15) 0.0032(17) -0.0110(14)
O12I 0.0487 0.0369 0.048 -0.0017 -0.0032 -0.011
O13E 0.0379 0.04 0.0316 -0.001 -0.0038 0.0098
O13J 0.04 0.0379 0.0316 -0.0038 -0.001 0.0098
O14E 0.0499 0.0404 0.0445 -0.0037 -0.0108 0.0167
O14J 0.0404 0.0499 0.0445 -0.0108 -0.0037 0.0167
O15E 0.0428 0.0496 0.0307 -0.0066 -0.0023 0.0163
O16J 0.085 0.07 0.066 0.006 -0.046 -0.011
O19J 0.07 0.14 0.07 -0.007 -0.029 0.003
N1J 0.121 0.124 0.133 -0.012 -0.03 -0.003
C27J 0.121 0.124 0.133 -0.012 -0.03 -0.003
C28J 0.121 0.124 0.133 -0.012 -0.03 -0.003
C29J 0.121 0.124 0.133 -0.012 -0.03 -0.003
loop_
_geom_bond_atom_site_label_1
_geom_bond_atom_site_label_2
_geom_bond_site_symmetry_1
_geom_bond_site_symmetry_2
Cu1 Cu2 1_555 1_555
Cu2 O2 1_555 1_555
Cu3 Cu4 1_555 1_555
Cu4 O4 1_555 1_555
C1 C2 1_555 1_555
C2 C3 1_555 1_555
C3 H1 1_555 1_555
C4 C3 1_555 1_555
C5 C4 1_555 1_555
C6 C4 1_555 1_555
H2 C6 1_555 1_555
C7 C6 1_555 1_555
C8 C2 1_555 1_555
H3 C8 1_555 1_555
C9 H4 1_555 1_555
H5 C9 1_555 1_555
C10 C11 1_555 1_555
C11 C12 1_555 1_555
C12 H6 1_555 1_555
C13 C12 1_555 1_555
C14 C13 1_555 1_555
H7 C14 1_555 1_555
C15 C14 1_555 1_555
C16 C15 1_555 1_555
C17 C11 1_555 1_555
H8 C17 1_555 1_555
C18 C19 1_555 1_555
C19 C20 1_555 1_555
C20 H9 1_555 1_555
C21 C20 1_555 1_555
C22 C21 1_555 1_555
H10 C22 1_555 1_555
C23 C19 1_555 1_555
H11 C23 1_555 1_555
C24 C22 1_555 1_555
C25 C24 1_555 1_555
C26 H12 1_555 1_555
O1 Cu1 1_555 1_555
O2 C1 1_555 1_555
O3 Cu3 1_555 1_555
O4 C5 1_555 1_555
O5 C10 1_555 1_555
O6 C10 1_555 1_555
O7 C16 1_555 1_555
O8 C16 1_555 1_555
O9 C7 1_555 1_555
O10 C9 1_555 1_555
O11 C18 1_555 1_555
O12 C18 1_555 1_555
O13 Cu1 1_555 1_555
O14 Cu2 1_555 1_555
O15 C21 1_555 1_555
O16 Cu1 1_555 1_555
O17 Cu4 1_555 1_555
O18 Cu3 1_555 1_555
O19 Cu2 1_555 1_555
N1 C27 1_555 1_555
C27 O19 1_555 1_555
C28 N1 1_555 1_555
C29 N1 1_555 1_555
Cu1J Cu2J 1_555 1_555
Cu1B O5 1_555 1_555
Cu1A O11 1_555 1_555
Cu1D Cu2D 1_555 1_555
Cu1E Cu2E 1_555 1_555
Cu1H Cu2H 1_555 1_555
Cu2J O2J 1_555 1_555
Cu2B O6 1_555 1_555
Cu2A O12 1_555 1_555
Cu2D O12E 1_555 1_555
Cu2E O14E 1_555 1_555
Cu2H O6J 1_555 1_555
Cu3A O8 1_555 1_555
Cu4A O7 1_555 1_555
C1J C2J 1_555 1_555
C2J C3J 1_555 1_555
C3J H1J 1_555 1_555
C4J C3J 1_555 1_555
C5J C4J 1_555 1_555
C6J C4J 1_555 1_555
H2J C6J 1_555 1_555
C7J C6J 1_555 1_555
C8J C2J 1_555 1_555
H3J C8J 1_555 1_555
C9J H4J 1_555 1_555
H5J C9J 1_555 1_555
C10J C11J 1_555 1_555
C11J C12J 1_555 1_555
C12J H6J 1_555 1_555
C13J C12J 1_555 1_555
C14J C13J 1_555 1_555
H7J C14J 1_555 1_555
C15J C14J 1_555 1_555
C16J C15J 1_555 1_555
C17J C11J 1_555 1_555
H8J C17J 1_555 1_555
C18E C19E 1_555 1_555
C19E C20E 1_555 1_555
C20E H9E 1_555 1_555
C21E C20E 1_555 1_555
C22E C21E 1_555 1_555
H10E C22E 1_555 1_555
C23E C19E 1_555 1_555
H11E C23E 1_555 1_555
C24E C22E 1_555 1_555
C25E C24E 1_555 1_555
H12E C26 1_555 1_555
O1J Cu1J 1_555 1_555
O2J C1J 1_555 1_555
O3J Cu3 1_555 1_555
O4J Cu4 1_555 1_555
O5J Cu1H 1_555 1_555
O5B Cu1 1_555 1_555
O5H Cu1J 1_555 1_555
O6J C10J 1_555 1_555
O6B Cu2 1_555 1_555
O6H Cu2J 1_555 1_555
O7J Cu4A 1_555 1_555
O7C Cu4 1_555 1_555
O7I Cu4 1_555 1_555
O8J Cu3A 1_555 1_555
O8C Cu3 1_555 1_555
O8I Cu3 1_555 1_555
O9J C7J 1_555 1_555
O10J C9J 1_555 1_555
O11E Cu1D 1_555 1_555
O11C Cu1 1_555 1_555
O11I Cu1J 1_555 1_555
O12E C18E 1_555 1_555
O12C Cu2 1_555 1_555
O12I Cu2J 1_555 1_555
O13E Cu1E 1_555 1_555
O13J Cu1J 1_555 1_555
O14E C25E 1_555 1_555
O14J Cu2J 1_555 1_555
O15E C26 1_555 1_555
O16J Cu1J 1_555 1_555
O19J Cu2J 1_555 1_555
N1J C27J 1_555 1_555
C27J O19J 1_555 1_555
C28J N1J 1_555 1_555
C29J N1J 1_555 1_555
C1 O1 1_555 1_555
C5 O3 1_555 1_555
C7 C8 1_555 1_555
C9 O9 1_555 1_555
C13 O10 1_555 1_555
C15 C17 1_555 1_555
C23 C24 1_555 1_555
C25 O13 1_555 1_555
C25 O14 1_555 1_555
C26 O15 1_555 1_555
Cu1B Cu2B 1_555 1_555
Cu1A Cu2A 1_555 1_555
Cu3A Cu4A 1_555 1_555
C1J O1J 1_555 1_555
C5J O3J 1_555 1_555
C5J O4J 1_555 1_555
C7J C8J 1_555 1_555
C9J O9J 1_555 1_555
C10J O5J 1_555 1_555
C13J O10J 1_555 1_555
C15J C17J 1_555 1_555
C16J O7J 1_555 1_555
C16J O8J 1_555 1_555
C18E O11E 1_555 1_555
C21E O15E 1_555 1_555
C23E C24E 1_555 1_555
C25E O13E 1_555 1_555

#END
