
#######################################################################
#
#                 Cambridge Crystallographic Data Centre
#                                CCDC 
#
#######################################################################
#
# If this CIF has been generated from an entry in the Cambridge 
# Structural Database, then it will include bibliographic, chemical, 
# crystal, experimental, refinement or atomic coordinate data resulting 
# from the CCDC's data processing and validation procedures.
#
#######################################################################

data_SEVLEM
_chemical_name_common            STU-5
_chemical_formula_moiety         
'(C10 H10 Cd1 N6)n,1.56n(C2 H6 O1),1.04n(C3 H7 N1 O1)'
_chemical_name_systematic        
'catena-[(\m~3~-1,2-bis((2-methyl-1H-imidazol-4-yl)methylene)hydrazine)-cadmium dimethylformamide ethanol solvate]'
_symmetry_cell_setting           cubic
_symmetry_space_group_name_H-M   'I a -3 d'
_symmetry_Int_Tables_number      230
_space_group_name_Hall           '-I 4bd 2c 3'
loop_
_symmetry_equiv_pos_site_id
_symmetry_equiv_pos_as_xyz
1 x,y,z
2 1/2-x,-y,1/2+z
3 -x,1/2+y,1/2-z
4 1/2+x,1/2-y,-z
5 z,x,y
6 1/2+z,1/2-x,-y
7 1/2-z,-x,1/2+y
8 -z,1/2+x,1/2-y
9 y,z,x
10 -y,1/2+z,1/2-x
11 1/2+y,1/2-z,-x
12 1/2-y,-z,1/2+x
13 3/4+y,1/4+x,1/4-z
14 3/4-y,3/4-x,3/4-z
15 1/4+y,1/4-x,3/4+z
16 1/4-y,3/4+x,1/4+z
17 3/4+x,1/4+z,1/4-y
18 1/4-x,3/4+z,1/4+y
19 3/4-x,3/4-z,3/4-y
20 1/4+x,1/4-z,3/4+y
21 3/4+z,1/4+y,1/4-x
22 1/4+z,1/4-y,3/4+x
23 1/4-z,3/4+y,1/4+x
24 3/4-z,3/4-y,3/4-x
25 1/2+x,1/2+y,1/2+z
26 -x,1/2-y,z
27 1/2-x,y,-z
28 x,-y,1/2-z
29 1/2+z,1/2+x,1/2+y
30 z,-x,1/2-y
31 -z,1/2-x,y
32 1/2-z,x,-y
33 1/2+y,1/2+z,1/2+x
34 1/2-y,z,-x
35 y,-z,1/2-x
36 -y,1/2-z,x
37 1/4+y,3/4+x,3/4-z
38 1/4-y,1/4-x,1/4-z
39 3/4+y,3/4-x,1/4+z
40 3/4-y,1/4+x,3/4+z
41 1/4+x,3/4+z,3/4-y
42 3/4-x,1/4+z,3/4+y
43 1/4-x,1/4-z,1/4-y
44 3/4+x,3/4-z,1/4+y
45 1/4+z,3/4+y,3/4-x
46 3/4+z,3/4-y,1/4+x
47 3/4-z,1/4+y,3/4+x
48 1/4-z,1/4-y,1/4-x
49 -x,-y,-z
50 1/2+x,y,1/2-z
51 x,1/2-y,1/2+z
52 1/2-x,1/2+y,z
53 -z,-x,-y
54 1/2-z,1/2+x,y
55 1/2+z,x,1/2-y
56 z,1/2-x,1/2+y
57 -y,-z,-x
58 y,1/2-z,1/2+x
59 1/2-y,1/2+z,x
60 1/2+y,z,1/2-x
61 1/4-y,3/4-x,3/4+z
62 1/4+y,1/4+x,1/4+z
63 3/4-y,3/4+x,1/4-z
64 3/4+y,1/4-x,3/4-z
65 1/4-x,3/4-z,3/4+y
66 3/4+x,1/4-z,3/4-y
67 1/4+x,1/4+z,1/4+y
68 3/4-x,3/4+z,1/4-y
69 1/4-z,3/4-y,3/4+x
70 3/4-z,3/4+y,1/4-x
71 3/4+z,1/4-y,3/4-x
72 1/4+z,1/4+y,1/4+x
73 1/2-x,1/2-y,1/2-z
74 x,1/2+y,-z
75 1/2+x,-y,z
76 -x,y,1/2+z
77 1/2-z,1/2-x,1/2-y
78 -z,x,1/2+y
79 z,1/2+x,-y
80 1/2+z,-x,y
81 1/2-y,1/2-z,1/2-x
82 1/2+y,-z,x
83 -y,z,1/2+x
84 y,1/2+z,-x
85 3/4-y,1/4-x,1/4+z
86 3/4+y,3/4+x,3/4+z
87 1/4-y,1/4+x,3/4-z
88 1/4+y,3/4-x,1/4-z
89 3/4-x,1/4-z,1/4+y
90 1/4+x,3/4-z,1/4-y
91 3/4+x,3/4+z,3/4+y
92 1/4-x,1/4+z,3/4-y
93 3/4-z,1/4-y,1/4+x
94 1/4-z,1/4+y,3/4-x
95 1/4+z,3/4-y,1/4-x
96 3/4+z,3/4+y,3/4+x
_cell_length_a                   37.81240(10)
_cell_length_b                   37.81240(10)
_cell_length_c                   37.81240(10)
_cell_angle_alpha                90
_cell_angle_beta                 90
_cell_angle_gamma                90
_cell_volume                     54063.3
_exptl_crystal_colour            'light yellow'
_exptl_crystal_description       polyhedral
_cell_formula_units_Z            96
loop_
_atom_site_label
_atom_site_type_symbol
_atom_site_fract_x
_atom_site_fract_y
_atom_site_fract_z
_atom_site_U_iso_or_equiv
_atom_site_thermal_displace_type
Cd1 Cd 0.250615(9) 0.837248(9) 0.109976(9) 0.0738 Uani
N1 N 0.29465(11) 0.84860(12) 0.07090(11) 0.0830 Uani
N2 N 0.33727(10) 0.87295(12) 0.03783(10) 0.0773 Uani
N3 N 0.20937(11) 0.79655(13) 0.12464(12) 0.0893 Uani
N4 N 0.16276(12) 0.76507(12) 0.14240(13) 0.0937 Uani
N5 N 0.3065(3) 0.7639(3) 0.0909(4) 0.1663 Uani
N6 N 0.2739(2) 0.7781(3) 0.1016(4) 0.1090 Uani
C1 C 0.30579(14) 0.87749(14) 0.05344(14) 0.0827 Uani
C2 C 0.28563(18) 0.91148(17) 0.0519(2) 0.1233 Uani
H1 H 0.3019 0.9310 0.0517 0.1850 Uiso
H2 H 0.2705 0.9133 0.0722 0.1850 Uiso
H3 H 0.2716 0.9120 0.0308 0.1850 Uiso
C3 C 0.34705(14) 0.83919(14) 0.04502(15) 0.0847 Uani
H4 H 0.3676 0.8282 0.0372 0.1020 Uiso
C4 C 0.32161(15) 0.82421(16) 0.06556(15) 0.0907 Uani
C5 C 0.21866(18) 0.76176(19) 0.1259(2) 0.1183 Uani
C6 C 0.18924(19) 0.74291(18) 0.1364(3) 0.1390 Uani
H5 H 0.1882 0.7185 0.1389 0.1670 Uiso
C7 C 0.17571(14) 0.79724(14) 0.13481(16) 0.0873 Uani
C8 C 0.15513(18) 0.83065(17) 0.1392(2) 0.1447 Uani
H6 H 0.1688 0.8502 0.1304 0.2170 Uiso
H7 H 0.1500 0.8343 0.1638 0.2170 Uiso
H8 H 0.1334 0.8290 0.1261 0.2170 Uiso
C9 C 0.3276(3) 0.7879(3) 0.0781(5) 0.1193 Uani
H9 H 0.3511 0.7807 0.0765 0.1430 Uiso
C10 C 0.2521(4) 0.7533(4) 0.1106(7) 0.1583 Uani
H10 H 0.2584 0.7298 0.1072 0.1890 Uiso
Cd1ZB Cd 0.109976(9) 0.750615(9) 0.162752(9) 0.0738 Uani
Cd1PC Cd 0.359976(9) 0.912752(9) -0.000615(9) 0.0738 Uani
N2PB N 0.21217(10) 0.87705(12) 0.08727(10) 0.0773 Uani
N4CC N 0.26507(12) 0.85760(13) 0.16276(12) 0.0937 Uani
N7? N 0.2853(4) 0.7515(4) 0.1119(6) 0.1663 Uani
N8? N 0.2872(4) 0.7869(4) 0.1008(7) 0.1090 Uani
C11? C 0.3127(4) 0.7888(5) 0.0777(7) 0.1193 Uani
H11? H 0.3244 0.7689 0.0695 0.1430 Uiso
C12? C 0.2532(5) 0.7432(7) 0.1245(12) 0.1583 Uani
H12? H 0.2524 0.7209 0.1346 0.1890 Uiso
loop_
_atom_site_aniso_label
_atom_site_aniso_U_11
_atom_site_aniso_U_22
_atom_site_aniso_U_33
_atom_site_aniso_U_23
_atom_site_aniso_U_13
_atom_site_aniso_U_12
Cd1 0.0676(2) 0.0772(2) 0.0766(2) 0.01192(16) -0.00903(16) -0.00655(16)
N1 0.076(3) 0.096(3) 0.077(3) 0.012(2) -0.001(2) -0.010(2)
N2 0.072(2) 0.094(3) 0.066(2) -0.006(2) 0.0067(19) -0.014(2)
N3 0.074(3) 0.096(3) 0.098(3) 0.020(3) -0.010(2) -0.020(2)
N4 0.082(3) 0.082(3) 0.117(4) 0.015(3) 0.004(3) -0.012(2)
N5 0.112(6) 0.108(6) 0.279(13) 0.090(7) 0.073(7) 0.035(5)
N6 0.076(7) 0.083(5) 0.168(6) 0.035(5) 0.011(6) 0.001(4)
C1 0.086(3) 0.085(3) 0.077(3) 0.012(3) 0.004(3) -0.017(3)
C2 0.105(5) 0.107(5) 0.158(6) 0.035(4) 0.048(4) 0.012(4)
C3 0.079(3) 0.079(3) 0.096(4) 0.009(3) 0.012(3) 0.004(3)
C4 0.086(4) 0.095(4) 0.091(4) 0.014(3) -0.004(3) -0.010(3)
C5 0.090(4) 0.102(5) 0.163(7) 0.010(5) 0.021(4) -0.005(4)
C6 0.106(5) 0.081(4) 0.230(10) 0.014(5) 0.052(6) -0.005(4)
C7 0.076(3) 0.071(3) 0.115(4) 0.021(3) -0.008(3) -0.021(3)
C8 0.097(5) 0.085(4) 0.252(10) 0.042(5) 0.014(6) -0.014(4)
C9 0.061(8) 0.121(6) 0.176(8) 0.049(6) 0.000(8) -0.018(6)
C10 0.124(6) 0.101(10) 0.25(3) 0.061(9) 0.076(9) 0.000(6)
Cd1ZB 0.0766 0.0676 0.0772 0.00655 -0.01192 -0.00903
Cd1PC 0.0766 0.0772 0.0676 -0.00655 0.00903 -0.01192
N2PB 0.066 0.094 0.072 0.014 -0.0067 -0.006
N4CC 0.082 0.117 0.082 -0.004 -0.012 -0.015
N7? 0.112(6) 0.108(6) 0.279(13) 0.090(7) 0.073(7) 0.035(5)
N8? 0.076(7) 0.083(5) 0.168(6) 0.035(5) 0.011(6) 0.001(4)
C11? 0.061(8) 0.121(6) 0.176(8) 0.049(6) 0.000(8) -0.018(6)
C12? 0.124(6) 0.101(10) 0.25(3) 0.061(9) 0.076(9) 0.000(6)
loop_
_geom_bond_atom_site_label_1
_geom_bond_atom_site_label_2
_geom_bond_site_symmetry_1
_geom_bond_site_symmetry_2
Cd1 N1 1_555 1_555
N1 C1 1_555 1_555
N2 C1 1_555 1_555
N3 Cd1 1_555 1_555
N4 C6 1_555 1_555
N5 N6 1_555 1_555
N6 Cd1 1_555 1_555
C1 C2 1_555 1_555
C2 H1 1_555 1_555
H2 C2 1_555 1_555
H3 C2 1_555 1_555
C3 N2 1_555 1_555
H4 C3 1_555 1_555
C4 N1 1_555 1_555
C5 N3 1_555 1_555
C6 C5 1_555 1_555
H5 C6 1_555 1_555
C7 N3 1_555 1_555
C8 C7 1_555 1_555
H6 C8 1_555 1_555
H7 C8 1_555 1_555
H8 C8 1_555 1_555
C9 N5 1_555 1_555
H9 C9 1_555 1_555
C10 N6 1_555 1_555
H10 C10 1_555 1_555
Cd1ZB N4 1_555 1_555
Cd1PC N2 1_555 1_555
N2PB Cd1 1_555 1_555
N4CC Cd1 1_555 1_555
N4 C7 1_555 1_555
C3 C4 1_555 1_555
C4 C9 1_555 1_555
C5 C10 1_555 1_555

#END
