
#######################################################################
#
#                 Cambridge Crystallographic Data Centre
#                                CCDC 
#
#######################################################################
#
# If this CIF has been generated from an entry in the Cambridge 
# Structural Database, then it will include bibliographic, chemical, 
# crystal, experimental, refinement or atomic coordinate data resulting 
# from the CCDC's data processing and validation procedures.
#
#######################################################################

data_KUHWUG
_chemical_formula_moiety         '(C27 H45 Na6 O73 P1 W12)n'
_chemical_name_systematic        
catena-((\m~12~-Phosphato)-tris((\m~4~-benzene-1,3,5-tricarboxylato)-(\m~3~-oxo)-(\m~2~-aqua))-tetracosakis(\m~2~-oxo)-dodexa-aqua-nonaoxa-hexa-sodium-dodexa-tungsten)
_symmetry_cell_setting           rhombohedral
_symmetry_space_group_name_H-M   'R 3 m'
_symmetry_Int_Tables_number      160
_space_group_name_Hall           'R 3 -2"'
loop_
_symmetry_equiv_pos_site_id
_symmetry_equiv_pos_as_xyz
1 x,y,z
2 -y,x-y,z
3 -x+y,-x,z
4 -x+y,y,z
5 x,x-y,z
6 -y,-x,z
7 2/3+x,1/3+y,1/3+z
8 2/3-y,1/3+x-y,1/3+z
9 2/3-x+y,1/3-x,1/3+z
10 2/3-x+y,1/3+y,1/3+z
11 2/3+x,1/3+x-y,1/3+z
12 2/3-y,1/3-x,1/3+z
13 1/3+x,2/3+y,2/3+z
14 1/3-y,2/3+x-y,2/3+z
15 1/3-x+y,2/3-x,2/3+z
16 1/3-x+y,2/3+y,2/3+z
17 1/3+x,2/3+x-y,2/3+z
18 1/3-y,2/3-x,2/3+z
_cell_length_a                   21.350(5)
_cell_length_b                   21.350(5)
_cell_length_c                   13.717(5)
_cell_angle_alpha                90
_cell_angle_beta                 90
_cell_angle_gamma                120
_cell_volume                     5414.84
_exptl_crystal_colour            colorless
_exptl_crystal_description       block
_cell_formula_units_Z            3
loop_
_atom_site_label
_atom_site_type_symbol
_atom_site_fract_x
_atom_site_fract_y
_atom_site_fract_z
C1 C 0.6323(4) 0.7594(4) -0.2175(6)
C2 C 0.6124(6) 0.8062(3) -0.1758(9)
H1 H 0.5853 0.7926 -0.1187
C3 C 0.6961(6) 0.8480(3) -0.3402(8)
C4 C 0.6745(4) 0.7817(4) -0.3008(5)
H2 H 0.6883 0.7512 -0.3302
C5 C 0.6131(4) 0.6890(4) -0.1753(6)
C6 C 0.7443(3) 0.8722(7) -0.4307(9)
O1 O 0.5101(5) 0.2551(2) 0.5395(6)
O2 O 0.62637(19) 0.37363(19) 0.4418(6)
O3 O 0.6667 0.3333 0.1076(8)
O4 O 0.5888(3) 0.29438(17) 0.2573(5)
O5 O 0.4956(3) 0.3091(3) 0.3603(4)
O6 O 0.5758(2) 0.4242(2) 0.2476(5)
O7 O 0.4283(3) 0.3432(4) 0.2104(5)
O8 O 0.4547(4) 0.2274(2) 0.2036(5)
O9 O 0.5357(3) 0.3434(3) 0.0936(4)
O10 O 0.5806(3) 0.4194(3) -0.0827(5)
O11 O 0.5847(4) 0.2923(2) -0.0466(6)
O12 O 0.5807(4) 0.6773(4) -0.0888(5)
H3 H 0.5712 0.6373 -0.0685
O13 O 0.6263(3) 0.6455(3) -0.2144(5)
O14 O 0.7632(4) 0.8299(4) -0.4662(5)
W1 W 0.55196(2) 0.275980(12) 0.42927(3)
W2 W 0.498863(15) 0.32989(2) 0.224427(18)
W3 W 0.613017(13) 0.386983(13) 0.00568(3)
P1 P 0.6667 0.3333 0.2213(4)
Na1 Na 0.6151(5) 0.5299(5) -0.1755(6)
O15 O 0.5046(4) 0.4954(4) -0.2422(12)
H4 H 0.5468 0.5217 -0.2690
O16 O 0.5748(4) 0.5603(4) 0.0050(6)
H5 H 0.6039 0.5746 0.0644
H6 H 0.5393 0.5091 0.0260
O17 O 0.6812(8) 0.4740(8) -0.2675(9)
H7 H 0.6845 0.4775 -0.3257
H8 H 0.6202 0.4560 -0.2369
C1D C 0.6323(4) 0.8729(6) -0.2175(6)
C1H C 0.7938(6) 0.7010(4) 0.1158(6)
C1K C 0.9073(4) 0.7010(4) 0.1158(6)
C1A C 0.2406(4) -0.1271(6) -0.2175(6)
C1C C 0.1271(6) -0.2406(4) -0.2175(6)
C2H C 0.8605(7) 0.7209(6) 0.1575(9)
C2A C 0.1938(3) -0.1938(7) -0.1758(9)
H1H H 0.8740 0.7480 0.2146
H1A H 0.2074 -0.2073 -0.1187
C3H C 0.8186(7) 0.6372(6) -0.0069(8)
C3A C 0.1520(3) -0.1519(7) -0.3402(8)
C4D C 0.6745(4) 0.8928(6) -0.3008(5)
C4H C 0.7739(6) 0.6588(4) 0.0325(5)
C4K C 0.8850(4) 0.6588(4) 0.0325(5)
C4A C 0.2183(4) -0.1072(6) -0.3008(5)
C4C C 0.1072(6) -0.2183(4) -0.3008(5)
H2D H 0.6883 0.9371 -0.3302
H2H H 0.7296 0.6450 0.0031
H2K H 0.9155 0.6450 0.0031
H2A H 0.2488 -0.0629 -0.3302
H2C H 0.0629 -0.2488 -0.3302
C5D C 0.6131(4) 0.9241(6) -0.1753(6)
C5H C 0.7426(6) 0.7202(4) 0.1580(6)
C5K C 0.9777(4) 0.7202(4) 0.1580(6)
C5A C 0.3110(4) -0.0759(6) -0.1753(6)
C5C C 0.0759(6) -0.3110(4) -0.1753(6)
C6H C 0.7946(8) 0.5890(3) -0.0974(9)
C6A C 0.1278(7) -0.1279(8) -0.4307(9)
O1A O 0.7449(2) 0.2550(5) 0.5395(6)
O1B O 0.7450(5) 0.4899(5) 0.5395(6)
O2A O 0.62637(19) 0.25274(27) 0.4418(6)
O2B O 0.74726(27) 0.37363(19) 0.4418(6)
O4B O 0.70558(34) 0.4112(3) 0.2573(5)
O4A O 0.70562(17) 0.29442(34) 0.2573(5)
O5D O 0.4956(3) 0.1865(4) 0.3603(4)
O5A O 0.6909(3) 0.1865(4) 0.3603(4)
O5C O 0.8135(4) 0.3091(3) 0.3603(4)
O5B O 0.8135(4) 0.5044(3) 0.3603(4)
O5E O 0.6909(3) 0.5044(3) 0.3603(4)
O6B O 0.8484(3) 0.4242(2) 0.2476(5)
O6A O 0.5758(2) 0.1516(3) 0.2476(5)
O7B O 0.9149(5) 0.5717(3) 0.2104(5)
O7A O 0.6568(4) 0.0851(5) 0.2104(5)
O7D O 0.4283(3) 0.0851(5) 0.2104(5)
O7E O 0.6568(4) 0.5717(3) 0.2104(5)
O7C O 0.9149(5) 0.3432(4) 0.2104(5)
O8B O 0.7727(4) 0.5453(4) 0.2036(5)
O8A O 0.7726(2) 0.2273(4) 0.2036(5)
O9E O 0.6566(3) 0.4643(3) 0.0936(4)
O9A O 0.6566(3) 0.1923(4) 0.0936(4)
O9D O 0.5357(3) 0.1923(4) 0.0936(4)
O9B O 0.8077(4) 0.4643(3) 0.0936(4)
O9C O 0.8077(4) 0.3434(3) 0.0936(4)
O10A O 0.5806(3) 0.1612(4) -0.0827(5)
O10B O 0.8388(4) 0.4194(3) -0.0827(5)
O11B O 0.7076(4) 0.4153(4) -0.0466(6)
O11A O 0.7077(2) 0.2924(4) -0.0466(6)
O12D O 0.5807(4) 0.9034(6) -0.0888(5)
O12H O 0.7633(6) 0.7526(4) 0.2445(5)
O12K O 0.9894(4) 0.7526(4) 0.2445(5)
O12A O 0.3227(4) -0.0966(6) -0.0888(5)
O12C O 0.0966(6) -0.3227(4) -0.0888(5)
H3D H 0.5712 0.9339 -0.0685
H3H H 0.7328 0.7621 0.2648
H3K H 1.0294 0.7621 0.2648
H3A H 0.3627 -0.0661 -0.0685
H3C H 0.0661 -0.3627 -0.0685
O13D O 0.6263(3) 0.9808(4) -0.2144(5)
O13H O 0.6859(4) 0.7070(3) 0.1189(5)
O13K O 1.0212(3) 0.7070(3) 0.1189(5)
O13A O 0.3545(3) -0.0192(4) -0.2144(5)
O13C O 0.0192(4) -0.3545(3) -0.2144(5)
O13B O 1.0192(4) 0.3737(3) -0.2144(5)
O13E O 0.3545(3) 0.3737(3) -0.2144(5)
O13D_2 O 0.6263(3) -0.0192(4) -0.2144(5)
O13C_2 O 1.0192(4) 0.6455(3) -0.2144(5)
O14D O 0.7632(4) 0.9333(6) -0.4662(5)
O14H O 0.7334(6) 0.5701(4) -0.1329(5)
O14K O 0.8368(4) 0.5701(4) -0.1329(5)
O14A O 0.1701(4) -0.0667(6) -0.4662(5)
O14C O 0.0667(6) -0.1701(4) -0.4662(5)
O14F O 0.4299(4) 0.1632(4) -0.1329(5)
O14G O 0.8368(4) 0.2666(6) -0.1329(5)
O14J O 0.4299(4) 0.2666(6) -0.1329(5)
O14I O 0.7334(6) 0.1632(4) -0.1329(5)
W1A W 0.724020(12) 0.275980(23) 0.42927(3)
W1B W 0.724020(23) 0.44804(2) 0.42927(3)
W2B W 0.831027(25) 0.501137(15) 0.224427(18)
W2A W 0.67011(2) 0.168973(25) 0.224427(18)
W2D W 0.498863(15) 0.168973(25) 0.224427(18)
W2E W 0.67011(2) 0.501137(15) 0.224427(18)
W2C W 0.831027(25) 0.32989(2) 0.224427(18)
W3A W 0.613017(13) 0.226034(18) 0.00568(3)
W3B W 0.773966(18) 0.386983(13) 0.00568(3)
Na1A Na 0.4701(5) 0.0852(7) -0.1755(6)
Na1B Na 0.9148(7) 0.3849(5) -0.1755(6)
Na1E Na 0.4701(5) 0.3849(5) -0.1755(6)
Na1D Na 0.6151(5) 0.0852(7) -0.1755(6)
Na1C Na 0.9148(7) 0.5299(5) -0.1755(6)
Na1M Na 0.8034(5) 0.7519(7) -0.5088(6)
Na1Q Na 0.8034(5) 1.0516(5) -0.5088(6)
Na1D_2 Na 0.6151(5) 1.0852(7) -0.1755(6)
Na1H Na 0.5815(7) 0.7182(5) 0.1578(6)
Na1K Na 1.1368(5) 0.7182(5) 0.1578(6)
Na1N Na 0.2481(7) 0.0516(5) -0.5088(6)
Na1P Na -0.0516(5) -0.2481(7) -0.5088(6)
Na1C_2 Na -0.0852(7) -0.4701(5) -0.1755(6)
O15A O 0.5046(4) 0.0092(6) -0.2422(12)
O15B O 0.9908(6) 0.4954(4) -0.2422(12)
H4E H 0.4783 0.4532 -0.2690
H4A H 0.4783 0.0251 -0.2690
H4D H 0.5468 0.0251 -0.2690
H4B H 0.9749 0.4532 -0.2690
H4C H 0.9749 0.5217 -0.2690
O16A O 0.4397(4) 0.0145(6) 0.0050(6)
O16B O 0.9855(6) 0.4252(4) 0.0050(6)
O16E O 0.4397(4) 0.4252(4) 0.0050(6)
O16D O 0.5748(4) 0.0145(6) 0.0050(6)
O16C O 0.9855(6) 0.5603(4) 0.0050(6)
H5A H 0.4254 0.0293 0.0644
H5B H 0.9707 0.3961 0.0644
H5E H 0.4254 0.3961 0.0644
H5D H 0.6039 0.0293 0.0644
H5C H 0.9707 0.5746 0.0644
H6A H 0.4909 0.0302 0.0260
H6B H 0.9698 0.4607 0.0260
H6E H 0.4909 0.4607 0.0260
H6D H 0.5393 0.0302 0.0260
H6C H 0.9698 0.5091 0.0260
O17A O 0.5260(8) 0.2072(11) -0.2675(9)
O17B O 0.7928(11) 0.3188(8) -0.2675(9)
O17E O 0.5260(8) 0.3188(8) -0.2675(9)
O17D O 0.6812(8) 0.2072(11) -0.2675(9)
O17C O 0.7928(11) 0.4740(8) -0.2675(9)
H7A H 0.5225 0.2070 -0.3257
H7B H 0.7930 0.3155 -0.3257
H7E H 0.5225 0.3155 -0.3257
H7D H 0.6845 0.2070 -0.3257
H7C H 0.7930 0.4775 -0.3257
H8A H 0.5440 0.1642 -0.2369
H8B H 0.8358 0.3798 -0.2369
H8E H 0.5440 0.3798 -0.2369
H8D H 0.6202 0.1642 -0.2369
H8C H 0.8358 0.4560 -0.2369
H9? H 0.6462 0.4835 -0.3596
H10? H 0.6423 0.5087 -0.2672
O18? O 0.6422(12) 0.4573(10) -0.2875(12)
loop_
_geom_bond_atom_site_label_1
_geom_bond_atom_site_label_2
_geom_bond_site_symmetry_1
_geom_bond_site_symmetry_2
C1 C2 1_555 1_555
C2 H1 1_555 1_555
C3 C4 1_555 1_555
C4 C1 1_555 1_555
H2 C4 1_555 1_555
C5 C1 1_555 1_555
C6 C3 1_555 1_555
O1 W1 1_555 1_555
O2 W1 1_555 1_555
O3 W3 1_555 1_555
O4 W1 1_555 1_555
O5 W1 1_555 1_555
O6 W2 1_555 1_555
O7 W2 1_555 1_555
O8 W2 1_555 1_555
O9 W2 1_555 1_555
O10 W3 1_555 1_555
O11 W3 1_555 1_555
O12 C5 1_555 1_555
H3 O12 1_555 1_555
O13 C5 1_555 1_555
O14 C6 1_555 1_555
W1 O2A 1_555 1_555
W2 O4 1_555 1_555
W3 O9 1_555 1_555
P1 O3 1_555 1_555
Na1 O10 1_555 1_555
O15 Na1 1_555 1_555
H4 O15 1_555 1_555
O16 Na1 1_555 1_555
H5 O16 1_555 1_555
H6 O16 1_555 1_555
O17 Na1 1_555 1_555
H7 O17 1_555 1_555
H8 O17 1_555 1_555
C1D C2 1_555 1_555
C1H C2H 1_555 1_555
C1K C2H 1_555 1_555
C1A C2A 1_555 1_555
C1C C2A 1_555 1_555
C2H H1H 1_555 1_555
C2A H1A 1_555 1_555
C3H C4H 1_555 1_555
C3A C4A 1_555 1_555
C4D C3 1_555 1_555
C4H C1H 1_555 1_555
C4K C1K 1_555 1_555
C4A C1A 1_555 1_555
C4C C1C 1_555 1_555
H2D C4D 1_555 1_555
H2H C4H 1_555 1_555
H2K C4K 1_555 1_555
H2A C4A 1_555 1_555
H2C C4C 1_555 1_555
C5D C1D 1_555 1_555
C5H C1H 1_555 1_555
C5K C1K 1_555 1_555
C5A C1A 1_555 1_555
C5C C1C 1_555 1_555
C6H C3H 1_555 1_555
C6A C3A 1_555 1_555
O1A W1A 1_555 1_555
O1B W1B 1_555 1_555
O2A W1A 1_555 1_555
O2B W1A 1_555 1_555
O4B P1 1_555 1_555
O4A P1 1_555 1_555
O5D W1 1_555 1_555
O5A W1A 1_555 1_555
O5C W1A 1_555 1_555
O5B W1B 1_555 1_555
O5E W1B 1_555 1_555
O6B W2B 1_555 1_555
O6A W2A 1_555 1_555
O7B W2B 1_555 1_555
O7A W2A 1_555 1_555
O7D W2D 1_555 1_555
O7E W2E 1_555 1_555
O7C W2C 1_555 1_555
O8B W2B 1_555 1_555
O8A W2A 1_555 1_555
O9E W3 1_555 1_555
O9A W2A 1_555 1_555
O9D W2D 1_555 1_555
O9B W2B 1_555 1_555
O9C W2C 1_555 1_555
O10A W3A 1_555 1_555
O10B W3B 1_555 1_555
O11B W3 1_555 1_555
O11A W3A 1_555 1_555
O12D C5D 1_555 1_555
O12H C5H 1_555 1_555
O12K C5K 1_555 1_555
O12A C5A 1_555 1_555
O12C C5C 1_555 1_555
H3D O12D 1_555 1_555
H3H O12H 1_555 1_555
H3K O12K 1_555 1_555
H3A O12A 1_555 1_555
H3C O12C 1_555 1_555
O13D C5D 1_555 1_555
O13H C5H 1_555 1_555
O13K C5K 1_555 1_555
O13A C5A 1_555 1_555
O13C C5C 1_555 1_555
O13B Na1B 1_555 1_555
O13E Na1E 1_555 1_555
O13D_2 Na1D 1_555 1_555
O13C_2 Na1C 1_555 1_555
O14D C6 1_555 1_555
O14H Na1 1_555 1_555
O14K C6H 1_555 1_555
O14A C6A 1_555 1_555
O14C C6A 1_555 1_555
O14F Na1A 1_555 1_555
O14G Na1B 1_555 1_555
O14J Na1E 1_555 1_555
O14I Na1D 1_555 1_555
W1A O4A 1_555 1_555
W1B O2 1_555 1_555
W2B O4B 1_555 1_555
W2A O4A 1_555 1_555
W2D O4 1_555 1_555
W2E O6 1_555 1_555
W2C O4A 1_555 1_555
W3A O3 1_555 1_555
W3B O3 1_555 1_555
Na1A O10A 1_555 1_555
Na1B O10B 1_555 1_555
Na1E O10 1_555 1_555
Na1D O10A 1_555 1_555
Na1C O10B 1_555 1_555
Na1M O14 1_555 1_555
Na1Q O14D 1_555 1_555
Na1D_2 O13D 1_555 1_555
Na1H O13H 1_555 1_555
Na1K O13K 1_555 1_555
Na1N O14A 1_555 1_555
Na1P O14C 1_555 1_555
Na1C_2 O13C 1_555 1_555
O15A Na1A 1_555 1_555
O15B Na1B 1_555 1_555
H4E O15 1_555 1_555
H4A O15A 1_555 1_555
H4D O15A 1_555 1_555
H4B O15B 1_555 1_555
H4C O15B 1_555 1_555
O16A Na1A 1_555 1_555
O16B Na1B 1_555 1_555
O16E Na1E 1_555 1_555
O16D Na1D 1_555 1_555
O16C Na1C 1_555 1_555
H5A O16A 1_555 1_555
H5B O16B 1_555 1_555
H5E O16E 1_555 1_555
H5D O16D 1_555 1_555
H5C O16C 1_555 1_555
H6A O16A 1_555 1_555
H6B O16B 1_555 1_555
H6E O16E 1_555 1_555
H6D O16D 1_555 1_555
H6C O16C 1_555 1_555
O17A Na1A 1_555 1_555
O17B Na1B 1_555 1_555
O17E Na1E 1_555 1_555
O17D Na1D 1_555 1_555
O17C Na1C 1_555 1_555
H7A O17A 1_555 1_555
H7B O17B 1_555 1_555
H7E O17E 1_555 1_555
H7D O17D 1_555 1_555
H7C O17C 1_555 1_555
H8A O17A 1_555 1_555
H8B O17B 1_555 1_555
H8E O17E 1_555 1_555
H8D O17D 1_555 1_555
H8C O17C 1_555 1_555
O4 P1 1_555 1_555
O5 W2 1_555 1_555
O8 W2D 1_555 1_555
O11 W3A 1_555 1_555
O13 Na1 1_555 1_555
O15 Na1E 1_555 1_555
C1D C4D 1_555 1_555
C3H C4K 1_555 1_555
C3A C4C 1_555 1_555
C6H O14H 1_555 1_555
O2B W1B 1_555 1_555
O4B W1B 1_555 1_555
O4B W2E 1_555 1_555
O5D W2D 1_555 1_555
O5A W2A 1_555 1_555
O5C W2C 1_555 1_555
O5B W2B 1_555 1_555
O5E W2E 1_555 1_555
O6B W2C 1_555 1_555
O6A W2D 1_555 1_555
O8B W2E 1_555 1_555
O8A W2C 1_555 1_555
O9E W2E 1_555 1_555
O9A W3A 1_555 1_555
O9D W3A 1_555 1_555
O9B W3B 1_555 1_555
O9C W3B 1_555 1_555
O11B W3B 1_555 1_555
O11A W3B 1_555 1_555
O13A Na1A 1_555 1_555
O14K Na1C 1_555 1_555
Na1D O15A 1_555 1_555
Na1C O15B 1_555 1_555

#END
