
#######################################################################
#
#                 Cambridge Crystallographic Data Centre
#                                CCDC 
#
#######################################################################
#
# If this CIF has been generated from an entry in the Cambridge 
# Structural Database, then it will include bibliographic, chemical, 
# crystal, experimental, refinement or atomic coordinate data resulting 
# from the CCDC's data processing and validation procedures.
#
#######################################################################

data_SOVLEW
_chemical_name_common            rht-MOF-9
_chemical_formula_moiety         
'(C66 H48 Cu6 N20 O30 S3)n,23.02(H2 O1),2.08(C2 H6 O1 S1)'
_chemical_name_systematic        
"catena-[bis(\m-5,5',5''-(1,3,4,6,7,9,9b-heptaazaphenalene-2,5,8-triyltriimino)triisophthalato)-tris(dimethyl sulfoxide)-triaqua-hexa-copper dimethyl sulfoxide solvate hydrate]"
_symmetry_cell_setting           tetragonal
_symmetry_space_group_name_H-M   'I 4/m'
_symmetry_Int_Tables_number      87
_space_group_name_Hall           '-I 4'
loop_
_symmetry_equiv_pos_site_id
_symmetry_equiv_pos_as_xyz
1 x,y,z
2 -x,-y,z
3 -y,x,z
4 y,-x,z
5 1/2+x,1/2+y,1/2+z
6 1/2-x,1/2-y,1/2+z
7 1/2-y,1/2+x,1/2+z
8 1/2+y,1/2-x,1/2+z
9 -x,-y,-z
10 x,y,-z
11 y,-x,-z
12 -y,x,-z
13 1/2-x,1/2-y,1/2-z
14 1/2+x,1/2+y,1/2-z
15 1/2+y,1/2-x,1/2-z
16 1/2-y,1/2+x,1/2-z
_cell_length_a                   27.934(2)
_cell_length_b                   27.934(2)
_cell_length_c                   41.081(4)
_cell_angle_alpha                90
_cell_angle_beta                 90
_cell_angle_gamma                90
_cell_volume                     32055.8
_exptl_crystal_colour            green
_exptl_crystal_description       block
_cell_formula_units_Z            8
loop_
_atom_site_label
_atom_site_type_symbol
_atom_site_fract_x
_atom_site_fract_y
_atom_site_fract_z
O17 O 0.1776(2) 0.7512(2) 0.7122(2)
O18 O 0.4785(14) 0.5834(14) 0.6229(10)
O19 O 0.45050(14) 0.99251(16) 0.54728(12)
O20 O 0.1883(3) 0.8316(2) 0.67910(18)
C34 C 0.1640(5) 0.9124(5) 0.7218(3)
S3 S 0.1471(3) 0.8607(3) 0.6921(2)
C35 C 0.1333(16) 0.8994(14) 0.6589(8)
O21 O 0.2747(8) 1.1618(8) 0.6361(5)
O22 O 0.4747(18) 0.8598(17) 0.7347(12)
O23 O 0.3934(13) 0.9750(13) 0.6912(8)
O24 O 0.2362(14) 1.1148(14) 0.6205(10)
O25 O 0.0000 1.0000 0.696(3)
O26 O 0.285(2) 1.126(2) 0.5797(15)
O27 O 0.214(3) 1.161(3) 0.585(2)
O28 O 0.305(2) 1.189(2) 0.5713(14)
O29 O 0.0347(18) 0.8975(18) 0.7175(12)
Cu1 Cu 0.26693(2) 0.63202(2) 0.68216(2)
Cu2 Cu 0.59584(2) 1.13208(2) 0.5000
Cu3 Cu 0.09832(2) 1.17464(2) 0.86277(2)
Cu4 Cu 0.42643(3) 0.77590(2) 0.5000
O1 O 0.14932(10) 1.17368(9) 0.79555(6)
O2 O 0.31409(11) 0.66080(10) 0.61599(6)
O3 O 0.17320(9) 0.95733(9) 0.83360(7)
O4 O 0.36007(11) 0.84686(10) 0.53436(7)
O5 O 0.37813(12) 0.76910(10) 0.53373(7)
O6 O 0.38906(10) 1.21715(9) 0.65199(7)
O7 O 0.22964(10) 0.93232(9) 0.79892(7)
O8 O 0.12972(10) 1.12499(9) 0.83689(7)
O9 O 0.54548(11) 1.12450(10) 0.53291(7)
O10 O 0.21928(13) 0.66219(13) 0.71680(9)
O11 O 0.42648(10) 1.26704(10) 0.61760(7)
O12 O 0.27248(10) 0.69175(10) 0.65754(6)
O13 O 0.52870(12) 1.20263(11) 0.53322(8)
O14 O 0.61273(18) 1.05775(14) 0.5000
C1 C 0.41456(14) 1.22613(14) 0.62750(10)
C2 C 0.17284(13) 1.04754(13) 0.80745(10)
H1 H 0.1546 1.0418 0.8266
C3 C 0.14851(13) 1.13365(13) 0.81002(9)
C4 C 0.19901(14) 1.01069(13) 0.79327(10)
C5 C 0.29729(15) 0.74337(14) 0.61596(9)
C6 C 0.20072(13) 0.96289(13) 0.80998(9)
C7 C 0.17346(14) 1.09281(13) 0.79345(10)
C8 C 0.52243(15) 1.16045(14) 0.54216(10)
C9 C 0.22502(16) 1.01911(14) 0.76479(11)
H2 H 0.2426 0.9938 0.7550
C10 C 0.27780(18) 0.78236(15) 0.63217(10)
H3 H 0.2605 0.7774 0.6518
C11 C 0.32245(14) 0.75055(14) 0.58710(9)
H4 H 0.3359 0.7241 0.5758
C12 C 0.43190(15) 1.18440(15) 0.60766(10)
C13 C 0.19927(18) 1.10117(14) 0.76513(11)
H5 H 0.1993 1.1321 0.7555
C14 C 0.41222(17) 1.13960(16) 0.61272(11)
H6 H 0.3883 1.1352 0.6289
C15 C 0.42754(18) 1.10121(16) 0.59407(12)
C16 C 0.32767(15) 0.79671(14) 0.57500(9)
C17 C 0.46667(15) 1.19151(15) 0.58417(10)
H7 H 0.4787 1.2227 0.5800
C18 C 0.35735(14) 0.80469(13) 0.54500(9)
C19 C 0.48364(15) 1.15274(15) 0.56685(10)
C20 C 0.46428(18) 1.10746(16) 0.57152(12)
H8 H 0.4760 1.0809 0.5594
N1 N 0.40780(18) 1.05416(14) 0.59563(12)
H9 H 0.4195 1.0335 0.5815
N2 N 0.25829(17) 0.93463(13) 0.66744(11)
N3 N 0.26406(18) 0.86553(14) 0.63936(10)
H10 H 0.2382 0.8583 0.6505
N4 N 0.31336(18) 0.92743(13) 0.62294(11)
C21 C 0.2800(2) 0.91071(16) 0.64295(13)
C22 C 0.28313(18) 0.82825(15) 0.62022(11)
C23 C 0.2728(2) 0.97893(16) 0.67284(13)
C24 C 0.30775(17) 0.83551(15) 0.59119(10)
H11 H 0.3109 0.8669 0.5825
C25 C 0.3279(2) 0.97207(16) 0.62745(13)
C26 C 0.22517(19) 1.06413(15) 0.75084(12)
C27 C 0.29427(14) 0.69448(14) 0.63097(9)
C28 C 0.3738(2) 1.03690(17) 0.61563(14)
N5 N 0.30809(17) 0.99925(13) 0.65277(10)
N6 N 0.36137(18) 0.99101(14) 0.60914(11)
N7 N 0.25520(18) 1.00410(13) 0.69733(11)
N8 N 0.3558(2) 1.06504(15) 0.63859(12)
C29 C 0.3223(2) 1.04581(17) 0.65764(14)
N9 N 0.3031(2) 1.07162(15) 0.68110(14)
C30 C 0.2705(2) 1.04888(17) 0.70003(14)
N10 N 0.2529(2) 1.07685(14) 0.72367(12)
H12 H 0.2598 1.1075 0.7219
S1 S 0.65662(11) 1.02736(11) 0.5000
S2 S 0.17566(12) 0.64630(13) 0.73490(8)
C31 C 0.1453(6) 0.6016(6) 0.7151(4)
C32 C 0.6913(4) 1.0477(4) 0.5334(3)
C33 C 0.2024(7) 0.6181(6) 0.7670(4)
O15 O 0.4473(3) 0.7024(2) 0.50781(19)
O16 O 0.0632(7) 1.1238(6) 0.8948(4)
C32I C 0.6913(4) 1.0477(4) 0.4666(3)
O15I O 0.4473(3) 0.7024(2) 0.49219(19)
Cu1A Cu 0.73307(2) 1.36798(2) 0.68216(2)
Cu3A Cu 0.90168(2) 0.82536(2) 0.86277(2)
O1A O 0.85068(10) 0.82632(9) 0.79555(6)
O2A O 0.68591(11) 1.33920(10) 0.61599(6)
O3A O 0.82680(9) 1.04267(9) 0.83360(7)
O4A O 0.63993(11) 1.15314(10) 0.53436(7)
O5A O 0.62187(12) 1.23090(10) 0.53373(7)
O6A O 0.61094(10) 0.78285(9) 0.65199(7)
O7A O 0.77036(10) 1.06768(9) 0.79892(7)
O8A O 0.87028(10) 0.87501(9) 0.83689(7)
O9A O 0.45452(11) 0.87550(10) 0.53291(7)
O10A O 0.78072(13) 1.33781(13) 0.71680(9)
O11A O 0.57352(10) 0.73296(10) 0.61760(7)
O12A O 0.72752(10) 1.30825(10) 0.65754(6)
O13A O 0.47130(12) 0.79737(11) 0.53322(8)
C1A C 0.58544(14) 0.77387(14) 0.62750(10)
C2A C 0.82716(13) 0.95246(13) 0.80745(10)
H1A H 0.8454 0.9582 0.8266
C3A C 0.85149(13) 0.86635(13) 0.81002(9)
C4A C 0.80099(14) 0.98931(13) 0.79327(10)
C5A C 0.70271(15) 1.25663(14) 0.61596(9)
C6A C 0.79928(13) 1.03711(13) 0.80998(9)
C7A C 0.82654(14) 0.90719(13) 0.79345(10)
C8A C 0.47757(15) 0.83955(14) 0.54216(10)
C9A C 0.77498(16) 0.98089(14) 0.76479(11)
H2A H 0.7574 1.0062 0.7550
C10A C 0.72220(18) 1.21764(15) 0.63217(10)
H3A H 0.7395 1.2226 0.6518
C11A C 0.67755(14) 1.24945(14) 0.58710(9)
H4A H 0.6641 1.2759 0.5758
C12A C 0.56810(15) 0.81560(15) 0.60766(10)
C13A C 0.80073(18) 0.89883(14) 0.76513(11)
H5A H 0.8007 0.8679 0.7555
C14A C 0.58778(17) 0.86040(16) 0.61272(11)
H6A H 0.6117 0.8648 0.6289
C15A C 0.57246(18) 0.89879(16) 0.59407(12)
C16A C 0.67233(15) 1.20329(14) 0.57500(9)
C17A C 0.53333(15) 0.80849(15) 0.58417(10)
H7A H 0.5213 0.7773 0.5800
C18A C 0.64265(14) 1.19531(13) 0.54500(9)
C19A C 0.51636(15) 0.84726(15) 0.56685(10)
C20A C 0.53572(18) 0.89254(16) 0.57152(12)
H8A H 0.5240 0.9191 0.5594
N1A N 0.59220(18) 0.94584(14) 0.59563(12)
H9A H 0.5805 0.9665 0.5815
N2A N 0.74171(17) 1.06537(13) 0.66744(11)
N3A N 0.73594(18) 1.13447(14) 0.63936(10)
H10A H 0.7618 1.1417 0.6505
N4A N 0.68664(18) 1.07257(13) 0.62294(11)
C21A C 0.7200(2) 1.08929(16) 0.64295(13)
C22A C 0.71687(18) 1.17175(15) 0.62022(11)
C23A C 0.7272(2) 1.02107(16) 0.67284(13)
C24A C 0.69225(17) 1.16449(15) 0.59119(10)
H11A H 0.6891 1.1331 0.5825
C25A C 0.6721(2) 1.02793(16) 0.62745(13)
C26A C 0.77483(19) 0.93587(15) 0.75084(12)
C27A C 0.70573(14) 1.30552(14) 0.63097(9)
C28A C 0.6262(2) 0.96310(17) 0.61563(14)
N5A N 0.69191(17) 1.00075(13) 0.65277(10)
N6A N 0.63863(18) 1.00899(14) 0.60914(11)
N7A N 0.74480(18) 0.99590(13) 0.69733(11)
N8A N 0.6442(2) 0.93496(15) 0.63859(12)
C29A C 0.6777(2) 0.95419(17) 0.65764(14)
N9A N 0.6969(2) 0.92838(15) 0.68110(14)
C30A C 0.7295(2) 0.95112(17) 0.70003(14)
N10A N 0.7471(2) 0.92315(14) 0.72367(12)
H12A H 0.7402 0.8925 0.7219
S2A S 0.82434(12) 1.35370(13) 0.73490(8)
C31A C 0.8547(6) 1.3984(6) 0.7151(4)
C33A C 0.7976(7) 1.3819(6) 0.7670(4)
O16A O 0.9368(7) 0.8762(6) 0.8948(4)
Cu1B Cu 0.36798(2) 1.26693(2) 0.68216(2)
Cu1C Cu 0.63202(2) 0.73307(2) 0.68216(2)
Cu1L Cu 0.23307(2) 0.86798(2) 0.81784(2)
Cu1M Cu 0.76693(2) 1.13202(2) 0.81784(2)
Cu1N Cu 0.13202(2) 1.23307(2) 0.81784(2)
Cu1O Cu 0.86798(2) 0.76693(2) 0.81784(2)
Cu2A Cu 0.40416(2) 0.86792(2) 0.5000
Cu3B Cu 0.82536(2) 1.09832(2) 0.86277(2)
Cu3C Cu 0.17464(2) 0.90168(2) 0.86277(2)
Cu3L Cu 0.40168(2) 1.32536(2) 0.63723(2)
Cu3M Cu 0.59832(2) 0.67464(2) 0.63723(2)
Cu3N Cu 0.67464(2) 1.40168(2) 0.63723(2)
Cu3O Cu 0.32536(2) 0.59832(2) 0.63723(2)
Cu4A Cu 0.57357(3) 1.22410(2) 0.5000
O1N O 0.67368(9) 1.35068(10) 0.70445(6)
O1O O 0.32632(9) 0.64932(10) 0.70445(6)
O2N O 0.16080(10) 1.18591(11) 0.88401(6)
O2O O 0.83920(10) 0.81409(11) 0.88401(6)
O3B O 0.04267(9) 1.17320(9) 0.83360(7)
O3C O 0.95733(9) 0.82680(9) 0.83360(7)
O4H O 0.63993(11) 1.15314(10) 0.46564(7)
O5I O 0.37813(12) 0.76910(10) 0.46627(7)
O6B O 0.78285(9) 1.38906(10) 0.65199(7)
O6C O 0.21715(9) 0.61094(10) 0.65199(7)
O7L O 0.27036(10) 0.56768(9) 0.70108(7)
O7M O 0.72964(10) 1.43232(9) 0.70108(7)
O9I O 0.54548(11) 1.12450(10) 0.46709(7)
O11L O 0.07352(10) 1.23296(10) 0.88240(7)
O11M O 0.92648(10) 0.76704(10) 0.88240(7)
O13H O 0.47130(12) 0.79737(11) 0.46678(8)
S4? S 0.1544(4) 0.8815(4) 0.6810(3)
C36? C 0.0978(8) 0.8590(10) 0.6883(7)
S5? S 0.1954(4) 0.6208(4) 0.7399(2)
S6? S 0.6711(5) 1.0513(6) 0.5000
C37? C 0.6775(13) 1.0304(12) 0.5403(5)
S7? S 0.4611(4) 0.6381(5) 0.5689(3)
O30? O 0.3998(8) 0.8534(9) 0.6598(6)
O31? O 0.3997(11) 0.8222(13) 0.6563(8)
O32? O 0.4564(11) 0.8153(11) 0.6555(8)
O33? O 0.4320(15) 0.7924(15) 0.6393(10)
O34? O 0.3841(18) 0.8859(18) 0.6815(12)
O35? O 0.435(2) 0.8207(18) 0.6829(12)
O36? O 0.489(2) 0.8261(19) 0.6796(14)
O37? O 0.4066(19) 0.8004(18) 0.6762(13)
O38? O 0.5869(14) 0.6796(15) 0.5000
O39? O 0.5827(13) 0.7225(13) 0.5323(10)
O40? O 0.0000 1.0000 0.8093(11)
O41? O -0.0485(17) 0.986(2) 0.8368(11)
O42? O 0.0000 1.0000 0.849(3)
O43? O -0.033(3) 0.949(3) 0.8220(17)
O44? O 0.5000 1.0000 0.6367(15)
O45? O 0.475(3) 0.978(3) 0.6660(18)
O46? O 0.4279(9) 0.8820(9) 0.6246(7)
O47? O 0.4207(15) 0.9102(15) 0.5930(10)
O48? O 0.237(2) 0.832(3) 0.5000
O49? O 0.245(2) 0.773(2) 0.5000
O50? O 0.6512(13) 0.6762(13) 0.4695(9)
O51? O 0.685(2) 0.690(2) 0.5000
O52? O 0.244(2) 1.044(2) 0.5884(17)
O53? O 0.224(2) 1.028(3) 0.6092(17)
O54? O 0.169(3) 1.011(3) 0.621(2)
O55? O 0.2198(16) 0.9935(19) 0.6001(11)
O56? O 0.193(2) 0.965(2) 0.5939(15)
O57? O 0.0864(16) 0.9481(15) 0.7522(11)
O58? O 0.5000 0.5000 0.5000
O59? O 0.5000 0.5000 0.521(12)
S8? S 0.1987(4) 0.6981(3) 0.7384(2)
S9? S 0.2493(5) 0.6879(5) 0.7465(3)
O60? O 0.4678(6) 0.6137(6) 0.5978(4)
O61? O 0.5010(9) 0.6695(9) 0.5553(6)
S10? S 0.5090(5) 0.6187(5) 0.6052(4)
S11? S 0.4199(5) 0.6723(5) 0.5356(3)
S12? S 0.4775(8) 0.6870(8) 0.5362(5)
C38? C 0.1715(7) 0.6587(6) 0.7658(3)
O62? O 0.0796(11) 1.1290(10) 0.9027(7)
O63? O 0.1105(17) 0.9169(16) 0.7201(11)
C39? C 0.2030(12) 0.6805(13) 0.7780(5)
C40? C 0.2424(10) 0.7437(9) 0.7288(7)
O64? O 0.2805(11) 0.7548(11) 0.7219(7)
C41? C 0.4446(6) 0.7031(6) 0.6018(4)
C42? C 0.4059(9) 0.6448(9) 0.5533(6)
S13? S 0.4560(2) 0.6570(2) 0.57755(15)
C43? C 0.3372(13) 1.1007(14) 0.5338(8)
S14? S 0.3752(7) 1.0966(6) 0.5000
O65? O 0.4162(9) 1.0628(10) 0.5000
C44? C 0.3959(15) 1.1553(9) 0.5000
loop_
_geom_bond_atom_site_label_1
_geom_bond_atom_site_label_2
_geom_bond_site_symmetry_1
_geom_bond_site_symmetry_2
Cu1 O10 1_555 1_555
Cu2 O9 1_555 1_555
Cu3 O8 1_555 1_555
Cu4 O5 1_555 1_555
O1 C3 1_555 1_555
O2 C27 1_555 1_555
O3 C6 1_555 1_555
O4 C18 1_555 1_555
O5 C18 1_555 1_555
O6 C1 1_555 1_555
O7 C6 1_555 1_555
O8 C3 1_555 1_555
O9 C8 1_555 1_555
O10 S2 1_555 1_555
O11 C1 1_555 1_555
O12 Cu1 1_555 1_555
O13 C8 1_555 1_555
O14 Cu2 1_555 1_555
C1 C12 1_555 1_555
C2 H1 1_555 1_555
C3 C7 1_555 1_555
C4 C2 1_555 1_555
C5 C10 1_555 1_555
C6 C4 1_555 1_555
C7 C2 1_555 1_555
C8 C19 1_555 1_555
C9 C4 1_555 1_555
H2 C9 1_555 1_555
C10 H3 1_555 1_555
C11 C5 1_555 1_555
H4 C11 1_555 1_555
C12 C14 1_555 1_555
C13 C7 1_555 1_555
H5 C13 1_555 1_555
C14 H6 1_555 1_555
C15 C14 1_555 1_555
C16 C11 1_555 1_555
C17 C12 1_555 1_555
H7 C17 1_555 1_555
C18 C16 1_555 1_555
C19 C17 1_555 1_555
C20 C15 1_555 1_555
H8 C20 1_555 1_555
N1 C15 1_555 1_555
H9 N1 1_555 1_555
N2 C21 1_555 1_555
N3 H10 1_555 1_555
N4 C21 1_555 1_555
C21 N3 1_555 1_555
C22 C10 1_555 1_555
C23 N2 1_555 1_555
C24 C16 1_555 1_555
H11 C24 1_555 1_555
C25 N4 1_555 1_555
C26 C9 1_555 1_555
C27 O12 1_555 1_555
C28 N1 1_555 1_555
N5 C23 1_555 1_555
N6 C25 1_555 1_555
N7 C23 1_555 1_555
N8 C28 1_555 1_555
C29 N5 1_555 1_555
N9 C29 1_555 1_555
C30 N7 1_555 1_555
N10 C26 1_555 1_555
H12 N10 1_555 1_555
S1 O14 1_555 1_555
S2 C31 1_555 1_555
C32 S1 1_555 1_555
C33 S2 1_555 1_555
O15 Cu4 1_555 1_555
O16 Cu3 1_555 1_555
O20 S3 1_555 1_555
C34 S3 1_555 1_555
S3 C35 1_555 1_555
C32I S1 1_555 1_555
O15I Cu4 1_555 1_555
Cu1A O10A 1_555 1_555
Cu3A O8A 1_555 1_555
O1A C3A 1_555 1_555
O2A C27A 1_555 1_555
O3A C6A 1_555 1_555
O4A Cu2 1_555 1_555
O5A C18A 1_555 1_555
O6A C1A 1_555 1_555
O7A C6A 1_555 1_555
O8A C3A 1_555 1_555
O9A C8A 1_555 1_555
O10A S2A 1_555 1_555
O11A C1A 1_555 1_555
O12A Cu1A 1_555 1_555
O13A Cu4 1_555 1_555
C1A C12A 1_555 1_555
C2A H1A 1_555 1_555
C3A C7A 1_555 1_555
C4A C2A 1_555 1_555
C5A C10A 1_555 1_555
C6A C4A 1_555 1_555
C7A C2A 1_555 1_555
C8A O13A 1_555 1_555
C9A C4A 1_555 1_555
H2A C9A 1_555 1_555
C10A H3A 1_555 1_555
C11A C5A 1_555 1_555
H4A C11A 1_555 1_555
C12A C14A 1_555 1_555
C13A C7A 1_555 1_555
H5A C13A 1_555 1_555
C14A H6A 1_555 1_555
C15A C14A 1_555 1_555
C16A C11A 1_555 1_555
C17A C12A 1_555 1_555
H7A C17A 1_555 1_555
C18A O4A 1_555 1_555
C19A C8A 1_555 1_555
C20A C15A 1_555 1_555
H8A C20A 1_555 1_555
N1A C15A 1_555 1_555
H9A N1A 1_555 1_555
N2A C21A 1_555 1_555
N3A H10A 1_555 1_555
N4A C21A 1_555 1_555
C21A N3A 1_555 1_555
C22A C10A 1_555 1_555
C23A N2A 1_555 1_555
C24A C16A 1_555 1_555
H11A C24A 1_555 1_555
C25A N4A 1_555 1_555
C26A C9A 1_555 1_555
C27A O12A 1_555 1_555
C28A N1A 1_555 1_555
N5A C23A 1_555 1_555
N6A C25A 1_555 1_555
N7A C23A 1_555 1_555
N8A C28A 1_555 1_555
C29A N5A 1_555 1_555
N9A C29A 1_555 1_555
C30A N7A 1_555 1_555
N10A C26A 1_555 1_555
H12A N10A 1_555 1_555
S2A C31A 1_555 1_555
C33A S2A 1_555 1_555
O16A Cu3A 1_555 1_555
Cu1B O6 1_555 1_555
Cu1C O6A 1_555 1_555
Cu1L O7 1_555 1_555
Cu1M O7A 1_555 1_555
Cu1N O1 1_555 1_555
Cu1O O1A 1_555 1_555
Cu2A O4 1_555 1_555
Cu3B O3A 1_555 1_555
Cu3C O3 1_555 1_555
Cu3L O11 1_555 1_555
Cu3M O11A 1_555 1_555
Cu3N O2A 1_555 1_555
Cu3O O2 1_555 1_555
Cu4A O13 1_555 1_555
O1N Cu1A 1_555 1_555
O1O Cu1 1_555 1_555
O2N Cu3 1_555 1_555
O2O Cu3A 1_555 1_555
O3B Cu3 1_555 1_555
O3C Cu3A 1_555 1_555
O4H Cu2 1_555 1_555
O5I Cu4 1_555 1_555
O6B Cu1A 1_555 1_555
O6C Cu1 1_555 1_555
O7L Cu1 1_555 1_555
O7M Cu1A 1_555 1_555
O9I Cu2 1_555 1_555
O11L Cu3 1_555 1_555
O11M Cu3A 1_555 1_555
O13H Cu4 1_555 1_555
C5 C27 1_555 1_555
C13 C26 1_555 1_555
C19 C20 1_555 1_555
N3 C22 1_555 1_555
C22 C24 1_555 1_555
C25 N5 1_555 1_555
C28 N6 1_555 1_555
N8 C29 1_555 1_555
N9 C30 1_555 1_555
C30 N10 1_555 1_555
O15 O15I 1_555 1_555
O5A Cu4A 1_555 1_555
O9A Cu2A 1_555 1_555
C5A C27A 1_555 1_555
C13A C26A 1_555 1_555
C16A C18A 1_555 1_555
C17A C19A 1_555 1_555
C19A C20A 1_555 1_555
N3A C22A 1_555 1_555
C22A C24A 1_555 1_555
C25A N5A 1_555 1_555
C28A N6A 1_555 1_555
N8A C29A 1_555 1_555
N9A C30A 1_555 1_555
C30A N10A 1_555 1_555

#END
