
#######################################################################
#
#                 Cambridge Crystallographic Data Centre
#                                CCDC 
#
#######################################################################
#
# If this CIF has been generated from an entry in the Cambridge 
# Structural Database, then it will include bibliographic, chemical, 
# crystal, experimental, refinement or atomic coordinate data resulting 
# from the CCDC's data processing and validation procedures.
#
#######################################################################

data_JAMSIC
_chemical_formula_moiety         '(C59 H42 Cd2 N4 O8)n,x(C4 H9 N1 O1),x(H2 O1)'
_chemical_name_systematic        
"catena-[(\m-2,2'-(1,4-phenylene)diacetato)-(\m-4,4',4'',4'''-(9,9'-spirobi[fluorene]-2,2',7,7'-tetrayl)tetrapyridine)-bis(acetato)-di-cadmium N,N-dimethylacetamide solvate hydrate]"
_symmetry_cell_setting           monoclinic
_symmetry_space_group_name_H-M   'P 2/c'
_symmetry_Int_Tables_number      13
_space_group_name_Hall           '-P 2yc'
loop_
_symmetry_equiv_pos_site_id
_symmetry_equiv_pos_as_xyz
1 x,y,z
2 -x,y,1/2-z
3 -x,-y,-z
4 x,-y,1/2+z
_cell_length_a                   10.4985(4)
_cell_length_b                   14.5262(5)
_cell_length_c                   20.6360(8)
_cell_angle_alpha                90
_cell_angle_beta                 97.611(2)
_cell_angle_gamma                90
_cell_volume                     3119.33
_exptl_crystal_colour            colorless
_exptl_crystal_description       block
_cell_formula_units_Z            2
loop_
_atom_site_label
_atom_site_type_symbol
_atom_site_fract_x
_atom_site_fract_y
_atom_site_fract_z
Cd1 Cd 0.80925(2) 0.66036(2) 0.55047(2)
C1 C 0.5000 0.16261(17) 0.2500
C2 C 0.61873(17) 0.22189(12) 0.26937(9)
C3 C 0.63598(17) 0.28702(13) 0.31807(9)
H1 H 0.5709 0.2978 0.3451
C4 C 0.75075(17) 0.33725(12) 0.32732(9)
C5 C 0.84438(18) 0.31935(13) 0.28626(9)
H2 H 0.9225 0.3532 0.2923
C6 C 0.82631(17) 0.25394(14) 0.23732(9)
H3 H 0.8911 0.2428 0.2102
C7 C 0.71182(17) 0.20459(13) 0.22827(9)
C8 C 0.66383(17) 0.13260(13) 0.18163(9)
C9 C 0.71776(18) 0.08940(14) 0.13172(9)
H4 H 0.8001 0.1071 0.1217
C10 C 0.64901(18) 0.01985(14) 0.09676(10)
H5 H 0.6857 -0.0100 0.0627
C11 C 0.52732(17) -0.00785(13) 0.11004(9)
C12 C 0.47325(17) 0.03733(13) 0.15991(9)
H6 H 0.3905 0.0203 0.1696
C13 C 0.54087(16) 0.10645(12) 0.19466(9)
N1 N 0.80295(17) 0.54586(12) 0.47552(9)
C14 C 0.7111(3) 0.4835(2) 0.47297(15)
H7 H 0.6550 0.4857 0.5055
C15 C 0.6914(3) 0.4157(2) 0.42653(15)
H8 H 0.6228 0.3733 0.4274
C16 C 0.77064(18) 0.40882(13) 0.37857(9)
C17 C 0.8696(3) 0.47183(19) 0.38289(13)
H9 H 0.9295 0.4696 0.3522
C18 C 0.8825(2) 0.53766(18) 0.43088(13)
H10 H 0.9521 0.5797 0.4323
N2 N 0.31566(16) -0.22799(12) 0.00754(9)
C19 C 0.4436(2) -0.22309(17) 0.01091(13)
H11 H 0.4866 -0.2697 -0.0101
C20 C 0.5164(2) -0.15380(16) 0.04339(13)
H12 H 0.6072 -0.1539 0.0448
C21 C 0.45586(18) -0.08360(14) 0.07423(9)
C22 C 0.32271(19) -0.08967(15) 0.07026(10)
H13 H 0.2766 -0.0438 0.0903
C23 C 0.2570(2) -0.16181(14) 0.03748(11)
H14 H 0.1663 -0.1645 0.0362
O1 O 0.94859(13) 0.76437(10) 0.60039(7)
O2 O 1.01022(14) 0.71226(10) 0.50936(8)
C24 C 1.02396(18) 0.76479(13) 0.55753(10)
C25 C 1.1273(2) 0.83861(14) 0.56310(12)
H15 H 1.1593 0.8509 0.6096
H16 H 1.2004 0.8186 0.5408
C26 C 1.06558(18) 0.92443(14) 0.53080(10)
C27 C 1.0583(2) 0.93693(14) 0.46330(11)
H17 H 1.0979 0.8937 0.4378
C28 C 0.99371(19) 1.01180(15) 0.43339(10)
H18 H 0.9900 1.0196 0.3875
O3 O 0.62649(15) 0.62531(12) 0.59983(8)
O4 O 0.80790(16) 0.55677(11) 0.63749(8)
C29 C 0.6894(2) 0.57106(16) 0.63841(11)
C30 C 0.6195(3) 0.5195(2) 0.68698(15)
H19 H 0.6735 0.4689 0.7062
H20 H 0.5387 0.4946 0.6645
H21 H 0.6010 0.5617 0.7216
C2A C 0.38127(17) 0.22189(12) 0.23063(9)
C3A C 0.36402(17) 0.28702(13) 0.18193(9)
H1A H 0.4291 0.2978 0.1549
C4A C 0.24925(17) 0.33725(12) 0.17268(9)
C5A C 0.15562(18) 0.31935(13) 0.21374(9)
H2A H 0.0775 0.3532 0.2077
C6A C 0.17369(17) 0.25394(14) 0.26268(9)
H3A H 0.1089 0.2428 0.2898
C7A C 0.28818(17) 0.20459(13) 0.27173(9)
C8A C 0.33617(17) 0.13260(13) 0.31837(9)
C9A C 0.28224(18) 0.08940(14) 0.36828(9)
H4A H 0.1999 0.1071 0.3783
C10A C 0.35099(18) 0.01985(14) 0.40324(10)
H5A H 0.3143 -0.0100 0.4373
C11A C 0.47268(17) -0.00785(13) 0.38996(9)
C12A C 0.52675(17) 0.03733(13) 0.34009(9)
H6A H 0.6095 0.0203 0.3304
C13A C 0.45913(16) 0.10645(12) 0.30534(9)
N1A N 0.19705(17) 0.54586(12) 0.02448(9)
C14A C 0.2889(3) 0.4835(2) 0.02703(15)
H7A H 0.3450 0.4857 -0.0055
C15A C 0.3086(3) 0.4157(2) 0.07347(15)
H8A H 0.3772 0.3733 0.0726
C16A C 0.22936(18) 0.40882(13) 0.12143(9)
C17A C 0.1304(3) 0.47183(19) 0.11711(13)
H9A H 0.0705 0.4696 0.1478
C18A C 0.1175(2) 0.53766(18) 0.06912(13)
H10A H 0.0479 0.5797 0.0677
N2A N 0.68434(16) -0.22799(12) 0.49246(9)
C19A C 0.5564(2) -0.22309(17) 0.48909(13)
H11A H 0.5134 -0.2697 0.5101
C20A C 0.4836(2) -0.15380(16) 0.45661(13)
H12A H 0.3928 -0.1539 0.4552
C21A C 0.54414(18) -0.08360(14) 0.42577(9)
C22A C 0.67729(19) -0.08967(15) 0.42974(10)
H13A H 0.7234 -0.0438 0.4097
C23A C 0.7430(2) -0.16181(14) 0.46252(11)
H14A H 0.8337 -0.1645 0.4638
O1B O 1.05141(13) 1.23563(10) 0.39961(7)
O2B O 0.98978(14) 1.28774(10) 0.49064(8)
C24B C 0.97604(18) 1.23521(13) 0.44247(10)
C25B C 0.8727(2) 1.16139(14) 0.43690(12)
H15B H 0.8407 1.1491 0.3904
H16B H 0.7996 1.1814 0.4592
C26B C 0.93442(18) 1.07557(14) 0.46920(10)
C27B C 0.9417(2) 1.06307(14) 0.53670(11)
H17B H 0.9021 1.1063 0.5622
C28B C 1.00629(19) 0.98820(15) 0.56661(10)
H18B H 1.0100 0.9804 0.6125
Cd1A Cd 0.19075(2) 0.66036(2) -0.05047(2)
O3A O 0.37351(15) 0.62531(12) -0.09983(8)
O4A O 0.19210(16) 0.55677(11) -0.13749(8)
C29A C 0.3106(2) 0.57106(16) -0.13841(11)
C30A C 0.3805(3) 0.5195(2) -0.18698(15)
H19A H 0.3265 0.4689 -0.2062
H20A H 0.4613 0.4946 -0.1645
H21A H 0.3990 0.5617 -0.2216
Cd1_2 Cd 0.80925(2) -0.33964(2) 0.55047(2)
Cd1A_2 Cd 0.19075(2) -0.33964(2) -0.05047(2)
Cd1B Cd 1.19075(2) 1.33964(2) 0.44953(2)
N2_2 N 0.31566(16) 0.77201(12) 0.00754(9)
N2A_2 N 0.68434(16) 0.77201(12) 0.49246(9)
O1A O 0.05141(13) 0.76437(10) -0.10039(7)
O2A O -0.01022(14) 0.71226(10) -0.00936(8)
loop_
_geom_bond_atom_site_label_1
_geom_bond_atom_site_label_2
_geom_bond_site_symmetry_1
_geom_bond_site_symmetry_2
Cd1 N1 1_555 1_555
C1 C2 1_555 1_555
C2 C3 1_555 1_555
C3 H1 1_555 1_555
C4 C3 1_555 1_555
C5 C4 1_555 1_555
H2 C5 1_555 1_555
C6 C5 1_555 1_555
H3 C6 1_555 1_555
C7 C2 1_555 1_555
C8 C7 1_555 1_555
C9 C8 1_555 1_555
H4 C9 1_555 1_555
C10 C9 1_555 1_555
H5 C10 1_555 1_555
C11 C10 1_555 1_555
C12 C11 1_555 1_555
H6 C12 1_555 1_555
C13 C1 1_555 1_555
N1 C14 1_555 1_555
C14 H7 1_555 1_555
C15 C14 1_555 1_555
H8 C15 1_555 1_555
C16 C4 1_555 1_555
C17 C16 1_555 1_555
H9 C17 1_555 1_555
C18 N1 1_555 1_555
H10 C18 1_555 1_555
N2 C19 1_555 1_555
C19 H11 1_555 1_555
C20 C19 1_555 1_555
H12 C20 1_555 1_555
C21 C11 1_555 1_555
C22 C21 1_555 1_555
H13 C22 1_555 1_555
C23 N2 1_555 1_555
H14 C23 1_555 1_555
O1 Cd1 1_555 1_555
O2 Cd1 1_555 1_555
C24 O1 1_555 1_555
C25 C24 1_555 1_555
H15 C25 1_555 1_555
H16 C25 1_555 1_555
C26 C25 1_555 1_555
C27 C26 1_555 1_555
H17 C27 1_555 1_555
C28 C27 1_555 1_555
H18 C28 1_555 1_555
O3 Cd1 1_555 1_555
O4 Cd1 1_555 1_555
C29 O3 1_555 1_555
C30 C29 1_555 1_555
H19 C30 1_555 1_555
H20 C30 1_555 1_555
H21 C30 1_555 1_555
C2A C1 1_555 1_555
C3A C2A 1_555 1_555
H1A C3A 1_555 1_555
C4A C3A 1_555 1_555
C5A C4A 1_555 1_555
H2A C5A 1_555 1_555
C6A C5A 1_555 1_555
H3A C6A 1_555 1_555
C7A C2A 1_555 1_555
C8A C7A 1_555 1_555
C9A C8A 1_555 1_555
H4A C9A 1_555 1_555
C10A C9A 1_555 1_555
H5A C10A 1_555 1_555
C11A C10A 1_555 1_555
C12A C11A 1_555 1_555
H6A C12A 1_555 1_555
C13A C1 1_555 1_555
N1A C14A 1_555 1_555
C14A H7A 1_555 1_555
C15A C14A 1_555 1_555
H8A C15A 1_555 1_555
C16A C4A 1_555 1_555
C17A C16A 1_555 1_555
H9A C17A 1_555 1_555
C18A N1A 1_555 1_555
H10A C18A 1_555 1_555
N2A C19A 1_555 1_555
C19A H11A 1_555 1_555
C20A C19A 1_555 1_555
H12A C20A 1_555 1_555
C21A C11A 1_555 1_555
C22A C21A 1_555 1_555
H13A C22A 1_555 1_555
C23A N2A 1_555 1_555
H14A C23A 1_555 1_555
O1B C24B 1_555 1_555
O2B C24B 1_555 1_555
C24B C25B 1_555 1_555
C25B H15B 1_555 1_555
H16B C25B 1_555 1_555
C26B C28 1_555 1_555
C27B C26B 1_555 1_555
H17B C27B 1_555 1_555
C28B C26 1_555 1_555
H18B C28B 1_555 1_555
Cd1A N1A 1_555 1_555
O3A Cd1A 1_555 1_555
O4A Cd1A 1_555 1_555
C29A O3A 1_555 1_555
C30A C29A 1_555 1_555
H19A C30A 1_555 1_555
H20A C30A 1_555 1_555
H21A C30A 1_555 1_555
Cd1_2 N2A 1_555 1_555
Cd1A_2 N2 1_555 1_555
Cd1B O1B 1_555 1_555
N2_2 Cd1A 1_555 1_555
N2A_2 Cd1 1_555 1_555
O1A Cd1A 1_555 1_555
O2A Cd1A 1_555 1_555
C6 C7 1_555 1_555
C8 C13 1_555 1_555
C12 C13 1_555 1_555
C15 C16 1_555 1_555
C17 C18 1_555 1_555
C20 C21 1_555 1_555
C22 C23 1_555 1_555
O2 C24 1_555 1_555
O4 C29 1_555 1_555
C6A C7A 1_555 1_555
C8A C13A 1_555 1_555
C12A C13A 1_555 1_555
C15A C16A 1_555 1_555
C17A C18A 1_555 1_555
C20A C21A 1_555 1_555
C22A C23A 1_555 1_555
O2B Cd1B 1_555 1_555
C25B C26B 1_555 1_555
C27B C28B 1_555 1_555
O4A C29A 1_555 1_555

#END
