
#######################################################################
#
#                 Cambridge Crystallographic Data Centre
#                                CCDC 
#
#######################################################################
#
# If this CIF has been generated from an entry in the Cambridge 
# Structural Database, then it will include bibliographic, chemical, 
# crystal, experimental, refinement or atomic coordinate data resulting 
# from the CCDC's data processing and validation procedures.
#
#######################################################################

data_ONULOA
_chemical_formula_moiety         '(C46 H30 Co2 N2 O8)n'
_chemical_name_systematic        
catena-[(\m~8~-1,2,4,5-tetrakis(4-Carboxylatophenyl)benzene)-(\m~2~-2,2'-dimethyl-4,4'-bipyridine)-di-cobalt]
_symmetry_cell_setting           orthorhombic
_symmetry_space_group_name_H-M   'P b c m'
_symmetry_Int_Tables_number      57
_space_group_name_Hall           '-P 2c 2b'
loop_
_symmetry_equiv_pos_site_id
_symmetry_equiv_pos_as_xyz
1 x,y,z
2 -x,-y,1/2+z
3 x,1/2-y,-z
4 -x,1/2+y,1/2-z
5 -x,-y,-z
6 x,y,1/2-z
7 -x,1/2+y,z
8 x,1/2-y,1/2+z
_cell_length_a                   11.632(2)
_cell_length_b                   27.860(6)
_cell_length_c                   31.017(7)
_cell_angle_alpha                90
_cell_angle_beta                 90
_cell_angle_gamma                90
_cell_volume                     10051.6
_exptl_crystal_colour            purple
_exptl_crystal_description       Prism
_cell_formula_units_Z            8
loop_
_atom_site_label
_atom_site_type_symbol
_atom_site_fract_x
_atom_site_fract_y
_atom_site_fract_z
Co1 Co 0.96194(4) 0.200251(15) 0.005217(13)
O1 O 1.0996(2) 0.20182(8) -0.03777(7)
C1 C 1.1152(3) 0.23922(12) -0.05955(10)
O2 O 1.0700(2) 0.27949(8) -0.05189(7)
C2 C 1.1932(3) 0.23699(12) -0.09795(10)
O3 O 0.8265(2) 0.28288(8) -0.04371(7)
O4 O 0.8643(2) 0.29564(8) 0.04853(7)
C3 C 1.2707(3) 0.20004(13) -0.10323(11)
C4 C 1.1861(3) 0.27234(14) -0.12887(12)
N1 N 0.9613(2) 0.37390(10) -0.00717(9)
C5 C 1.3420(3) 0.19900(14) -0.13905(11)
H1 H 1.2753 0.1758 -0.0827
C6 C 1.2546(3) 0.27041(15) -0.16542(11)
H2 H 1.1349 0.2977 -0.1252
C7 C 0.9652(3) 0.40115(12) -0.04306(11)
C8 C 0.9676(3) 0.39649(12) 0.03088(11)
C9 C 1.3337(3) 0.23361(13) -0.17054(10)
H3 H 1.3960 0.1746 -0.1418
H4 H 1.2474 0.2939 -0.1866
C10 C 0.9546(4) 0.37671(13) -0.08566(11)
C11 C 0.9792(3) 0.45069(12) -0.04048(11)
C12 C 0.9811(3) 0.44489(12) 0.03516(11)
H5 H 0.9625 0.3781 0.0558
C13 C 1.4038(3) 0.23188(13) -0.21069(10)
H6 H 0.8785 0.3638 -0.0887
H7 H 1.0097 0.3511 -0.0874
H8 H 0.9688 0.3994 -0.1083
C14 C 0.9898(3) 0.47362(11) -0.00117(11)
H9 H 0.9816 0.4687 -0.0657
H10 H 0.9845 0.4586 0.0625
C15 C 1.5248(3) 0.22768(13) -0.21076(10)
C16 C 1.3471(4) 0.23395(19) -0.2500
C17 C 1.5953(3) 0.23016(13) -0.17078(10)
C18 C 1.5813(4) 0.22540(18) -0.2500
H11 H 1.2675 0.2369 -0.2500
C19 C 1.5851(3) 0.26867(15) -0.14249(12)
C20 C 1.6771(3) 0.19585(13) -0.16222(11)
H12 H 1.6609 0.2222 -0.2500
H13 H 1.5283 0.2916 -0.1472
C21 C 1.6570(3) 0.27353(14) -0.10776(12)
C22 C 1.7462(3) 0.19923(13) -0.12639(11)
H14 H 1.6859 0.1700 -0.1809
C23 C 1.7382(3) 0.23795(11) -0.09917(10)
H15 H 1.6517 0.3004 -0.0900
H16 H 1.7989 0.1750 -0.1205
C24 C 1.8158(3) 0.24202(10) -0.06084(10)
O1B O 1.0996(2) 0.29818(8) 0.03777(7)
Co1B Co 0.96194(4) 0.299749(15) -0.005217(13)
C14D C 1.0102(3) 0.52638(11) 0.00117(11)
C13E C 1.4038(3) 0.23188(13) -0.28931(10)
C11D C 1.0208(3) 0.54931(12) 0.04048(11)
C12D C 1.0189(3) 0.55511(12) -0.03516(11)
C15E C 1.5248(3) 0.22768(13) -0.28924(10)
C9E C 1.3337(3) 0.23361(13) -0.32946(10)
C7D C 1.0348(3) 0.59885(12) 0.04306(11)
H9D H 1.0184 0.5313 0.0657
C8D C 1.0324(3) 0.60351(12) -0.03088(11)
H10D H 1.0155 0.5414 -0.0625
C17E C 1.5953(3) 0.23016(13) -0.32922(10)
C5E C 1.3420(3) 0.19900(14) -0.36095(11)
C6E C 1.2546(3) 0.27041(15) -0.33458(11)
N1D N 1.0387(2) 0.62610(10) 0.00717(9)
C10D C 1.0454(4) 0.62329(13) 0.08566(11)
H5D H 1.0375 0.6219 -0.0558
C19E C 1.5851(3) 0.26867(15) -0.35751(12)
C20E C 1.6771(3) 0.19585(13) -0.33778(11)
H3E H 1.3960 0.1746 -0.3582
C3E C 1.2707(3) 0.20004(13) -0.39677(11)
H4E H 1.2474 0.2939 -0.3134
C4E C 1.1861(3) 0.27234(14) -0.37113(12)
Co1F Co 1.03806(4) 0.700251(15) 0.005217(13)
H7D H 0.9903 0.6489 0.0874
H8D H 1.0312 0.6006 0.1083
H6D H 1.1215 0.6362 0.0887
H13E H 1.5283 0.2916 -0.3528
C21E C 1.6570(3) 0.27353(14) -0.39224(12)
C22E C 1.7462(3) 0.19923(13) -0.37361(11)
H14E H 1.6859 0.1700 -0.3191
C2E C 1.1932(3) 0.23699(12) -0.40205(10)
H1E H 1.2753 0.1758 -0.4173
H2E H 1.1349 0.2977 -0.3748
O3D O 1.1735(2) 0.71712(8) 0.04371(7)
O4D O 1.1357(2) 0.70436(8) -0.04853(7)
O1F O 0.9004(2) 0.70182(8) -0.03777(7)
O2D O 0.9300(2) 0.72051(8) 0.05189(7)
O4B O 1.8643(2) 0.20436(8) -0.04853(7)
O3_2 O 1.8265(2) 0.28288(8) -0.04371(7)
C23E C 1.7382(3) 0.23795(11) -0.40083(10)
H15E H 1.6517 0.3004 -0.4100
H16E H 1.7989 0.1750 -0.3795
C1E C 1.1152(3) 0.23922(12) -0.44045(10)
Co1_2 Co 1.96194(4) 0.200251(15) 0.005217(13)
Co1B_2 Co 1.96194(4) 0.299749(15) -0.005217(13)
C24E C 1.8158(3) 0.24202(10) -0.43916(10)
O1E O 1.0996(2) 0.20182(8) -0.46223(7)
O2E O 1.0700(2) 0.27949(8) -0.44811(7)
O4G O 1.8643(2) 0.20436(8) -0.45147(7)
O3E O 1.8265(2) 0.28288(8) -0.45629(7)
Co1E Co 0.96194(4) 0.200251(15) -0.505217(13)
Co1G Co 0.96194(4) 0.299749(15) -0.494783(13)
Co1E_2 Co 1.96194(4) 0.200251(15) -0.505217(13)
Co1G_2 Co 1.96194(4) 0.299749(15) -0.494783(13)
Co2 Co 1.48913(4) 0.049218(15) 0.004547(13)
N2 N 1.4715(2) 0.12345(9) 0.00678(9)
O5 O 1.6095(2) 0.05314(9) -0.04377(7)
O6 O 1.6216(2) -0.02618(9) -0.05041(8)
O7 O 2.3706(2) 0.03572(9) -0.04140(8)
C25 C 1.4738(3) 0.22370(11) 0.00170(10)
C26 C 1.3729(3) 0.19800(11) 0.00997(11)
H17 H 1.3043 0.2145 0.0142
O8 O 2.3838(2) -0.04413(9) -0.04893(8)
C27 C 1.9428(3) 0.02578(12) -0.21075(10)
C28 C 2.0591(3) 0.01186(12) -0.21067(10)
C29 C 2.1281(3) 0.00688(13) -0.17056(10)
C30 C 1.6473(3) 0.01623(12) -0.06100(11)
C31 C 1.7299(3) 0.02086(12) -0.09822(10)
C32 C 1.8734(3) 0.02642(12) -0.17039(10)
C33 C 1.3739(3) 0.14854(12) 0.01186(10)
C34 C 1.5742(3) 0.19675(12) -0.00336(12)
H18 H 1.6439 0.2119 -0.0089
C35 C 1.8881(4) 0.03378(17) -0.2500
H19 H 1.8126 0.0448 -0.2500
C36 C 2.3467(3) -0.00351(13) -0.05940(10)
C37 C 2.1141(4) 0.00441(18) -0.2500
H20 H 2.1901 -0.0059 -0.2500
C38 C 2.2682(3) -0.00028(13) -0.09780(10)
C39 C 1.7930(3) -0.01831(13) -0.11135(12)
H21 H 1.7868 -0.0470 -0.0963
C40 C 1.7405(3) 0.06321(12) -0.12089(11)
H22 H 1.7004 0.0903 -0.1118
C41 C 1.8652(3) -0.01561(14) -0.14652(12)
H23 H 1.9087 -0.0422 -0.1543
C42 C 1.5690(3) 0.14788(12) -0.00013(11)
H24 H 1.6370 0.1306 -0.0029
C43 C 2.1372(3) 0.04459(13) -0.14189(11)
H25 H 2.0948 0.0724 -0.1465
C44 C 2.2580(3) -0.03842(13) -0.12596(12)
H26 H 2.2972 -0.0669 -0.1204
C45 C 1.2636(3) 0.12178(13) 0.01948(15)
H27 H 1.2583 0.0955 -0.0004
H28 H 1.1997 0.1431 0.0152
H29 H 1.2625 0.1097 0.0485
C46 C 2.2082(3) 0.04152(13) -0.10662(11)
H30 H 2.2161 0.0679 -0.0884
C47 C 1.8101(3) 0.06589(13) -0.15691(11)
H31 H 1.8146 0.0945 -0.1723
C48 C 2.1903(3) -0.03473(14) -0.16240(12)
H32 H 2.1863 -0.0603 -0.1816
N2B N 1.4715(2) 0.37655(9) -0.00678(9)
C25B C 1.4738(3) 0.27630(11) -0.00170(10)
C26B C 1.3729(3) 0.30200(11) -0.00997(11)
H17B H 1.3043 0.2855 -0.0142
C33B C 1.3739(3) 0.35146(12) -0.01186(10)
C34B C 1.5742(3) 0.30325(12) 0.00336(12)
H18B H 1.6439 0.2881 0.0089
C42B C 1.5690(3) 0.35212(12) 0.00013(11)
H24B H 1.6370 0.3694 0.0029
C45B C 1.2636(3) 0.37822(13) -0.01948(15)
H27B H 1.2583 0.4045 0.0004
H28B H 1.1997 0.3569 -0.0152
H29B H 1.2625 0.3903 -0.0485
O5E O 1.6095(2) 0.05314(9) -0.45623(7)
O6E O 1.6216(2) -0.02618(9) -0.44959(8)
O7E O 2.3706(2) 0.03572(9) -0.45860(8)
O8E O 2.3838(2) -0.04413(9) -0.45107(8)
C27E C 1.9428(3) 0.02578(12) -0.28925(10)
C28E C 2.0591(3) 0.01186(12) -0.28933(10)
C29E C 2.1281(3) 0.00688(13) -0.32944(10)
C30E C 1.6473(3) 0.01623(12) -0.43900(11)
C31E C 1.7299(3) 0.02086(12) -0.40178(10)
C32E C 1.8734(3) 0.02642(12) -0.32961(10)
C36E C 2.3467(3) -0.00351(13) -0.44060(10)
C38E C 2.2682(3) -0.00028(13) -0.40220(10)
C39E C 1.7930(3) -0.01831(13) -0.38865(12)
H21E H 1.7868 -0.0470 -0.4037
C40E C 1.7405(3) 0.06321(12) -0.37911(11)
H22E H 1.7004 0.0903 -0.3882
C41E C 1.8652(3) -0.01561(14) -0.35348(12)
H23E H 1.9087 -0.0422 -0.3457
C43E C 2.1372(3) 0.04459(13) -0.35811(11)
H25E H 2.0948 0.0724 -0.3535
C44E C 2.2580(3) -0.03842(13) -0.37404(12)
H26E H 2.2972 -0.0669 -0.3796
C46E C 2.2082(3) 0.04152(13) -0.39338(11)
H30E H 2.2161 0.0679 -0.4116
C47E C 1.8101(3) 0.06589(13) -0.34309(11)
H31E H 1.8146 0.0945 -0.3277
C48E C 2.1903(3) -0.03473(14) -0.33760(12)
H32E H 2.1863 -0.0603 -0.3184
Co2B Co 1.48913(4) 0.450782(15) -0.004547(13)
Co2_2 Co 2.48913(4) 0.049218(15) 0.004547(13)
Co2A Co 1.51087(4) -0.049218(15) -0.495453(13)
Co2A_2 Co 2.51087(4) -0.049218(15) -0.495453(13)
Co2D Co 1.51087(4) -0.049218(15) -0.004547(13)
Co2D_2 Co 2.51087(4) -0.049218(15) -0.004547(13)
Co2E Co 1.48913(4) 0.049218(15) -0.504547(13)
Co2E_2 Co 2.48913(4) 0.049218(15) -0.504547(13)
O5B O 1.6095(2) 0.44686(9) 0.04377(7)
O6D O 1.3784(2) 0.02618(9) 0.05041(8)
O6F O 1.3784(2) 0.47382(9) -0.05041(8)
O7_2 O 1.3706(2) 0.03572(9) -0.04140(8)
O7B O 1.3706(2) 0.46428(9) 0.04140(8)
O8D O 1.6162(2) 0.04413(9) 0.04893(8)
O8F O 1.6162(2) 0.45587(9) -0.04893(8)
loop_
_geom_bond_atom_site_label_1
_geom_bond_atom_site_label_2
_geom_bond_site_symmetry_1
_geom_bond_site_symmetry_2
Co1 O1 1_555 1_555
O1 C1 1_555 1_555
C1 O2 1_555 1_555
O2 Co1B 1_555 1_555
C2 C1 1_555 1_555
O3 Co1B 1_555 1_555
O4 Co1B 1_555 1_555
C3 C2 1_555 1_555
C4 C2 1_555 1_555
N1 C7 1_555 1_555
C5 C3 1_555 1_555
H1 C3 1_555 1_555
C6 C4 1_555 1_555
H2 C4 1_555 1_555
C7 C10 1_555 1_555
C8 N1 1_555 1_555
C9 C5 1_555 1_555
H3 C5 1_555 1_555
H4 C6 1_555 1_555
C10 H6 1_555 1_555
C11 C7 1_555 1_555
C12 C8 1_555 1_555
H5 C8 1_555 1_555
C13 C9 1_555 1_555
H7 C10 1_555 1_555
H8 C10 1_555 1_555
C14 C11 1_555 1_555
H9 C11 1_555 1_555
H10 C12 1_555 1_555
C15 C13 1_555 1_555
C16 C13 1_555 1_555
C17 C15 1_555 1_555
C18 C15 1_555 1_555
H11 C16 1_555 1_555
C19 C17 1_555 1_555
C20 C17 1_555 1_555
H12 C18 1_555 1_555
H13 C19 1_555 1_555
C21 C19 1_555 1_555
C22 C20 1_555 1_555
H14 C20 1_555 1_555
C23 C21 1_555 1_555
H15 C21 1_555 1_555
H16 C22 1_555 1_555
C24 C23 1_555 1_555
Co2 N2 1_555 1_555
N2 C33 1_555 1_555
O5 Co2 1_555 1_555
O6 C30 1_555 1_555
O7 C36 1_555 1_555
C25 C26 1_555 1_555
C26 H17 1_555 1_555
O8 C36 1_555 1_555
C27 C28 1_555 1_555
C28 C29 1_555 1_555
C29 C43 1_555 1_555
C30 O5 1_555 1_555
C31 C30 1_555 1_555
C32 C27 1_555 1_555
C33 C26 1_555 1_555
C34 C25 1_555 1_555
H18 C34 1_555 1_555
C35 C27 1_555 1_555
H19 C35 1_555 1_555
C36 C38 1_555 1_555
C37 C28 1_555 1_555
H20 C37 1_555 1_555
C38 C44 1_555 1_555
C39 C31 1_555 1_555
H21 C39 1_555 1_555
C40 C31 1_555 1_555
H22 C40 1_555 1_555
C41 C32 1_555 1_555
H23 C41 1_555 1_555
C42 N2 1_555 1_555
H24 C42 1_555 1_555
C43 H25 1_555 1_555
C44 H26 1_555 1_555
C45 C33 1_555 1_555
H27 C45 1_555 1_555
H28 C45 1_555 1_555
H29 C45 1_555 1_555
C46 C38 1_555 1_555
H30 C46 1_555 1_555
C47 C32 1_555 1_555
H31 C47 1_555 1_555
C48 C29 1_555 1_555
H32 C48 1_555 1_555
O1B Co1B 1_555 1_555
Co1B N1 1_555 1_555
C14D C14 1_555 1_555
C13E C16 1_555 1_555
C11D C14D 1_555 1_555
C12D C14D 1_555 1_555
C15E C18 1_555 1_555
C9E C13E 1_555 1_555
C7D C11D 1_555 1_555
H9D C11D 1_555 1_555
C8D C12D 1_555 1_555
H10D C12D 1_555 1_555
C17E C15E 1_555 1_555
C5E C9E 1_555 1_555
C6E C9E 1_555 1_555
N1D C7D 1_555 1_555
C10D C7D 1_555 1_555
H5D C8D 1_555 1_555
C19E C17E 1_555 1_555
C20E C17E 1_555 1_555
H3E C5E 1_555 1_555
C3E C5E 1_555 1_555
H4E C6E 1_555 1_555
C4E C6E 1_555 1_555
Co1F N1D 1_555 1_555
H7D C10D 1_555 1_555
H8D C10D 1_555 1_555
H6D C10D 1_555 1_555
H13E C19E 1_555 1_555
C21E C19E 1_555 1_555
C22E C20E 1_555 1_555
H14E C20E 1_555 1_555
C2E C3E 1_555 1_555
H1E C3E 1_555 1_555
H2E C4E 1_555 1_555
O3D Co1F 1_555 1_555
O4D Co1F 1_555 1_555
O1F Co1F 1_555 1_555
O2D Co1F 1_555 1_555
O4B C24 1_555 1_555
O3_2 C24 1_555 1_555
C23E C21E 1_555 1_555
H15E C21E 1_555 1_555
H16E C22E 1_555 1_555
C1E C2E 1_555 1_555
Co1_2 O4B 1_555 1_555
Co1B_2 O3_2 1_555 1_555
C24E C23E 1_555 1_555
O1E C1E 1_555 1_555
O2E C1E 1_555 1_555
O4G C24E 1_555 1_555
O3E C24E 1_555 1_555
Co1E O1E 1_555 1_555
Co1G O2E 1_555 1_555
Co1E_2 O4G 1_555 1_555
Co1G_2 O3E 1_555 1_555
N2B C33B 1_555 1_555
C25B C25 1_555 1_555
C26B C25B 1_555 1_555
H17B C26B 1_555 1_555
C33B C26B 1_555 1_555
C34B C25B 1_555 1_555
H18B C34B 1_555 1_555
C42B N2B 1_555 1_555
H24B C42B 1_555 1_555
C45B C33B 1_555 1_555
H27B C45B 1_555 1_555
H28B C45B 1_555 1_555
H29B C45B 1_555 1_555
O5E C30E 1_555 1_555
O6E C30E 1_555 1_555
O7E C36E 1_555 1_555
O8E C36E 1_555 1_555
C27E C35 1_555 1_555
C28E C37 1_555 1_555
C29E C28E 1_555 1_555
C30E C31E 1_555 1_555
C31E C39E 1_555 1_555
C32E C27E 1_555 1_555
C36E C38E 1_555 1_555
C38E C44E 1_555 1_555
C39E H21E 1_555 1_555
C40E C31E 1_555 1_555
H22E C40E 1_555 1_555
C41E C32E 1_555 1_555
H23E C41E 1_555 1_555
C43E C29E 1_555 1_555
H25E C43E 1_555 1_555
C44E H26E 1_555 1_555
C46E C38E 1_555 1_555
H30E C46E 1_555 1_555
C47E C32E 1_555 1_555
H31E C47E 1_555 1_555
C48E C29E 1_555 1_555
H32E C48E 1_555 1_555
Co2B N2B 1_555 1_555
Co2_2 O7 1_555 1_555
Co2A O6E 1_555 1_555
Co2A_2 O8E 1_555 1_555
Co2D O6 1_555 1_555
Co2D_2 O8 1_555 1_555
Co2E O5E 1_555 1_555
Co2E_2 O7E 1_555 1_555
O5B Co2B 1_555 1_555
O6D Co2 1_555 1_555
O6F Co2B 1_555 1_555
O7_2 Co2 1_555 1_555
O7B Co2B 1_555 1_555
O8D Co2 1_555 1_555
O8F Co2B 1_555 1_555
C6 C9 1_555 1_555
C12 C14 1_555 1_555
C22 C23 1_555 1_555
C34 C42 1_555 1_555
C39 C41 1_555 1_555
C40 C47 1_555 1_555
C43 C46 1_555 1_555
C44 C48 1_555 1_555
C13E C15E 1_555 1_555
C8D N1D 1_555 1_555
C4E C2E 1_555 1_555
C22E C23E 1_555 1_555
C34B C42B 1_555 1_555
C27E C28E 1_555 1_555
C39E C41E 1_555 1_555
C40E C47E 1_555 1_555
C43E C46E 1_555 1_555
C44E C48E 1_555 1_555

#END
