
#######################################################################
#
#                 Cambridge Crystallographic Data Centre
#                                CCDC 
#
#######################################################################
#
# If this CIF has been generated from an entry in the Cambridge 
# Structural Database, then it will include bibliographic, chemical, 
# crystal, experimental, refinement or atomic coordinate data resulting 
# from the CCDC's data processing and validation procedures.
#
#######################################################################

data_KOJXUD
_chemical_name_common            MOF-222
_chemical_formula_moiety         
'(C18 H18 Cu1 O7)n,0.25n(C5 H11 N1 O1),2n(H2 O1)'
_chemical_name_systematic        
"catena-((\m~4~-4,4'-((1S,2S)-1,2-Dimethoxyethane-1,2-diyl)dibenzoato)-aqua-copper N,N-diethylformamide solvate dihydrate)"
_symmetry_cell_setting           tetragonal
_symmetry_space_group_name_H-M   'P 42 21 2'
_symmetry_Int_Tables_number      94
_space_group_name_Hall           'P 4n 2n'
loop_
_symmetry_equiv_pos_site_id
_symmetry_equiv_pos_as_xyz
1 x,y,z
2 -x,-y,z
3 1/2-y,1/2+x,1/2+z
4 1/2+y,1/2-x,1/2+z
5 1/2-x,1/2+y,1/2-z
6 1/2+x,1/2-y,1/2-z
7 y,x,-z
8 -y,-x,-z
_cell_length_a                   15.3277(6)
_cell_length_b                   15.3277(6)
_cell_length_c                   24.3220(19)
_cell_angle_alpha                90
_cell_angle_beta                 90
_cell_angle_gamma                90
_cell_volume                     5714.17
_exptl_crystal_colour            blue
_cell_formula_units_Z            8
loop_
_atom_site_label
_atom_site_type_symbol
_atom_site_fract_x
_atom_site_fract_y
_atom_site_fract_z
_atom_site_U_iso_or_equiv
_atom_site_thermal_displace_type
O8 O 0.2833(7) -0.7329(7) 0.5748(4) 0.0820 Uiso
O10 O 0.3364(17) -0.3364(17) 0.5000 0.1600 Uiso
O13 O 0.3108(17) -0.5709(18) 0.5462(11) 0.0530 Uiso
O14 O -0.0313(19) -0.165(2) 0.4553(11) 0.1300 Uiso
Cu1 Cu 0.05529(3) -0.56495(3) 0.50099(2) 0.0188 Uani
O1 O 0.1422(3) -0.6744(3) 0.50124(17) 0.0457 Uani
H1 H 0.1621 -0.6822 0.5328 0.0680 Uiso
H2 H 0.1621 -0.6822 0.4672 0.0680 Uiso
O2 O 0.1055(3) -0.5087(3) 0.43604(13) 0.0245 Uani
O3 O 0.1995(3) -0.3295(3) 0.17810(14) 0.0300 Uani
O4 O 0.3277(3) -0.2039(3) 0.17688(15) 0.0338 Uani
O5 O 0.4866(2) -0.1227(2) 0.45076(14) 0.0243 Uani
O6 O 0.3969(3) -0.0102(3) 0.43400(13) 0.0247 Uani
O7 O 0.0340(3) -0.3834(3) 0.45260(14) 0.0261 Uani
C1 C 0.0861(4) -0.4307(4) 0.4259(2) 0.0230 Uani
C2 C 0.1269(4) -0.3899(4) 0.3758(2) 0.0237 Uani
C3 C 0.1645(4) -0.4414(4) 0.3354(2) 0.0310 Uani
H3 H 0.1709 -0.5024 0.3409 0.0370 Uiso
C4 C 0.1923(4) -0.4034(4) 0.2874(2) 0.0297 Uani
H4 H 0.2175 -0.4393 0.2598 0.0360 Uiso
C5 C 0.1852(3) -0.3163(4) 0.2778(2) 0.0233 Uani
C6 C 0.1483(4) -0.2639(4) 0.3188(2) 0.0253 Uani
H5 H 0.1433 -0.2027 0.3133 0.0310 Uiso
C7 C 0.1193(4) -0.3006(4) 0.3670(2) 0.0260 Uani
H6 H 0.0940 -0.2647 0.3945 0.0320 Uiso
C8 C 0.2157(4) -0.2747(4) 0.2250(2) 0.0243 Uani
H7 H 0.1840 -0.2183 0.2198 0.0300 Uiso
C9 C 0.1104(4) -0.3318(5) 0.1635(3) 0.0403 Uani
H8 H 0.0764 -0.3558 0.1941 0.0610 Uiso
H9 H 0.1028 -0.3688 0.1310 0.0610 Uiso
H10 H 0.0902 -0.2726 0.1553 0.0610 Uiso
C10 C 0.3134(4) -0.2567(4) 0.22425(19) 0.0257 Uani
H11 H 0.3456 -0.3130 0.2199 0.0310 Uiso
C11 C 0.4183(4) -0.1952(5) 0.1631(3) 0.0467 Uani
H12 H 0.4491 -0.1661 0.1932 0.0710 Uiso
H13 H 0.4241 -0.1604 0.1295 0.0710 Uiso
H14 H 0.4436 -0.2531 0.1571 0.0710 Uiso
C12 C 0.3435(4) -0.2118(4) 0.2763(2) 0.0250 Uani
C13 C 0.3277(4) -0.1239(4) 0.2846(2) 0.0333 Uani
H15 H 0.2997 -0.0910 0.2566 0.0400 Uiso
C14 C 0.3515(4) -0.0837(4) 0.3323(2) 0.0313 Uani
H16 H 0.3388 -0.0236 0.3373 0.0370 Uiso
C15 C 0.3939(4) -0.1294(4) 0.3732(2) 0.0240 Uani
C16 C 0.4096(4) -0.2182(4) 0.3663(2) 0.0277 Uani
H17 H 0.4373 -0.2507 0.3946 0.0340 Uiso
C17 C 0.3842(4) -0.2594(4) 0.3173(2) 0.0260 Uani
H18 H 0.3950 -0.3199 0.3123 0.0310 Uiso
C18 C 0.4274(4) -0.0838(4) 0.4235(2) 0.0230 Uani
Cu1A Cu -0.05529(3) -0.43505(3) 0.50099(2) 0.0188 Uani
Cu1G Cu 0.56495(3) -0.05529(3) 0.49901(2) 0.0188 Uani
Cu1F Cu 0.43505(3) 0.05529(3) 0.49901(2) 0.0188 Uani
O5G O 0.1227(2) -0.4866(2) 0.54924(14) 0.0243 Uani
O6F O -0.0102(3) -0.6031(3) 0.56600(13) 0.0247 Uani
O7A O -0.0340(3) -0.6166(3) 0.45260(14) 0.0261 Uani
O9? O 0.1980(13) -0.7996(14) 0.5742(7) 0.0690 Uiso
O11? O 0.0653(17) -0.1285(18) 0.5015(14) 0.0310 Uiso
O12? O 0.2283(8) -0.2567(8) 0.5160(6) 0.1250 Uiso
loop_
_atom_site_aniso_label
_atom_site_aniso_U_11
_atom_site_aniso_U_22
_atom_site_aniso_U_33
_atom_site_aniso_U_23
_atom_site_aniso_U_13
_atom_site_aniso_U_12
Cu1 0.0233 0.023 0.0102 -0.0006 -0.0007 0.00129
O1 0.058 0.051 0.028 0.001 0.003 0.032
O2 0.032 0.028 0.0135 -0.0005 0.0021 -0.0035
O3 0.031 0.046 0.013 -0.0044 -0.0027 -0.012
O4 0.034 0.054 0.0134 0.0046 -0.0006 -0.023
O5 0.033 0.0237 0.0162 -0.0018 -0.0025 -0.0031
O6 0.032 0.031 0.011 -0.0021 -0.0052 -0.0015
O7 0.035 0.029 0.0143 -0.0007 0.0033 -0.0029
C1 0.024 0.03 0.015 -0.001 -0.002 -0.009
C2 0.024 0.032 0.015 -0.001 0.004 -0.014
C3 0.044 0.028 0.021 -0.003 0.01 -0.002
C4 0.041 0.03 0.018 -0.004 0.008 -0.007
C5 0.021 0.035 0.014 -0.003 -0.001 -0.005
C6 0.03 0.026 0.02 -0.002 0.002 -0.004
C7 0.03 0.03 0.018 -0.001 0.002 0
C8 0.032 0.027 0.014 -0.006 0.001 -0.01
C9 0.04 0.054 0.027 -0.002 -0.008 -0.015
C10 0.031 0.038 0.008 -0.002 0.003 -0.011
C11 0.037 0.075 0.028 0.007 0.008 -0.023
C12 0.032 0.031 0.012 -0.005 0.003 -0.011
C13 0.047 0.029 0.024 0.006 -0.01 -0.008
C14 0.041 0.033 0.02 0.001 -0.007 -0.006
C15 0.024 0.031 0.017 0.003 -0.001 -0.003
C16 0.033 0.034 0.016 0 -0.004 -0.003
C17 0.033 0.025 0.02 -0.003 -0.003 -0.006
C18 0.028 0.025 0.016 0 0.001 -0.003
Cu1A 0.0233 0.023 0.0102 0.0006 0.0007 0.00129
Cu1G 0.023 0.0233 0.0102 -0.0007 -0.0006 0.00129
Cu1F 0.023 0.0233 0.0102 0.0007 0.0006 0.00129
O5G 0.0237 0.033 0.0162 -0.0025 -0.0018 -0.0031
O6F 0.031 0.032 0.011 0.0052 0.0021 -0.0015
O7A 0.035 0.029 0.0143 0.0007 -0.0033 -0.0029
loop_
_geom_bond_atom_site_label_1
_geom_bond_atom_site_label_2
_geom_bond_site_symmetry_1
_geom_bond_site_symmetry_2
Cu1 O1 1_555 1_555
O1 H1 1_555 1_555
H2 O1 1_555 1_555
O2 Cu1 1_555 1_555
O3 C8 1_555 1_555
O4 C10 1_555 1_555
O5 C18 1_555 1_555
O6 C18 1_555 1_555
O7 C1 1_555 1_555
C1 O2 1_555 1_555
C2 C1 1_555 1_555
C3 C2 1_555 1_555
H3 C3 1_555 1_555
C4 C3 1_555 1_555
H4 C4 1_555 1_555
C5 C4 1_555 1_555
C6 C5 1_555 1_555
H5 C6 1_555 1_555
C7 C2 1_555 1_555
H6 C7 1_555 1_555
C8 C5 1_555 1_555
H7 C8 1_555 1_555
C9 O3 1_555 1_555
H8 C9 1_555 1_555
H9 C9 1_555 1_555
H10 C9 1_555 1_555
C10 C8 1_555 1_555
H11 C10 1_555 1_555
C11 O4 1_555 1_555
H12 C11 1_555 1_555
H13 C11 1_555 1_555
H14 C11 1_555 1_555
C12 C10 1_555 1_555
C13 C12 1_555 1_555
H15 C13 1_555 1_555
C14 C13 1_555 1_555
H16 C14 1_555 1_555
C15 C14 1_555 1_555
C16 C15 1_555 1_555
H17 C16 1_555 1_555
C17 C12 1_555 1_555
H18 C17 1_555 1_555
C18 C15 1_555 1_555
Cu1A O7 1_555 1_555
Cu1G O5 1_555 1_555
Cu1F O6 1_555 1_555
O5G Cu1 1_555 1_555
O6F Cu1 1_555 1_555
O7A Cu1 1_555 1_555
C6 C7 1_555 1_555
C16 C17 1_555 1_555

#END
