
#######################################################################
#
#                 Cambridge Crystallographic Data Centre
#                                CCDC 
#
#######################################################################
#
# If this CIF has been generated from an entry in the Cambridge 
# Structural Database, then it will include bibliographic, chemical, 
# crystal, experimental, refinement or atomic coordinate data resulting 
# from the CCDC's data processing and validation procedures.
#
#######################################################################

data_KOJYUE
_chemical_name_common            MOF-118
_chemical_formula_moiety         
'(C34 H25 Cu2 N1 O9)n,4n(C4 H9 N1 O1),n(C5 H5 N1),4n(H2 O1)'
_chemical_name_systematic        
"catena-(bis(\m~4~-Biphenyl-4,4'-dicarboxylato)-(methanol)-(pyridine)-di-copper N,N-dimethylacetamide pyridine solvate tetrahydrate)"
_symmetry_cell_setting           monoclinic
_symmetry_space_group_name_H-M   'C 2'
_symmetry_Int_Tables_number      5
_space_group_name_Hall           'C 2y'
loop_
_symmetry_equiv_pos_site_id
_symmetry_equiv_pos_as_xyz
1 x,y,z
2 -x,y,-z
3 1/2+x,1/2+y,z
4 1/2-x,1/2+y,-z
_cell_length_a                   24.4260(16)
_cell_length_b                   17.8487(11)
_cell_length_c                   15.1401(10)
_cell_angle_alpha                90
_cell_angle_beta                 90.0360(10)
_cell_angle_gamma                90
_cell_volume                     6600.66
_exptl_crystal_colour            blue
_exptl_crystal_description       needle
_cell_formula_units_Z            4
loop_
_atom_site_label
_atom_site_type_symbol
_atom_site_fract_x
_atom_site_fract_y
_atom_site_fract_z
Cu1 Cu 0.30143(4) 0.06811(4) 0.39035(6)
Cu2 Cu 0.36478(4) 0.18797(4) 0.39074(6)
O1 O 0.2434(3) 0.1442(4) 0.3823(5)
O2 O 0.2962(2) 0.2436(4) 0.4019(5)
O3 O -0.1289(2) 0.5135(4) 0.3960(5)
O4 O -0.0743(2) 0.6163(3) 0.3806(5)
O5 O 0.3096(3) 0.0723(5) 0.2600(3)
O6 O 0.3540(3) 0.1820(5) 0.2627(3)
O7 O 0.3023(4) 0.0818(5) -0.4808(4)
O8 O 0.3646(4) 0.1747(5) -0.4809(4)
C1 C 0.1086(3) 0.3527(5) 0.3848(9)
C2 C 0.1063(4) 0.2819(6) 0.3570(10)
H1 H 0.0733 0.2635 0.3352
C3 C 0.1505(4) 0.2356(6) 0.3596(10)
H2 H 0.1470 0.1860 0.3417
C4 C 0.1991(4) 0.2611(5) 0.3878(6)
C5 C 0.2044(4) 0.3343(6) 0.4160(8)
H3 H 0.2387 0.3532 0.4304
C6 C 0.1571(4) 0.3811(7) 0.4231(9)
H4 H 0.1582 0.4274 0.4513
C7 C 0.2495(3) 0.2115(5) 0.3910(6)
C8 C 0.0597(3) 0.4027(5) 0.3819(7)
C9 C 0.0066(4) 0.3736(5) 0.3837(10)
H5 H 0.0020 0.3219 0.3838
C10 C -0.0392(3) 0.4185(5) 0.3854(10)
H6 H -0.0736 0.3965 0.3895
C11 C -0.0351(3) 0.4952(5) 0.3812(5)
C12 C 0.0182(3) 0.5273(5) 0.3808(9)
H7 H 0.0220 0.5791 0.3811
C13 C 0.0648(3) 0.4822(5) 0.3801(9)
H8 H 0.0993 0.5041 0.3784
C14 C -0.0834(3) 0.5459(5) 0.3875(5)
C15 C 0.3346(5) 0.1290(8) -0.0580(5)
C16 C 0.3183(8) 0.0666(9) -0.0106(7)
H9 H 0.3097 0.0226 -0.0406
C17 C 0.3147(6) 0.0682(9) 0.0757(6)
H10 H 0.3002 0.0271 0.1052
C18 C 0.3318(4) 0.1294(6) 0.1237(4)
C19 C 0.3491(6) 0.1892(9) 0.0783(6)
H11 H 0.3601 0.2321 0.1083
C20 C 0.3506(6) 0.1875(10) -0.0109(6)
H12 H 0.3636 0.2295 -0.0406
C21 C 0.3321(4) 0.1292(6) 0.2231(4)
C22 C 0.3340(6) 0.1326(7) -0.1553(4)
C23 C 0.2992(7) 0.0806(11) -0.2047(7)
H13 H 0.2761 0.0486 -0.1738
C24 C 0.2996(8) 0.0777(12) -0.2967(7)
H14 H 0.2795 0.0415 -0.3269
C25 C 0.3319(6) 0.1322(8) -0.3439(4)
C26 C 0.3718(5) 0.1741(7) -0.2985(5)
H15 H 0.3990 0.1991 -0.3297
C27 C 0.3705(5) 0.1781(8) -0.2003(6)
H16 H 0.3936 0.2105 -0.1699
C28 C 0.3364(5) 0.1273(8) -0.4421(4)
O9 O 0.4158(3) 0.2847(5) 0.3819(6)
H17 H 0.413(6) 0.330(3) 0.362(8)
C29 C 0.4684(4) 0.2785(8) 0.4317(8)
H18 H 0.4608 0.2711 0.4933
H19 H 0.4892 0.3236 0.4242
H20 H 0.4890 0.2366 0.4097
N1 N 0.2496(3) -0.0281(4) 0.3996(5)
C30 C 0.2554(5) -0.0898(6) 0.3545(10)
H21 H 0.2856 -0.0912 0.3171
C31 C 0.2237(7) -0.1525(6) 0.3543(12)
H22 H 0.2305 -0.1948 0.3201
C32 C 0.1806(8) -0.1451(10) 0.4110(8)
H23 H 0.1569 -0.1858 0.4151
C33 C 0.1686(6) -0.0846(9) 0.4621(10)
H24 H 0.1383 -0.0811 0.4990
C34 C 0.2072(7) -0.0297(8) 0.4518(10)
H25 H 0.2025 0.0124 0.4871
Cu1B Cu -0.19857(4) 0.56811(4) 0.39035(6)
Cu1_2 Cu 0.30143(4) 0.06811(4) -0.60965(6)
Cu2B Cu -0.13522(4) 0.68797(4) 0.39074(6)
Cu2_2 Cu 0.36478(4) 0.18797(4) -0.60926(6)
O3B O 0.3711(2) 0.0135(4) 0.3960(5)
O4B O 0.4257(2) 0.1163(3) 0.3806(5)
O7_2 O 0.3023(4) 0.0818(5) 0.5192(4)
O8_2 O 0.3646(4) 0.1747(5) 0.5191(4)
loop_
_geom_bond_atom_site_label_1
_geom_bond_atom_site_label_2
_geom_bond_site_symmetry_1
_geom_bond_site_symmetry_2
Cu1 O1 1_555 1_555
Cu2 O2 1_555 1_555
O1 C7 1_555 1_555
O2 C7 1_555 1_555
O3 C14 1_555 1_555
O4 C14 1_555 1_555
O5 Cu1 1_555 1_555
O6 Cu2 1_555 1_555
O7 C28 1_555 1_555
O8 C28 1_555 1_555
C1 C2 1_555 1_555
C2 H1 1_555 1_555
C3 C2 1_555 1_555
H2 C3 1_555 1_555
C4 C3 1_555 1_555
C5 C4 1_555 1_555
H3 C5 1_555 1_555
C6 C1 1_555 1_555
H4 C6 1_555 1_555
C7 C4 1_555 1_555
C8 C1 1_555 1_555
C9 C8 1_555 1_555
H5 C9 1_555 1_555
C10 C9 1_555 1_555
H6 C10 1_555 1_555
C11 C10 1_555 1_555
C12 C11 1_555 1_555
H7 C12 1_555 1_555
C13 C8 1_555 1_555
H8 C13 1_555 1_555
C14 C11 1_555 1_555
C15 C16 1_555 1_555
C16 H9 1_555 1_555
C17 C16 1_555 1_555
H10 C17 1_555 1_555
C18 C17 1_555 1_555
C19 C18 1_555 1_555
H11 C19 1_555 1_555
C20 C15 1_555 1_555
H12 C20 1_555 1_555
C21 O5 1_555 1_555
C22 C15 1_555 1_555
C23 C22 1_555 1_555
H13 C23 1_555 1_555
C24 C23 1_555 1_555
H14 C24 1_555 1_555
C25 C24 1_555 1_555
C26 C25 1_555 1_555
H15 C26 1_555 1_555
C27 C22 1_555 1_555
H16 C27 1_555 1_555
C28 C25 1_555 1_555
O9 Cu2 1_555 1_555
H17 O9 1_555 1_555
C29 O9 1_555 1_555
H18 C29 1_555 1_555
H19 C29 1_555 1_555
H20 C29 1_555 1_555
N1 Cu1 1_555 1_555
C30 N1 1_555 1_555
H21 C30 1_555 1_555
C31 C30 1_555 1_555
H22 C31 1_555 1_555
C32 C31 1_555 1_555
H23 C32 1_555 1_555
C33 C32 1_555 1_555
H24 C33 1_555 1_555
C34 N1 1_555 1_555
H25 C34 1_555 1_555
Cu1B O3 1_555 1_555
Cu1_2 O7 1_555 1_555
Cu2B O4 1_555 1_555
Cu2_2 O8 1_555 1_555
O3B Cu1 1_555 1_555
O4B Cu2 1_555 1_555
O7_2 Cu1 1_555 1_555
O8_2 Cu2 1_555 1_555
O6 C21 1_555 1_555
C5 C6 1_555 1_555
C12 C13 1_555 1_555
C18 C21 1_555 1_555
C19 C20 1_555 1_555
C26 C27 1_555 1_555
C33 C34 1_555 1_555

#END
