
#######################################################################
#
#                 Cambridge Crystallographic Data Centre
#                                CCDC 
#
#######################################################################
#
# If this CIF has been generated from an entry in the Cambridge 
# Structural Database, then it will include bibliographic, chemical, 
# crystal, experimental, refinement or atomic coordinate data resulting 
# from the CCDC's data processing and validation procedures.
#
#######################################################################

data_KOJYIS
_chemical_name_common            MOF-116
_chemical_formula_moiety         
'(C27 H17 Cu1 N1 O4)n,n(C3 H7 N1 O1),0.5n(H2 O1)'
_chemical_name_systematic        
"catena-((\m~4~-1,1'-Binaphthyl-4,4'-dicarboxylato)-(pyridine)-copper N,N-dimethylformamide solvate hemihydrate)"
_symmetry_cell_setting           monoclinic
_symmetry_space_group_name_H-M   'C 2/m'
_symmetry_Int_Tables_number      12
_space_group_name_Hall           '-C 2y'
loop_
_symmetry_equiv_pos_site_id
_symmetry_equiv_pos_as_xyz
1 x,y,z
2 1/2+x,1/2+y,z
3 -x,y,-z
4 1/2-x,1/2+y,-z
5 -x,-y,-z
6 1/2-x,1/2-y,-z
7 x,-y,z
8 1/2+x,1/2-y,z
_cell_length_a                   13.7184(13)
_cell_length_b                   20.3881(18)
_cell_length_c                   9.3906(9)
_cell_angle_alpha                90
_cell_angle_beta                 93.442(4)
_cell_angle_gamma                90
_cell_volume                     2621.74
_exptl_crystal_colour            green
_exptl_crystal_description       block
_cell_formula_units_Z            4
loop_
_atom_site_label
_atom_site_type_symbol
_atom_site_fract_x
_atom_site_fract_y
_atom_site_fract_z
_atom_site_U_iso_or_equiv
_atom_site_thermal_displace_type
Cu1 Cu 0.57449(8) 0.5000 -0.08296(11) 0.0637 Uani
O1 O 0.4993(5) 0.4324(3) -0.1912(6) 0.0946 Uani
O2 O 0.3747(4) 0.4327(3) -0.0508(7) 0.0898 Uani
C1 C 0.4173(7) 0.4142(3) -0.1563(9) 0.0835 Uani
C2 C 0.3632(8) 0.3643(4) -0.2540(10) 0.1112 Uani
C3 C 0.4083(13) 0.3195(8) -0.3213(18) 0.1527 Uani
H1 H 0.4770 0.3189 -0.3137 0.1810 Uiso
C4 C 0.3598(13) 0.2721(11) -0.404(3) 0.1454 Uani
H2 H 0.3954 0.2355 -0.4324 0.1770 Uiso
C5 C 0.2692(10) 0.2755(5) -0.4447(12) 0.1365 Uani
C6 C 0.2054(11) 0.3181(11) -0.359(2) 0.1246 Uani
C7 C 0.1003(14) 0.3171(17) -0.371(4) 0.2287 Uani
H3 H 0.0670 0.2881 -0.4351 0.2730 Uiso
C8 C 0.0490(18) 0.3595(17) -0.288(4) 0.2389 Uani
H4 H -0.0192 0.3546 -0.2933 0.2870 Uiso
C9 C 0.0873(17) 0.4088(18) -0.198(4) 0.2069 Uani
H5 H 0.0494 0.4372 -0.1452 0.2470 Uiso
C10 C 0.1882(15) 0.4106(11) -0.196(3) 0.1466 Uani
H6 H 0.2185 0.4451 -0.1440 0.1740 Uiso
C11 C 0.2528(10) 0.3663(9) -0.265(2) 0.1104 Uani
N1 N 0.6868(11) 0.5000 -0.2368(15) 0.1108 Uani
C20 C 0.661(2) 0.5000 -0.369(2) 0.2040 Uani
H13 H 0.5934 0.5000 -0.3928 0.2480 Uiso
C21 C 0.7751(17) 0.5000 -0.203(3) 0.2249 Uani
H14 H 0.7922 0.5000 -0.1048 0.2680 Uiso
C22 C 0.854(2) 0.5000 -0.293(4) 0.3618 Uani
H15 H 0.9199 0.5000 -0.2605 0.4390 Uiso
C23 C 0.821(3) 0.5000 -0.438(4) 0.2873 Uani
H16 H 0.8681 0.5000 -0.5069 0.3420 Uiso
C24 C 0.722(3) 0.5000 -0.484(3) 0.3043 Uani
H17 H 0.6989 0.5000 -0.5802 0.3650 Uiso
Cu1D Cu 0.42551(8) 0.5000 0.08296(11) 0.0637 Uani
Cu1E Cu -0.07449(8) 0.0000 -0.91704(11) 0.0637 Uani
Cu1A Cu 0.07449(8) 0.0000 -1.08296(11) 0.0637 Uani
O1E O 0.0007(5) 0.0676(3) -0.8088(6) 0.0946 Uani
O1F O 0.4993(5) 0.5676(3) -0.1912(6) 0.0946 Uani
O2E O 0.1253(4) 0.0673(3) -0.9492(7) 0.0898 Uani
O2D O 0.6253(4) 0.5673(3) 0.0508(7) 0.0898 Uani
O2B O 0.6253(4) 0.4327(3) 0.0508(7) 0.0898 Uani
C1E C 0.0827(7) 0.0858(3) -0.8437(9) 0.0835 Uani
C2E C 0.1368(8) 0.1357(4) -0.7460(10) 0.1112 Uani
C3E C 0.0917(13) 0.1805(8) -0.6787(18) 0.1527 Uani
H1E H 0.0230 0.1811 -0.6863 0.1810 Uiso
C4E C 0.1402(13) 0.2279(11) -0.596(3) 0.1454 Uani
H2E H 0.1046 0.2645 -0.5676 0.1770 Uiso
C5E C 0.2308(10) 0.2245(5) -0.5553(12) 0.1365 Uani
C6E C 0.2946(11) 0.1819(11) -0.641(2) 0.1246 Uani
C7E C 0.3997(14) 0.1829(17) -0.629(4) 0.2287 Uani
H3E H 0.4330 0.2119 -0.5649 0.2730 Uiso
C8E C 0.4510(18) 0.1405(17) -0.712(4) 0.2389 Uani
H4E H 0.5192 0.1454 -0.7067 0.2870 Uiso
C9E C 0.4127(17) 0.0912(18) -0.802(4) 0.2069 Uani
H5E H 0.4506 0.0628 -0.8548 0.2470 Uiso
C10E C 0.3118(15) 0.0894(11) -0.804(3) 0.1466 Uani
H6E H 0.2815 0.0549 -0.8560 0.1740 Uiso
C11E C 0.2472(10) 0.1337(9) -0.735(2) 0.1104 Uani
C12? C 0.6254(18) 0.6284(13) 0.4028(19) 0.1569 Uani
H7? H 0.5928 0.5917 0.4376 0.1900 Uiso
C13? C 0.6636(16) 0.6771(12) 0.497(2) 0.1442 Uani
H8? H 0.6458 0.6786 0.5925 0.1730 Uiso
C14? C 0.7020(13) 0.7417(7) 0.3137(16) 0.1109 Uani
C15? C 0.742(2) 0.7994(10) 0.269(2) 0.1827 Uani
H9? H 0.7668 0.8309 0.3341 0.2180 Uiso
C16? C 0.743(3) 0.8094(11) 0.123(2) 0.2301 Uani
H10? H 0.7703 0.8486 0.0906 0.2740 Uiso
C17? C 0.706(3) 0.7647(12) 0.021(2) 0.2335 Uani
H11? H 0.7105 0.7721 -0.0768 0.2800 Uiso
C18? C 0.663(2) 0.7083(10) 0.0731(19) 0.1932 Uani
H12? H 0.6329 0.6786 0.0074 0.2320 Uiso
C19? C 0.6617(17) 0.6941(7) 0.2184(17) 0.1196 Uani
loop_
_atom_site_aniso_label
_atom_site_aniso_U_11
_atom_site_aniso_U_22
_atom_site_aniso_U_33
_atom_site_aniso_U_23
_atom_site_aniso_U_13
_atom_site_aniso_U_12
Cu1 0.0823(9) 0.0382(7) 0.0665(9) 0.000 -0.0284(6) 0.000
O1 0.128 0.072 0.08 -0.027 -0.026 -0.017
O2 0.104 0.065 0.096 -0.017 -0.03 -0.024
C1 0.117 0.051 0.076 -0.003 -0.047 -0.018
C2 0.165 0.072 0.089 -0.008 -0.055 -0.037
C3 0.096 0.17 0.19 -0.12 -0.01 -0.015
C4 0.121 0.12 0.19 -0.1 -0.033 0.026
C5 0.184 0.079 0.137 -0.024 -0.07 -0.028
C6 0.13 0.11 0.127 -0.065 -0.049 -0.022
C7 0.15 0.22 0.3 -0.15 -0.12 0.02
C8 0.27 0.23 0.21 -0.06 -0.04 0.12
C9 0.122 0.23 0.26 -0.15 -0.06 0
C10 0.15 0.121 0.16 -0.05 -0.064 0.007
C11 0.127 0.089 0.107 -0.039 -0.06 -0.014
N1 0.138(11) 0.085(7) 0.108(9) 0.000 -0.005(8) 0.000
C20 0.24(3) 0.24(3) 0.139(19) 0.000 0.07(2) 0.000
C21 0.16(2) 0.37(5) 0.139(18) 0.000 -0.038(17) 0.000
C22 0.14(2) 0.71(13) 0.24(4) 0.000 0.05(3) 0.000
C23 0.21(4) 0.22(3) 0.45(8) 0.000 0.17(5) 0.000
C24 0.42(7) 0.34(5) 0.17(3) 0.000 0.16(4) 0.000
Cu1D 0.0823 0.0382 0.0665 0 -0.0284 0
Cu1E 0.0823 0.0382 0.0665 0 -0.0284 0
Cu1A 0.0823 0.0382 0.0665 0 -0.0284 0
O1E 0.128 0.072 0.08 -0.027 -0.026 -0.017
O1F 0.128 0.072 0.08 0.027 -0.026 0.017
O2E 0.104 0.065 0.096 -0.017 -0.03 -0.024
O2D 0.104(4) 0.065(3) 0.096(4) -0.017(3) -0.030(3) -0.024(3)
O2B 0.104 0.065 0.096 0.017 -0.03 0.024
C1E 0.117 0.051 0.076 -0.003 -0.047 -0.018
C2E 0.165 0.072 0.089 -0.008 -0.055 -0.037
C3E 0.096 0.17 0.19 -0.12 -0.01 -0.015
C4E 0.121 0.12 0.19 -0.1 -0.033 0.026
C5E 0.184 0.079 0.137 -0.024 -0.07 -0.028
C6E 0.13 0.11 0.127 -0.065 -0.049 -0.022
C7E 0.15 0.22 0.3 -0.15 -0.12 0.02
C8E 0.27 0.23 0.21 -0.06 -0.04 0.12
C9E 0.122 0.23 0.26 -0.15 -0.06 0
C10E 0.15 0.121 0.16 -0.05 -0.064 0.007
C11E 0.127 0.089 0.107 -0.039 -0.06 -0.014
C12? 0.21(3) 0.14(3) 0.116(19) -0.039(17) -0.029(18) -0.06(3)
C13? 0.14(2) 0.17(3) 0.118(19) -0.063(19) -0.031(15) -0.03(2)
C14? 0.145(19) 0.077(11) 0.104(14) -0.024(10) -0.047(13) -0.029(12)
C15? 0.28(4) 0.108(19) 0.15(2) -0.025(16) -0.07(2) -0.09(2)
C16? 0.42(7) 0.14(2) 0.12(2) 0.029(18) -0.07(3) -0.15(3)
C17? 0.46(10) 0.09(3) 0.14(3) 0.02(2) -0.07(4) -0.13(5)
C18? 0.37(5) 0.092(16) 0.105(16) 0.018(13) -0.09(2) -0.10(2)
C19? 0.20(2) 0.053(9) 0.097(13) -0.017(8) -0.063(14) -0.028(12)
loop_
_geom_bond_atom_site_label_1
_geom_bond_atom_site_label_2
_geom_bond_site_symmetry_1
_geom_bond_site_symmetry_2
Cu1 O1 1_555 1_555
O1 C1 1_555 1_555
O2 C1 1_555 1_555
C1 C2 1_555 1_555
C2 C3 1_555 1_555
C3 H1 1_555 1_555
C4 C3 1_555 1_555
H2 C4 1_555 1_555
C5 C4 1_555 1_555
C6 C5 1_555 1_555
C7 C6 1_555 1_555
H3 C7 1_555 1_555
C8 C7 1_555 1_555
H4 C8 1_555 1_555
C9 C8 1_555 1_555
H5 C9 1_555 1_555
C10 C9 1_555 1_555
H6 C10 1_555 1_555
C11 C2 1_555 1_555
N1 Cu1 1_555 1_555
C20 N1 1_555 1_555
H13 C20 1_555 1_555
C21 N1 1_555 1_555
H14 C21 1_555 1_555
C22 C21 1_555 1_555
H15 C22 1_555 1_555
C23 C22 1_555 1_555
H16 C23 1_555 1_555
C24 C20 1_555 1_555
H17 C24 1_555 1_555
Cu1D O2 1_555 1_555
Cu1E O1E 1_555 1_555
Cu1A O2E 1_555 1_555
O1E C1E 1_555 1_555
O1F Cu1 1_555 1_555
O2E C1E 1_555 1_555
O2D Cu1 1_555 1_555
O2B Cu1 1_555 1_555
C1E C2E 1_555 1_555
C2E C3E 1_555 1_555
C3E H1E 1_555 1_555
C4E C3E 1_555 1_555
H2E C4E 1_555 1_555
C5E C5 1_555 1_555
C6E C5E 1_555 1_555
C7E C6E 1_555 1_555
H3E C7E 1_555 1_555
C8E C7E 1_555 1_555
H4E C8E 1_555 1_555
C9E C8E 1_555 1_555
H5E C9E 1_555 1_555
C10E C9E 1_555 1_555
H6E C10E 1_555 1_555
C11E C2E 1_555 1_555
C6 C11 1_555 1_555
C10 C11 1_555 1_555
C23 C24 1_555 1_555
C4E C5E 1_555 1_555
C6E C11E 1_555 1_555
C10E C11E 1_555 1_555

#END
