
#######################################################################
#
#                 Cambridge Crystallographic Data Centre
#                                CCDC 
#
#######################################################################
#
# If this CIF has been generated from an entry in the Cambridge 
# Structural Database, then it will include bibliographic, chemical, 
# crystal, experimental, refinement or atomic coordinate data resulting 
# from the CCDC's data processing and validation procedures.
#
#######################################################################

data_KOJYEO
_chemical_name_common            MOF-115
_chemical_formula_moiety         '(C38 H38 Cu2 N2 O10)n,n(C3 H7 N1 O1)'
_chemical_name_systematic        
"catena-(bis(\m~4~-3,3'-Dimethylbiphenyl-4,4'-dicarboxylato)-bis(N,N-dimethylformamide)-di-copper N,N-dimethylformamide solvate)"
_symmetry_cell_setting           monoclinic
_symmetry_space_group_name_H-M   'C 2/m'
_symmetry_Int_Tables_number      12
_space_group_name_Hall           '-C 2y'
loop_
_symmetry_equiv_pos_site_id
_symmetry_equiv_pos_as_xyz
1 x,y,z
2 1/2+x,1/2+y,z
3 -x,y,-z
4 1/2-x,1/2+y,-z
5 -x,-y,-z
6 1/2-x,1/2-y,-z
7 x,-y,z
8 1/2+x,1/2-y,z
_cell_length_a                   13.220(3)
_cell_length_b                   15.123(3)
_cell_length_c                   11.734(2)
_cell_angle_alpha                90
_cell_angle_beta                 105.673(5)
_cell_angle_gamma                90
_cell_volume                     2258.71
_exptl_crystal_colour            blue
_exptl_crystal_description       block
_cell_formula_units_Z            2
loop_
_atom_site_label
_atom_site_type_symbol
_atom_site_fract_x
_atom_site_fract_y
_atom_site_fract_z
Cu1 Cu 0.55711(4) 0.5000 0.92500(5)
O1 O 0.5478(2) 0.62838(18) 0.9360(3)
O2 O 0.4218(3) 0.5000 0.8039(3)
O3 O 0.3248(3) 0.5000 0.9318(3)
C1 C 0.5000 0.6664(3) 1.0000
C2 C 0.5000 0.7650(4) 1.0000
C3 C 0.5737(5) 0.8126(3) 0.9606(7)
C4 C 0.5730(5) 0.9046(3) 0.9624(8)
H1 H 0.6240 0.9352 0.9370
C5 C 0.5000 0.9514(3) 1.0000
C6 C 0.3362(4) 0.5000 0.8294(4)
C7 C 0.2375(4) 0.5000 0.7299(4)
C8 C 0.1918(5) 0.4233(4) 0.6835(6)
C9 C 0.0989(4) 0.4242(3) 0.5932(6)
H2 H 0.0694 0.3706 0.5620
C10 C 0.0500(4) 0.5000 0.5489(4)
C11 C 0.6772(12) 0.7740(8) 0.934(2)
H3 H 0.7142 0.8208 0.9075
H4 H 0.6582 0.7294 0.8738
C12 C 0.2518(13) 0.3339(9) 0.7201(18)
H6 H 0.3137 0.3443 0.7837
H7 H 0.2716 0.3098 0.6535
H8 H 0.2070 0.2928 0.7454
O4 O 0.6548(4) 0.5000 0.8068(4)
N1 N 0.7826(9) 0.5000 0.7255(10)
C13 C 0.7085(9) 0.5462(9) 0.7862(9)
H9 H 0.7100 0.6063 0.8031
C14 C 0.8233(16) 0.5749(13) 0.6901(14)
H10 H 0.8740 0.5591 0.6485
H11 H 0.8568 0.6098 0.7582
H12 H 0.7678 0.6086 0.6388
Cu1D Cu 0.44289(4) 0.5000 1.07500(5)
Cu1_2 Cu 0.55711(4) 1.5000 0.92500(5)
Cu1D_2 Cu 0.44289(4) 1.5000 1.07500(5)
Cu1D_3 Cu -0.55711(4) 0.5000 0.07500(5)
Cu1_3 Cu -0.44289(4) 0.5000 -0.07500(5)
O1B O 0.4522(2) 0.62838(18) 1.0640(3)
O1F O 0.5478(2) 1.37162(18) 0.9360(3)
O1D O 0.4522(2) 1.37162(18) 1.0640(3)
O1F_2 O 0.5478(2) 0.37162(18) 0.9360(3)
O1D_2 O 0.4522(2) 0.37162(18) 1.0640(3)
O2D O -0.4218(3) 0.5000 0.1961(3)
O2D_2 O 0.5782(3) 0.5000 1.1961(3)
O3D O -0.3248(3) 0.5000 0.0682(3)
O3D_2 O 0.6752(3) 0.5000 1.0682(3)
C1F C 0.5000 1.3336(3) 1.0000
C2F C 0.5000 1.2350(4) 1.0000
C3B C 0.4263(5) 0.8126(3) 1.0394(7)
C3F C 0.5737(5) 1.1874(3) 0.9606(7)
C3D C 0.4263(5) 1.1874(3) 1.0394(7)
C4B C 0.4270(5) 0.9046(3) 1.0376(8)
C4F C 0.5730(5) 1.0954(3) 0.9624(8)
C4D C 0.4270(5) 1.0954(3) 1.0376(8)
H1B H 0.3760 0.9352 1.0630
H1D H 0.3760 1.0648 1.0630
H1F H 0.6240 1.0648 0.9370
C5F C 0.5000 1.0486(3) 1.0000
C6D C -0.3362(4) 0.5000 0.1706(4)
C7D C -0.2375(4) 0.5000 0.2701(4)
C8F C 0.1918(5) 0.5767(4) 0.6835(6)
C8D C -0.1918(5) 0.5767(4) 0.3165(6)
C8B C -0.1918(5) 0.4233(4) 0.3165(6)
C9F C 0.0989(4) 0.5758(3) 0.5932(6)
C9D C -0.0989(4) 0.5758(3) 0.4068(6)
C9B C -0.0989(4) 0.4242(3) 0.4068(6)
H2F H 0.0694 0.6294 0.5620
H2B H -0.0694 0.3706 0.4380
H2D H -0.0694 0.6294 0.4380
C10D C -0.0500(4) 0.5000 0.4511(4)
C11B C 0.3228(12) 0.7740(8) 1.066(2)
C11D C 0.3228(12) 1.2260(8) 1.066(2)
C11F C 0.6772(12) 1.2260(8) 0.934(2)
H3B H 0.2858 0.8208 1.0925
H3D H 0.2858 1.1792 1.0925
H3F H 0.7142 1.1792 0.9075
H4B H 0.3418 0.7294 1.1262
H4D H 0.3418 1.2706 1.1262
H4F H 0.6582 1.2706 0.8738
C12F C 0.2518(13) 0.6661(9) 0.7201(18)
C12B C -0.2518(13) 0.3339(9) 0.2799(18)
C12D C -0.2518(13) 0.6661(9) 0.2799(18)
H6F H 0.3137 0.6557 0.7837
H6B H -0.3137 0.3443 0.2163
H6D H -0.3137 0.6557 0.2163
H7F H 0.2716 0.6902 0.6535
H7B H -0.2716 0.3098 0.3465
H7D H -0.2716 0.6902 0.3465
H8F H 0.2070 0.7072 0.7454
H8B H -0.2070 0.2928 0.2546
H8D H -0.2070 0.7072 0.2546
O4D O 0.3452(4) 0.5000 1.1932(4)
N1D N 0.2174(9) 0.5000 1.2745(10)
C13F C 0.7085(9) 0.4538(9) 0.7862(9)
C13B C 0.2915(9) 0.5462(9) 1.2138(9)
C13D C 0.2915(9) 0.4538(9) 1.2138(9)
H9F H 0.7100 0.3937 0.8031
H9B H 0.2900 0.6063 1.1969
H9D H 0.2900 0.3937 1.1969
C14F C 0.8233(16) 0.4251(13) 0.6901(14)
C14B C 0.1767(16) 0.5749(13) 1.3099(14)
C14D C 0.1767(16) 0.4251(13) 1.3099(14)
H10F H 0.8740 0.4409 0.6485
H10B H 0.1260 0.5591 1.3515
H10D H 0.1260 0.4409 1.3515
H11F H 0.8568 0.3902 0.7582
H11B H 0.1432 0.6098 1.2418
H11D H 0.1432 0.3902 1.2418
H12F H 0.7678 0.3914 0.6388
H12B H 0.2322 0.6086 1.3612
H12D H 0.2322 0.3914 1.3612
H5? H 0.7215 0.7484 1.0050
O5? O 0.412(3) 0.286(4) 0.563(5)
N2? N 0.5000 0.3874(17) 0.5000
C15? C 0.497(3) 0.3205(16) 0.590(2)
C16? C 0.5000 0.4850(18) 0.5000
loop_
_geom_bond_atom_site_label_1
_geom_bond_atom_site_label_2
_geom_bond_site_symmetry_1
_geom_bond_site_symmetry_2
Cu1 O1 1_555 1_555
O1 C1 1_555 1_555
O2 Cu1 1_555 1_555
O3 C6 1_555 1_555
C1 C2 1_555 1_555
C2 C3 1_555 1_555
C3 C4 1_555 1_555
C4 H1 1_555 1_555
C5 C4 1_555 1_555
C6 O2 1_555 1_555
C7 C6 1_555 1_555
C8 C7 1_555 1_555
C9 C8 1_555 1_555
H2 C9 1_555 1_555
C10 C9 1_555 1_555
C11 C3 1_555 1_555
H3 C11 1_555 1_555
H4 C11 1_555 1_555
C12 C8 1_555 1_555
H6 C12 1_555 1_555
H7 C12 1_555 1_555
H8 C12 1_555 1_555
O4 Cu1 1_555 1_555
N1 C13 1_555 1_555
C13 O4 1_555 1_555
H9 C13 1_555 1_555
C14 N1 1_555 1_555
H10 C14 1_555 1_555
H11 C14 1_555 1_555
H12 C14 1_555 1_555
Cu1D O3 1_555 1_555
Cu1_2 O1F 1_555 1_555
Cu1D_2 O1D 1_555 1_555
Cu1D_3 O2D 1_555 1_555
Cu1_3 O3D 1_555 1_555
O1B C1 1_555 1_555
O1F C1F 1_555 1_555
O1D C1F 1_555 1_555
O1F_2 Cu1 1_555 1_555
O1D_2 Cu1D 1_555 1_555
O2D C6D 1_555 1_555
O2D_2 Cu1D 1_555 1_555
O3D C6D 1_555 1_555
O3D_2 Cu1 1_555 1_555
C1F C2F 1_555 1_555
C2F C3F 1_555 1_555
C3B C2 1_555 1_555
C3F C4F 1_555 1_555
C3D C2F 1_555 1_555
C4B C5 1_555 1_555
C4F H1F 1_555 1_555
C4D C3D 1_555 1_555
H1B C4B 1_555 1_555
H1D C4D 1_555 1_555
C5F C5 1_555 1_555
C6D C7D 1_555 1_555
C7D C8D 1_555 1_555
C8F C7 1_555 1_555
C8D C9D 1_555 1_555
C8B C7D 1_555 1_555
C9F C10 1_555 1_555
C9D H2D 1_555 1_555
C9B C8B 1_555 1_555
H2F C9F 1_555 1_555
H2B C9B 1_555 1_555
C10D C10 1_555 1_555
C11B C3B 1_555 1_555
C11D C3D 1_555 1_555
C11F C3F 1_555 1_555
H3B C11B 1_555 1_555
H3D C11D 1_555 1_555
H3F C11F 1_555 1_555
H4B C11B 1_555 1_555
H4D C11D 1_555 1_555
H4F C11F 1_555 1_555
C12F C8F 1_555 1_555
C12B C8B 1_555 1_555
C12D C8D 1_555 1_555
H6F C12F 1_555 1_555
H6B C12B 1_555 1_555
H6D C12D 1_555 1_555
H7F C12F 1_555 1_555
H7B C12B 1_555 1_555
H7D C12D 1_555 1_555
H8F C12F 1_555 1_555
H8B C12B 1_555 1_555
H8D C12D 1_555 1_555
O4D Cu1D 1_555 1_555
N1D C13B 1_555 1_555
C13F O4 1_555 1_555
C13B O4D 1_555 1_555
C13D O4D 1_555 1_555
H9F C13F 1_555 1_555
H9B C13B 1_555 1_555
H9D C13D 1_555 1_555
C14F N1 1_555 1_555
C14B N1D 1_555 1_555
C14D N1D 1_555 1_555
H10F C14F 1_555 1_555
H10B C14B 1_555 1_555
H10D C14D 1_555 1_555
H11F C14F 1_555 1_555
H11B C14B 1_555 1_555
H11D C14D 1_555 1_555
H12F C14F 1_555 1_555
H12B C14B 1_555 1_555
H12D C14D 1_555 1_555
N1 C13F 1_555 1_555
C13 C13F 1_555 1_555
Cu1D O1B 1_555 1_555
C3B C4B 1_555 1_555
C4F C5F 1_555 1_555
C4D C5F 1_555 1_555
C8F C9F 1_555 1_555
C9D C10D 1_555 1_555
C9B C10D 1_555 1_555
N1D C13D 1_555 1_555
C13B C13D 1_555 1_555

#END
