
#######################################################################
#
#                 Cambridge Crystallographic Data Centre
#                                CCDC 
#
#######################################################################
#
# If this CIF has been generated from an entry in the Cambridge 
# Structural Database, then it will include bibliographic, chemical, 
# crystal, experimental, refinement or atomic coordinate data resulting 
# from the CCDC's data processing and validation procedures.
#
#######################################################################

data_KOJYOY
_chemical_name_common            MOF-117
_chemical_formula_moiety         '(C20 H19 Cu1 N1 O6)n,n(C5 H11 N1 O1)'
_chemical_name_systematic        
"catena-((\m~4~-Benzophenone-4,4'-dicarboxylato)-(N,N-diethylformamide)-copper N,N-diethylformamide solvate)"
_symmetry_cell_setting           monoclinic
_symmetry_space_group_name_H-M   'P 21/c'
_symmetry_Int_Tables_number      14
_space_group_name_Hall           '-P 2ybc'
loop_
_symmetry_equiv_pos_site_id
_symmetry_equiv_pos_as_xyz
1 x,y,z
2 -x,1/2+y,1/2-z
3 -x,-y,-z
4 x,1/2-y,1/2+z
_cell_length_a                   10.0679(14)
_cell_length_b                   18.449(3)
_cell_length_c                   14.567(2)
_cell_angle_alpha                90
_cell_angle_beta                 104.786(4)
_cell_angle_gamma                90
_cell_volume                     2616.12
_exptl_crystal_colour            blue
_exptl_crystal_description       block
_cell_formula_units_Z            4
loop_
_atom_site_label
_atom_site_type_symbol
_atom_site_fract_x
_atom_site_fract_y
_atom_site_fract_z
_atom_site_U_iso_or_equiv
_atom_site_thermal_displace_type
Cu1 Cu 0.95210(5) -0.04930(3) 1.04954(4) 0.0332 Uani
O1 O 0.2793(5) 0.2709(2) 1.0529(3) 0.0706 Uani
O2 O 0.7927(3) 0.01331(18) 1.0433(2) 0.0454 Uani
O3 O 0.8777(3) 0.09632(19) 0.9619(2) 0.0487 Uani
O4 O 0.0550(4) 0.4926(2) 0.6586(2) 0.0491 Uani
O5 O 0.1387(3) 0.41103(19) 0.5752(2) 0.0465 Uani
C1 C 0.3347(5) 0.2670(3) 0.9883(4) 0.0461 Uani
C2 C 0.4529(5) 0.2167(3) 0.9940(3) 0.0399 Uani
C3 C 0.4467(5) 0.1459(3) 1.0255(3) 0.0409 Uani
H1 H 0.3695 0.1297 1.0434 0.0490 Uiso
C4 C 0.5572(5) 0.0996(3) 1.0298(3) 0.0408 Uani
H2 H 0.5541 0.0523 1.0509 0.0490 Uiso
C5 C 0.6724(5) 0.1238(3) 1.0026(3) 0.0402 Uani
C6 C 0.6790(5) 0.1952(3) 0.9750(4) 0.0474 Uani
H3 H 0.7575 0.2120 0.9594 0.0570 Uiso
C7 C 0.5701(5) 0.2413(3) 0.9704(4) 0.0483 Uani
H4 H 0.5752 0.2892 0.9515 0.0580 Uiso
C8 C 0.7901(5) 0.0732(3) 1.0029(3) 0.0368 Uani
C9 C 0.2869(5) 0.3120(3) 0.9017(3) 0.0404 Uani
C10 C 0.3062(5) 0.2906(3) 0.8150(3) 0.0449 Uani
H5 H 0.3558 0.2488 0.8109 0.0530 Uiso
C11 C 0.2522(5) 0.3311(3) 0.7345(3) 0.0435 Uani
H6 H 0.2625 0.3153 0.6761 0.0520 Uiso
C12 C 0.1833(5) 0.3945(3) 0.7401(3) 0.0372 Uani
C13 C 0.1649(6) 0.4173(3) 0.8268(4) 0.0504 Uani
H7 H 0.1186 0.4603 0.8308 0.0610 Uiso
C14 C 0.2153(6) 0.3760(3) 0.9068(3) 0.0521 Uani
H8 H 0.2016 0.3909 0.9647 0.0620 Uiso
C15 C 0.1209(5) 0.4364(3) 0.6512(3) 0.0382 Uani
O6 O 0.9164(4) -0.1373(2) 1.1386(3) 0.0560 Uani
N1 N 1.0600(6) -0.2188(4) 1.2281(5) 0.0902 Uani
C16 C 0.9862(6) -0.1926(4) 1.1494(4) 0.0610 Uani
H9 H 0.9859 -0.2187 1.0947 0.0730 Uiso
C17 C 1.0978(13) -0.1636(8) 1.3210(8) 0.1792 Uani
H10 H 1.1912 -0.1700 1.3592 0.2150 Uiso
H11 H 1.0818 -0.1131 1.3029 0.2150 Uiso
C18 C 1.0110(15) -0.1878(9) 1.3608(14) 0.2518 Uani
H12 H 1.0148 -0.1605 1.4175 0.3770 Uiso
H13 H 1.0304 -0.2378 1.3769 0.3770 Uiso
H14 H 0.9209 -0.1836 1.3186 0.3770 Uiso
C19 C 1.1349(8) -0.2880(5) 1.2314(7) 0.1117 Uani
H15 H 1.1093 -0.3197 1.2772 0.1340 Uiso
H16 H 1.1058 -0.3112 1.1697 0.1340 Uiso
C20 C 1.2839(9) -0.2809(5) 1.2565(6) 0.1215 Uani
H17 H 1.3249 -0.3279 1.2564 0.1830 Uiso
H18 H 1.3143 -0.2597 1.3185 0.1830 Uiso
H19 H 1.3107 -0.2503 1.2109 0.1830 Uiso
Cu1B Cu 1.04790(5) 0.04930(3) 0.95046(4) 0.0332 Uani
Cu1C Cu -0.04790(5) 0.54930(3) 0.54954(4) 0.0332 Uani
Cu1A Cu 0.04790(5) 0.45070(3) 0.45046(4) 0.0332 Uani
O3B O 1.1223(3) -0.09632(19) 1.0381(2) 0.0487 Uani
O4C O 1.0550(4) 0.0074(2) 1.1586(2) 0.0491 Uani
O5A O 0.8613(3) -0.08897(19) 0.9248(2) 0.0465 Uani
O7 O 1.3221(16) -0.4121(7) 1.0617(14) 0.3167 Uani
N2 N 1.3837(16) -0.4989(7) 1.1569(11) 0.2262 Uani
C21 C 1.4154(19) -0.4544(10) 1.1020(17) 0.2866 Uani
H20 H 1.5028 -0.4528 1.0918 0.3460 Uiso
C22 C 1.230(3) -0.5293(14) 1.1434(16) 0.4346 Uani
H21 H 1.1636 -0.5085 1.0896 0.5210 Uiso
H22 H 1.2240 -0.5818 1.1423 0.5210 Uiso
C23 C 1.226(2) -0.5027(11) 1.2196(15) 0.2935 Uani
H23 H 1.1406 -0.5147 1.2333 0.4400 Uiso
H24 H 1.2347 -0.4510 1.2165 0.4400 Uiso
H25 H 1.3008 -0.5216 1.2687 0.4400 Uiso
C24 C 1.495(3) -0.5229(12) 1.2456(17) 0.4331 Uani
H26 H 1.5718 -0.4893 1.2603 0.5180 Uiso
H27 H 1.4582 -0.5280 1.3006 0.5180 Uiso
C25 C 1.533(3) -0.5896(11) 1.216(2) 0.4032 Uani
H28 H 1.6060 -0.6100 1.2649 0.6040 Uiso
H29 H 1.5647 -0.5830 1.1594 0.6040 Uiso
H30 H 1.4557 -0.6217 1.2026 0.6040 Uiso
loop_
_atom_site_aniso_label
_atom_site_aniso_U_11
_atom_site_aniso_U_22
_atom_site_aniso_U_33
_atom_site_aniso_U_23
_atom_site_aniso_U_13
_atom_site_aniso_U_12
Cu1 0.0303(3) 0.0371(3) 0.0296(3) 0.0017(3) 0.0031(2) -0.0018(3)
O1 0.087(3) 0.085(3) 0.051(2) 0.026(2) 0.038(2) 0.040(3)
O2 0.0410(19) 0.043(2) 0.055(2) 0.0104(18) 0.0176(16) 0.0075(16)
O3 0.0396(19) 0.054(2) 0.055(2) 0.0148(18) 0.0168(17) 0.0080(17)
O4 0.055(2) 0.053(2) 0.0341(19) 0.0032(16) 0.0021(16) 0.0156(19)
O5 0.048(2) 0.055(2) 0.0349(19) 0.0033(17) 0.0078(15) 0.0155(17)
C1 0.051(3) 0.053(3) 0.036(3) 0.010(2) 0.014(2) 0.010(3)
C2 0.039(3) 0.047(3) 0.033(3) 0.005(2) 0.008(2) 0.007(2)
C3 0.033(2) 0.049(3) 0.040(3) 0.005(2) 0.008(2) 0.002(2)
C4 0.040(3) 0.037(3) 0.045(3) 0.003(2) 0.010(2) -0.001(2)
C5 0.034(3) 0.048(3) 0.036(3) 0.002(2) 0.004(2) 0.004(2)
C6 0.037(3) 0.054(3) 0.051(3) 0.011(3) 0.011(2) 0.004(2)
C7 0.052(3) 0.043(3) 0.049(3) 0.015(2) 0.011(2) 0.007(2)
C8 0.032(2) 0.044(3) 0.032(2) -0.002(2) 0.0037(19) 0.001(2)
C9 0.042(3) 0.046(3) 0.034(3) 0.008(2) 0.011(2) 0.004(2)
C10 0.051(3) 0.047(3) 0.038(3) 0.005(2) 0.014(2) 0.015(2)
C11 0.053(3) 0.051(3) 0.026(2) 0.003(2) 0.009(2) 0.010(2)
C12 0.032(2) 0.049(3) 0.029(2) 0.006(2) 0.0048(18) 0.004(2)
C13 0.059(3) 0.052(3) 0.041(3) 0.005(2) 0.014(2) 0.024(3)
C14 0.065(4) 0.063(4) 0.030(3) 0.006(2) 0.015(2) 0.028(3)
C15 0.030(2) 0.047(3) 0.034(3) 0.004(2) 0.0014(19) 0.003(2)
O6 0.052(2) 0.058(3) 0.058(2) 0.019(2) 0.0139(18) -0.002(2)
N1 0.092(5) 0.101(5) 0.068(4) 0.027(4) 0.003(3) 0.013(4)
C16 0.056(4) 0.066(4) 0.055(4) 0.016(3) 0.003(3) -0.010(3)
C17 0.156(11) 0.264(17) 0.140(10) 0.120(11) 0.079(9) 0.099(12)
C18 0.160(14) 0.236(18) 0.37(3) 0.144(18) 0.087(16) 0.042(13)
C19 0.087(6) 0.102(6) 0.136(8) 0.050(6) 0.010(5) 0.027(5)
C20 0.106(7) 0.162(9) 0.091(6) 0.043(6) 0.015(5) 0.042(7)
Cu1B 0.0303 0.0371 0.0296 0.0017 0.0031 -0.0018
Cu1C 0.0303 0.0371 0.0296 -0.0017 0.0031 0.0018
Cu1A 0.0303 0.0371 0.0296 -0.0017 0.0031 0.0018
O3B 0.0396 0.054 0.055 0.0148 0.0168 0.008
O4C 0.055 0.053 0.0341 -0.0032 0.0021 -0.0156
O5A 0.048 0.055 0.0349 -0.0033 0.0078 -0.0155
O7 0.315(18) 0.209(13) 0.41(2) 0.155(14) 0.063(16) -0.020(12)
N2 0.240(16) 0.165(12) 0.238(16) 0.099(12) -0.004(13) -0.017(11)
C21 0.23(2) 0.20(2) 0.39(3) 0.19(2) 0.006(19) -0.007(15)
C22 0.53(4) 0.50(4) 0.39(3) -0.31(3) 0.33(3) -0.28(3)
C23 0.32(3) 0.30(2) 0.34(3) -0.16(2) 0.23(2) -0.09(2)
C24 0.52(5) 0.29(3) 0.49(5) -0.15(4) 0.13(4) -0.09(4)
C25 0.38(3) 0.29(3) 0.50(4) -0.11(3) 0.04(3) 0.18(3)
loop_
_geom_bond_atom_site_label_1
_geom_bond_atom_site_label_2
_geom_bond_site_symmetry_1
_geom_bond_site_symmetry_2
Cu1 O2 1_555 1_555
O1 C1 1_555 1_555
O2 C8 1_555 1_555
O3 C8 1_555 1_555
O4 C15 1_555 1_555
O5 C15 1_555 1_555
C1 C2 1_555 1_555
C2 C3 1_555 1_555
C3 H1 1_555 1_555
C4 C3 1_555 1_555
H2 C4 1_555 1_555
C5 C4 1_555 1_555
C6 C5 1_555 1_555
H3 C6 1_555 1_555
C7 C2 1_555 1_555
H4 C7 1_555 1_555
C8 C5 1_555 1_555
C9 C1 1_555 1_555
C10 C9 1_555 1_555
H5 C10 1_555 1_555
C11 C10 1_555 1_555
H6 C11 1_555 1_555
C12 C11 1_555 1_555
C13 C12 1_555 1_555
H7 C13 1_555 1_555
C14 C9 1_555 1_555
H8 C14 1_555 1_555
C15 C12 1_555 1_555
O6 Cu1 1_555 1_555
N1 C16 1_555 1_555
C16 O6 1_555 1_555
H9 C16 1_555 1_555
C17 N1 1_555 1_555
H10 C17 1_555 1_555
H11 C17 1_555 1_555
C18 C17 1_555 1_555
H12 C18 1_555 1_555
H13 C18 1_555 1_555
H14 C18 1_555 1_555
C19 N1 1_555 1_555
H15 C19 1_555 1_555
H16 C19 1_555 1_555
C20 C19 1_555 1_555
H17 C20 1_555 1_555
H18 C20 1_555 1_555
H19 C20 1_555 1_555
O7 C21 1_555 1_555
N2 C21 1_555 1_555
C21 H20 1_555 1_555
C22 N2 1_555 1_555
H21 C22 1_555 1_555
H22 C22 1_555 1_555
C23 C22 1_555 1_555
H23 C23 1_555 1_555
H24 C23 1_555 1_555
H25 C23 1_555 1_555
C24 N2 1_555 1_555
H26 C24 1_555 1_555
H27 C24 1_555 1_555
C25 C24 1_555 1_555
H28 C25 1_555 1_555
H29 C25 1_555 1_555
H30 C25 1_555 1_555
Cu1B O3 1_555 1_555
Cu1C O4 1_555 1_555
Cu1A O5 1_555 1_555
O3B Cu1 1_555 1_555
O4C Cu1 1_555 1_555
O5A Cu1 1_555 1_555
C6 C7 1_555 1_555
C13 C14 1_555 1_555

#END
