
#######################################################################
#
#                 Cambridge Crystallographic Data Centre
#                                CCDC 
#
#######################################################################
#
# If this CIF has been generated from an entry in the Cambridge 
# Structural Database, then it will include bibliographic, chemical, 
# crystal, experimental, refinement or atomic coordinate data resulting 
# from the CCDC's data processing and validation procedures.
#
#######################################################################

data_KOJYAK
_chemical_name_common            MOF-114
_chemical_formula_moiety         '(C17 H15 N1 O7 S1 Zn1)n,0.5n(C3 H7 N1 O1)'
_chemical_name_systematic        
'catena-((\m~4~-bis(4-Carboxyphenyl)sulfone)-(N,N-dimethylformamide)-zinc N,N-dimethylformamide solvate)'
_symmetry_cell_setting           monoclinic
_symmetry_space_group_name_H-M   'C 2/c'
_symmetry_Int_Tables_number      15
_space_group_name_Hall           '-C 2yc'
loop_
_symmetry_equiv_pos_site_id
_symmetry_equiv_pos_as_xyz
1 x,y,z
2 1/2+x,1/2+y,z
3 -x,y,1/2-z
4 1/2-x,1/2+y,1/2-z
5 -x,-y,-z
6 1/2-x,1/2-y,-z
7 x,-y,1/2+z
8 1/2+x,1/2-y,1/2+z
_cell_length_a                   22.241(2)
_cell_length_b                   12.7034(12)
_cell_length_c                   17.6543(16)
_cell_angle_alpha                90
_cell_angle_beta                 126.361(2)
_cell_angle_gamma                90
_cell_volume                     4016.81
_exptl_crystal_colour            colorless
_exptl_crystal_description       rectangular
_cell_formula_units_Z            8
loop_
_atom_site_label
_atom_site_type_symbol
_atom_site_fract_x
_atom_site_fract_y
_atom_site_fract_z
_atom_site_U_iso_or_equiv
_atom_site_thermal_displace_type
Zn1 Zn 1.052063(10) 0.479323(14) 0.601906(12) 0.0239 Uani
S1 S 0.66488(2) 0.63056(3) 0.58009(3) 0.0293 Uani
O1 O 0.96021(8) 0.54174(11) 0.58246(10) 0.0400 Uani
O2 O 0.87572(7) 0.56248(11) 0.42694(10) 0.0385 Uani
O3 O 0.59459(7) 0.12830(9) 0.62784(9) 0.0376 Uani
O4 O 0.51391(8) 0.15130(10) 0.47257(9) 0.0392 Uani
O5 O 0.70169(8) 0.66886(10) 0.67451(10) 0.0407 Uani
O6 O 0.60199(7) 0.68648(10) 0.50302(10) 0.0411 Uani
C1 C 0.83790(9) 0.58534(13) 0.52600(12) 0.0292 Uani
C2 C 0.85890(10) 0.58863(15) 0.61725(13) 0.0350 Uani
H1 H 0.9088 0.5795 0.6675 0.0420 Uiso
C3 C 0.80653(10) 0.60537(15) 0.63444(12) 0.0337 Uani
H2 H 0.8208 0.6084 0.6957 0.0400 Uiso
C4 C 0.73259(9) 0.61742(12) 0.55871(12) 0.0269 Uani
C5 C 0.71022(10) 0.61548(15) 0.46698(13) 0.0350 Uani
H3 H 0.6602 0.6243 0.4169 0.0420 Uiso
C6 C 0.76346(10) 0.60019(15) 0.45084(13) 0.0355 Uani
H4 H 0.7494 0.5999 0.3896 0.0430 Uiso
C7 C 0.89612(10) 0.56220(13) 0.51014(13) 0.0314 Uani
C8 C 0.59045(9) 0.29398(12) 0.56290(12) 0.0286 Uani
C9 C 0.54905(10) 0.36106(14) 0.48749(13) 0.0344 Uani
H5 H 0.5055 0.3370 0.4321 0.0410 Uiso
C10 C 0.57176(10) 0.46445(14) 0.49330(13) 0.0344 Uani
H6 H 0.5437 0.5097 0.4423 0.0410 Uiso
C11 C 0.63670(9) 0.49905(12) 0.57615(13) 0.0276 Uani
C12 C 0.67927(10) 0.43299(14) 0.65310(13) 0.0360 Uani
H7 H 0.7227 0.4574 0.7084 0.0430 Uiso
C13 C 0.65594(10) 0.32976(14) 0.64625(13) 0.0363 Uani
H8 H 0.6839 0.2844 0.6972 0.0440 Uiso
C14 C 0.56429(10) 0.18178(13) 0.55417(12) 0.0305 Uani
O7 O 1.09500(8) 0.41241(10) 0.72551(8) 0.0359 Uani
N1 N 1.13701(11) 0.27038(13) 0.81907(12) 0.0463 Uani
C15 C 1.12764(11) 0.32689(15) 0.75093(13) 0.0363 Uani
H9 H 1.1467 0.3011 0.7198 0.0440 Uiso
C16 C 1.1045(2) 0.3025(2) 0.8665(2) 0.0761 Uani
H10 H 1.0787 0.3681 0.8407 0.1140 Uiso
H11 H 1.1434 0.3110 0.9325 0.1140 Uiso
H12 H 1.0700 0.2497 0.8578 0.1140 Uiso
C17 C 1.1779(2) 0.1712(2) 0.8482(2) 0.0805 Uani
H13 H 1.1960 0.1583 0.8114 0.1210 Uiso
H14 H 1.1454 0.1149 0.8388 0.1210 Uiso
H15 H 1.2193 0.1750 0.9135 0.1210 Uiso
Zn1D Zn 0.947937(10) 0.520677(14) 0.398094(12) 0.0239 Uani
Zn1A Zn 0.552063(10) -0.020677(14) 0.601906(12) 0.0239 Uani
Zn1E Zn 0.447937(10) 0.020677(14) 0.398094(12) 0.0239 Uani
O2D O 1.12428(7) 0.43752(11) 0.57306(10) 0.0385 Uani
O3A O 1.09459(7) 0.62830(9) 0.62784(9) 0.0376 Uani
O4E O 0.98609(8) 0.34870(10) 0.52743(9) 0.0392 Uani
O8? O 0.5000 0.4484(3) 0.2500 0.1360 Uani
N2? N 0.5000 0.6254(3) 0.2500 0.0592 Uani
C18? C 0.4834(4) 0.5250(5) 0.2574(4) 0.0709 Uani
H16? H 0.4497 0.5215 0.2723 0.0850 Uiso
C19? C 0.4612(2) 0.6768(5) 0.2772(3) 0.1572 Uani
H17? H 0.4893 0.6744 0.3445 0.2360 Uiso
H18? H 0.4138 0.6430 0.2493 0.2360 Uiso
H19? H 0.4533 0.7487 0.2569 0.2360 Uiso
loop_
_atom_site_aniso_label
_atom_site_aniso_U_11
_atom_site_aniso_U_22
_atom_site_aniso_U_33
_atom_site_aniso_U_23
_atom_site_aniso_U_13
_atom_site_aniso_U_12
Zn1 0.02857(11) 0.02223(10) 0.02511(10) 0.00050(6) 0.01823(8) -0.00084(6)
S1 0.0322(2) 0.02035(17) 0.0457(2) -0.00308(16) 0.02882(19) -0.00237(14)
O1 0.0389(7) 0.0420(7) 0.0518(8) 0.0059(6) 0.0338(7) 0.0081(6)
O2 0.0426(7) 0.0398(7) 0.0476(7) -0.0046(6) 0.0346(6) -0.0013(6)
O3 0.0453(7) 0.0246(6) 0.0440(7) 0.0010(5) 0.0270(6) -0.0053(5)
O4 0.0507(8) 0.0314(6) 0.0418(7) -0.0105(6) 0.0308(7) -0.0153(6)
O5 0.0499(8) 0.0340(6) 0.0536(8) -0.0160(6) 0.0391(7) -0.0105(6)
O6 0.0355(7) 0.0266(6) 0.0660(9) 0.0069(6) 0.0327(7) 0.0045(5)
C1 0.0339(8) 0.0243(7) 0.0404(9) 0.0015(7) 0.0280(8) 0.0010(6)
C2 0.0285(8) 0.0428(9) 0.0361(9) 0.0052(8) 0.0204(7) 0.0056(7)
C3 0.0341(8) 0.0397(9) 0.0332(8) 0.0052(7) 0.0232(7) 0.0048(7)
C4 0.0289(7) 0.0216(7) 0.0375(8) 0.0000(6) 0.0237(7) -0.0013(6)
C5 0.0271(8) 0.0441(10) 0.0337(8) -0.0006(7) 0.0179(7) -0.0008(7)
C6 0.0370(9) 0.0433(10) 0.0324(8) -0.0020(8) 0.0239(8) -0.0020(8)
C7 0.0374(9) 0.0235(7) 0.0463(10) -0.0012(7) 0.0319(8) -0.0008(6)
C8 0.0348(8) 0.0230(7) 0.0367(8) -0.0038(6) 0.0259(7) -0.0050(6)
C9 0.0348(9) 0.0305(8) 0.0345(8) -0.0035(7) 0.0187(7) -0.0077(7)
C10 0.0351(9) 0.0275(8) 0.0362(9) 0.0028(7) 0.0188(8) -0.0023(7)
C11 0.0314(8) 0.0217(6) 0.0382(9) -0.0020(6) 0.0252(7) -0.0034(6)
C12 0.0339(9) 0.0317(9) 0.0353(9) -0.0016(7) 0.0166(8) -0.0083(7)
C13 0.0385(9) 0.0277(8) 0.0362(9) 0.0035(7) 0.0186(8) -0.0041(7)
C14 0.0373(8) 0.0239(7) 0.0413(9) -0.0063(7) 0.0293(8) -0.0058(6)
O7 0.0508(7) 0.0309(6) 0.0292(6) 0.0025(5) 0.0255(6) 0.0034(6)
N1 0.0650(11) 0.0361(8) 0.0425(9) 0.0104(7) 0.0344(9) 0.0064(8)
C15 0.0456(10) 0.0348(9) 0.0350(9) 0.0017(7) 0.0275(8) 0.0007(8)
C16 0.122(3) 0.0726(18) 0.0703(17) 0.0223(15) 0.0771(19) 0.0192(17)
C17 0.117(3) 0.0525(15) 0.0783(19) 0.0316(14) 0.0613(19) 0.0316(16)
Zn1D 0.02857 0.02223 0.02511 0.0005 0.01823 -0.00084
Zn1A 0.02857 0.02223 0.02511 0.0005 0.01823 -0.00084
Zn1E 0.02857 0.02223 0.02511 0.0005 0.01823 -0.00084
O2D 0.0426 0.0398 0.0476 -0.0046 0.0346 -0.0013
O3A 0.0453 0.0246 0.044 0.001 0.027 -0.0053
O4E 0.0507 0.0314 0.0418 -0.0105 0.0308 -0.0153
O8? 0.147(4) 0.071(2) 0.113(3) 0.000 0.035(3) 0.000
N2? 0.0567(17) 0.069(2) 0.0429(14) 0.000 0.0246(13) 0.000
C18? 0.075(5) 0.075(3) 0.044(3) -0.002(3) 0.025(3) -0.007(3)
C19? 0.118(3) 0.251(6) 0.069(2) 0.004(3) 0.037(2) 0.104(4)
loop_
_geom_bond_atom_site_label_1
_geom_bond_atom_site_label_2
_geom_bond_site_symmetry_1
_geom_bond_site_symmetry_2
Zn1 O1 1_555 1_555
S1 O5 1_555 1_555
O1 C7 1_555 1_555
O2 C7 1_555 1_555
O3 C14 1_555 1_555
O4 C14 1_555 1_555
O6 S1 1_555 1_555
C1 C2 1_555 1_555
C2 H1 1_555 1_555
C3 C2 1_555 1_555
H2 C3 1_555 1_555
C4 S1 1_555 1_555
C5 C4 1_555 1_555
H3 C5 1_555 1_555
C6 C1 1_555 1_555
H4 C6 1_555 1_555
C7 C1 1_555 1_555
C8 C9 1_555 1_555
C9 H5 1_555 1_555
C10 C9 1_555 1_555
H6 C10 1_555 1_555
C11 S1 1_555 1_555
C12 C11 1_555 1_555
H7 C12 1_555 1_555
C13 C8 1_555 1_555
H8 C13 1_555 1_555
C14 C8 1_555 1_555
O7 Zn1 1_555 1_555
N1 C15 1_555 1_555
C15 O7 1_555 1_555
H9 C15 1_555 1_555
C16 N1 1_555 1_555
H10 C16 1_555 1_555
H11 C16 1_555 1_555
H12 C16 1_555 1_555
C17 N1 1_555 1_555
H13 C17 1_555 1_555
H14 C17 1_555 1_555
H15 C17 1_555 1_555
Zn1D O2 1_555 1_555
Zn1A O3 1_555 1_555
Zn1E O4 1_555 1_555
O2D Zn1 1_555 1_555
O3A Zn1 1_555 1_555
O4E Zn1 1_555 1_555
C3 C4 1_555 1_555
C5 C6 1_555 1_555
C10 C11 1_555 1_555
C12 C13 1_555 1_555

#END
