
#######################################################################
#
#                 Cambridge Crystallographic Data Centre
#                                CCDC 
#
#######################################################################
#
# If this CIF has been generated from an entry in the Cambridge 
# Structural Database, then it will include bibliographic, chemical, 
# crystal, experimental, refinement or atomic coordinate data resulting 
# from the CCDC's data processing and validation procedures.
#
#######################################################################

data_KOJZAL
_chemical_name_common            MOF-119
_chemical_formula_moiety         
'(C18 H17 Cu1 N3 O5)n,0.5n(C4 H9 N1 O1),0.5n(C5 H5 N1),n(H2 O1)'
_chemical_name_systematic        
"catena-((\m~4~-4,4'-Azo-dibenzoato)-(N,N-dimethylacetamide)-copper N,N-dimethylacetamide pyridine solvate monohydrate)"
_symmetry_cell_setting           orthorhombic
_symmetry_space_group_name_H-M   'I b a m'
_symmetry_Int_Tables_number      72
_space_group_name_Hall           '-I 2 2c'
loop_
_symmetry_equiv_pos_site_id
_symmetry_equiv_pos_as_xyz
1 x,y,z
2 -x,-y,z
3 x,-y,1/2-z
4 -x,y,1/2-z
5 1/2+x,1/2+y,1/2+z
6 1/2-x,1/2-y,1/2+z
7 1/2+x,1/2-y,-z
8 1/2-x,1/2+y,-z
9 -x,-y,-z
10 x,y,-z
11 -x,y,1/2+z
12 x,-y,1/2+z
13 1/2-x,1/2-y,1/2-z
14 1/2+x,1/2+y,1/2-z
15 1/2-x,1/2+y,z
16 1/2+x,1/2-y,z
_cell_length_a                   10.0482(9)
_cell_length_b                   18.2409(16)
_cell_length_c                   26.895(2)
_cell_angle_alpha                90
_cell_angle_beta                 90
_cell_angle_gamma                90
_cell_volume                     4929.54
_exptl_crystal_colour            'dark blue'
_exptl_crystal_description       prismatic
_cell_formula_units_Z            8
loop_
_atom_site_label
_atom_site_type_symbol
_atom_site_fract_x
_atom_site_fract_y
_atom_site_fract_z
O2 O -0.394(3) 0.0000 0.2500
Cu1 Cu 0.11240(6) 0.03890(3) 0.5000
O3 O 0.1686(3) -0.03045(15) 0.44822(11)
O4 O -0.0206(3) -0.09477(16) 0.44758(10)
N1 N 0.2904(4) -0.2322(2) 0.26222(14)
C1 C 0.1436(4) -0.1223(2) 0.38788(14)
C2 C 0.2720(5) -0.1130(3) 0.37104(18)
H1 H 0.3295 -0.0806 0.3877
C3 C 0.3167(5) -0.1508(3) 0.3300(2)
H2 H 0.4052 -0.1450 0.3192
C4 C 0.2337(5) -0.1963(3) 0.30490(17)
C5 C 0.1030(5) -0.2055(3) 0.32030(18)
H3 H 0.0451 -0.2363 0.3025
C6 C 0.0590(5) -0.1691(3) 0.36193(17)
H4 H -0.0289 -0.1759 0.3730
C7 C 0.0930(4) -0.0792(2) 0.43163(13)
O5 O 0.2825(5) 0.1094(3) 0.5000
N2 N 0.4670(12) 0.1676(7) 0.5000
C8 C 0.3981(12) 0.1073(8) 0.5000
C9 C 0.399(3) 0.2343(11) 0.5000
H5 H 0.3002 0.2183 0.5000
H6 H 0.4129 0.2593 0.5291
C10 C 0.613(2) 0.1748(12) 0.5000
H7 H 0.6637 0.1292 0.5000
H8 H 0.6496 0.2032 0.4709
O3L O 0.3314(3) -0.46955(15) 0.05178(11)
O4L O 0.5206(3) -0.40523(16) 0.05242(10)
N1L N 0.2096(4) -0.2678(2) 0.23778(14)
C1L C 0.3564(4) -0.3777(2) 0.11212(14)
C2L C 0.2280(5) -0.3870(3) 0.12896(18)
H1L H 0.1705 -0.4194 0.1123
C3L C 0.1833(5) -0.3492(3) 0.1700(2)
H2L H 0.0948 -0.3550 0.1808
C4L C 0.2663(5) -0.3037(3) 0.19510(17)
C5L C 0.3970(5) -0.2945(3) 0.17970(18)
H3L H 0.4549 -0.2637 0.1975
C6L C 0.4410(5) -0.3309(3) 0.13807(17)
H4L H 0.5289 -0.3241 0.1270
C7L C 0.4070(4) -0.4208(2) 0.06837(13)
H6I H 0.4129 0.2593 0.4709
H8I H 0.6496 0.2032 0.5291
Cu1A Cu -0.11240(6) -0.03890(3) 0.5000
Cu1D Cu 0.61240(6) -0.46110(3) 0.0000
Cu1E Cu 0.38760(6) -0.53890(3) 0.0000
O3I O 0.1686(3) -0.03045(15) 0.55178(11)
O4A O 0.0206(3) 0.09477(16) 0.44758(10)
O4H O 0.0206(3) 0.09477(16) 0.55242(10)
O1 O 0.259(2) 0.0573(10) 0.3096(9)
N3? N 0.431(3) 0.1890(13) 0.4559(9)
C11? C 0.3374(19) 0.1383(10) 0.4626(6)
C12? C 0.314(8) 0.094(4) 0.417(2)
C13? C 0.490(4) 0.215(2) 0.5000
C14? C 0.47(3) 0.224(17) 0.409(3)
O6? O 0.315(3) 0.0901(17) 0.3567(14)
O7? O -0.213(4) 0.0000 0.2500
O8? O -0.555(3) 0.0223(17) 0.3318(10)
C15? C 0.462(2) 0.0349(10) 0.5000
H9? H 0.3890 -0.0034 0.5000
H10? H 0.5124 0.0268 0.4709
loop_
_geom_bond_atom_site_label_1
_geom_bond_atom_site_label_2
_geom_bond_site_symmetry_1
_geom_bond_site_symmetry_2
Cu1 O3 1_555 1_555
O3 C7 1_555 1_555
O4 C7 1_555 1_555
N1 C4 1_555 1_555
C1 C2 1_555 1_555
C2 H1 1_555 1_555
C3 C2 1_555 1_555
H2 C3 1_555 1_555
C4 C3 1_555 1_555
C5 C4 1_555 1_555
H3 C5 1_555 1_555
C6 C1 1_555 1_555
H4 C6 1_555 1_555
C7 C1 1_555 1_555
O5 Cu1 1_555 1_555
N2 C8 1_555 1_555
C8 O5 1_555 1_555
C9 N2 1_555 1_555
H5 C9 1_555 1_555
H6 C9 1_555 1_555
C10 N2 1_555 1_555
H7 C10 1_555 1_555
H8 C10 1_555 1_555
O3L C7L 1_555 1_555
O4L C7L 1_555 1_555
N1L N1 1_555 1_555
C1L C2L 1_555 1_555
C2L H1L 1_555 1_555
C3L C2L 1_555 1_555
H2L C3L 1_555 1_555
C4L N1L 1_555 1_555
C5L C4L 1_555 1_555
H3L C5L 1_555 1_555
C6L C1L 1_555 1_555
H4L C6L 1_555 1_555
C7L C1L 1_555 1_555
H6I C9 1_555 1_555
H8I C10 1_555 1_555
Cu1A O4 1_555 1_555
Cu1D O4L 1_555 1_555
Cu1E O3L 1_555 1_555
O3I Cu1 1_555 1_555
O4A Cu1 1_555 1_555
O4H Cu1 1_555 1_555
C5 C6 1_555 1_555
C3L C4L 1_555 1_555
C5L C6L 1_555 1_555

#END
