
#######################################################################
#
#                 Cambridge Crystallographic Data Centre
#                                CCDC 
#
#######################################################################
#
# If this CIF has been generated from an entry in the Cambridge 
# Structural Database, then it will include bibliographic, chemical, 
# crystal, experimental, refinement or atomic coordinate data resulting 
# from the CCDC's data processing and validation procedures.
#
#######################################################################

data_KOJZIT
_chemical_name_common            MOF-602
_chemical_formula_moiety         
'(C20 H21 Cu1 N1 O5)n,n(C4 H9 N1 O1),0.5n(C3 H7 N1 O1),0.5n(C5 H5 N1),1.5n(H2 O1)'
_chemical_name_systematic        
"catena-((\m~4~-2,2'-Dimethylbiphenyl-4,4'-dicarboxylato)-(N,N-dimethylacetamide)-copper N,N-dimethylacetamide N,N-dimethylformamide pyridine solvate sesquihydrate)"
_symmetry_cell_setting           rhombohedral
_symmetry_space_group_name_H-M   'R -3 m'
_symmetry_Int_Tables_number      166
_space_group_name_Hall           '-R 3 2"'
loop_
_symmetry_equiv_pos_site_id
_symmetry_equiv_pos_as_xyz
1 x,y,z
2 -y,x-y,z
3 -x+y,-x,z
4 y,x,-z
5 2/3+x,1/3+y,1/3+z
6 2/3-y,1/3+x-y,1/3+z
7 2/3-x+y,1/3-x,1/3+z
8 2/3+y,1/3+x,1/3-z
9 1/3+x,2/3+y,2/3+z
10 1/3+y,2/3+x,2/3-z
11 x-y,-y,-z
12 -x,-x+y,-z
13 1/3-y,2/3+x-y,2/3+z
14 1/3-x+y,2/3-x,2/3+z
15 1/3+x-y,2/3-y,2/3-z
16 1/3-x,2/3-x+y,2/3-z
17 2/3+x-y,1/3-y,1/3-z
18 2/3-x,1/3-x+y,1/3-z
19 -x,-y,-z
20 y,-x+y,-z
21 x-y,x,-z
22 -y,-x,z
23 1/3-x,2/3-y,2/3-z
24 1/3+y,2/3-x+y,2/3-z
25 1/3+x-y,2/3+x,2/3-z
26 1/3-y,2/3-x,2/3+z
27 2/3-x,1/3-y,1/3-z
28 2/3-y,1/3-x,1/3+z
29 -x+y,y,z
30 x,x-y,z
31 2/3+y,1/3-x+y,1/3-z
32 2/3+x-y,1/3+x,1/3-z
33 2/3-x+y,1/3+y,1/3+z
34 2/3+x,1/3+x-y,1/3+z
35 1/3-x+y,2/3+y,2/3+z
36 1/3+x,2/3+x-y,2/3+z
_cell_length_a                   46.3352(14)
_cell_length_b                   46.3352(14)
_cell_length_c                   10.4693(3)
_cell_angle_alpha                90
_cell_angle_beta                 90
_cell_angle_gamma                120.00
_cell_volume                     19465.7
_exptl_crystal_colour            blue
_exptl_crystal_description       block
_cell_formula_units_Z            18
loop_
_atom_site_label
_atom_site_type_symbol
_atom_site_fract_x
_atom_site_fract_y
_atom_site_fract_z
_atom_site_U_iso_or_equiv
_atom_site_thermal_displace_type
Cu1 Cu 1.022861(11) 0.511431(5) 0.09070(4) 0.0592 Uani
O1 O 0.99413(5) 0.46706(4) 0.16410(19) 0.0808 Uani
O2 O 0.95508(5) 0.44786(4) 0.01051(19) 0.0780 Uani
C1 C 0.95008(7) 0.41185(7) 0.1798(3) 0.0776 Uani
C2 C 0.91929(8) 0.38744(8) 0.1390(4) 0.1061 Uani
H1 H 0.9093 0.3917 0.0701 0.1270 Uiso
C3 C 0.90236(10) 0.35602(8) 0.1990(4) 0.1173 Uani
C4 C 0.91761(9) 0.35010(7) 0.3006(3) 0.0949 Uani
C5 C 0.94854(9) 0.37472(8) 0.3443(4) 0.1128 Uani
C6 C 0.96443(8) 0.40500(8) 0.2806(4) 0.1060 Uani
H2 H 0.9856 0.4212 0.3073 0.1270 Uiso
C7 C 0.96774(8) 0.44494(6) 0.1126(3) 0.0719 Uani
C8 C 0.86719(16) 0.33198(14) 0.1588(7) 0.1697 Uani
H3 H 0.8589 0.3117 0.2069 0.2040 Uiso
H4 H 0.8668 0.3272 0.0694 0.2040 Uiso
H5 H 0.8534 0.3417 0.1745 0.2040 Uiso
O3 O 1.05636(9) 0.52818(4) 0.2464(4) 0.1131 Uani
C10 C 1.0602(2) 0.5194(2) 0.3397(8) 0.1800 Uiso
C11 C 1.0729(6) 0.4947(5) 0.336(3) 0.5600 Uiso
H9 H 1.0555 0.4732 0.3635 0.6700 Uiso
H10 H 1.0917 0.5023 0.3922 0.6700 Uiso
H11 H 1.0794 0.4932 0.2506 0.6700 Uiso
N1 N 1.0449(3) 0.5266(4) 0.4435(12) 0.2890 Uiso
C12 C 1.0647(3) 0.5236(4) 0.5400(12) 0.3470 Uiso
H12 H 1.0548 0.5007 0.5657 0.3470 Uiso
H13 H 1.0660 0.5370 0.6122 0.3470 Uiso
H14 H 1.0867 0.5311 0.5075 0.3470 Uiso
C13 C 1.0563(5) 0.4947(5) 0.4349(18) 0.3470 Uiso
H15 H 1.0469 0.4789 0.5036 0.3470 Uiso
H16 H 1.0494 0.4832 0.3547 0.3470 Uiso
H17 H 1.0801 0.5061 0.4406 0.3470 Uiso
Cu1R Cu 0.977139(11) 0.488569(5) -0.09070(4) 0.0592 Uani
Cu1W Cu 0.844764(5) 0.155237(12) 0.57597(4) 0.0592 Uani
Cu1HA Cu 0.821903(12) 0.178098(5) 0.75737(4) 0.0592 Uani
O1N O 0.86040(6) 0.19961(4) 0.50257(19) 0.0808 Uani
O1CA O 0.99413(5) 0.52707(6) 0.16410(19) 0.0808 Uani
O2N O 0.84055(6) 0.21881(4) 0.65616(19) 0.0780 Uani
O2R O 1.04492(5) 0.55214(4) -0.01051(19) 0.0780 Uani
O2K O 1.04492(5) 0.49278(6) -0.01051(19) 0.0780 Uani
C1N C 0.87156(10) 0.25482(7) 0.4869(3) 0.0776 Uani
C2N C 0.86518(11) 0.27923(8) 0.5277(4) 0.1061 Uani
H1N H 0.8509 0.2750 0.5966 0.1270 Uiso
C3N C 0.87967(13) 0.31065(8) 0.4677(4) 0.1173 Uani
C4N C 0.90084(11) 0.31657(7) 0.3661(3) 0.0949 Uani
C5N C 0.90715(12) 0.29195(8) 0.3224(4) 0.1128 Uani
C6N C 0.89276(11) 0.26167(8) 0.3861(4) 0.1060 Uani
H2N H 0.8977 0.2455 0.3594 0.1270 Uiso
C7N C 0.85613(10) 0.22173(6) 0.5541(3) 0.0719 Uani
C8N C 0.86854(21) 0.33469(14) 0.5079(7) 0.1697 Uani
H3N H 0.8805 0.3550 0.4598 0.2040 Uiso
H4N H 0.8729 0.3395 0.5973 0.2040 Uiso
H5N H 0.8450 0.3250 0.4922 0.2040 Uiso
C10CA C 1.0602(2) 0.5408(3) 0.3397(8) 0.1800 Uiso
C11CA C 1.0729(6) 0.5782(8) 0.336(3) 0.5600 Uiso
H9CA H 1.0555 0.5823 0.3635 0.6700 Uiso
H10CA H 1.0917 0.5894 0.3922 0.6700 Uiso
H11CA H 1.0794 0.5862 0.2506 0.6700 Uiso
N1CA N 1.0449(3) 0.5183(5) 0.4435(12) 0.2890 Uiso
C12CA C 1.0647(3) 0.5411(5) 0.5400(12) 0.3470 Uiso
H12CA H 1.0548 0.5541 0.5657 0.3470 Uiso
H13CA H 1.0660 0.5290 0.6122 0.3470 Uiso
H14CA H 1.0867 0.5556 0.5075 0.3470 Uiso
C13CA C 1.0563(5) 0.5616(7) 0.4349(18) 0.3470 Uiso
H15CA H 1.0469 0.5680 0.5036 0.3470 Uiso
H16CA H 1.0494 0.5662 0.3547 0.3470 Uiso
H17CA H 1.0801 0.5740 0.4406 0.3470 Uiso
C9? C 0.9634(3) 0.3706(2) 0.4561(12) 0.1569 Uani
H6? H 0.9495 0.3486 0.4902 0.1890 Uiso
H7? H 0.9660 0.3869 0.5186 0.1890 Uiso
H8? H 0.9849 0.3734 0.4353 0.1890 Uiso
loop_
_atom_site_aniso_label
_atom_site_aniso_U_11
_atom_site_aniso_U_22
_atom_site_aniso_U_33
_atom_site_aniso_U_23
_atom_site_aniso_U_13
_atom_site_aniso_U_12
Cu1 0.0774(3) 0.04205(19) 0.0699(3) 0.01721(11) 0.0344(2) 0.03872(16)
O1 0.0958(14) 0.0523(11) 0.0884(14) 0.0312(10) 0.0300(11) 0.0327(11)
O2 0.0943(14) 0.0498(10) 0.0878(14) 0.0281(9) 0.0257(11) 0.0344(10)
C1 0.088(2) 0.0514(15) 0.092(2) 0.0298(14) 0.0283(16) 0.0339(15)
C2 0.110(3) 0.0656(19) 0.124(3) 0.0444(19) 0.002(2) 0.0298(19)
C3 0.112(3) 0.064(2) 0.136(3) 0.049(2) 0.002(2) 0.014(2)
C4 0.102(2) 0.0610(19) 0.108(3) 0.0407(18) 0.016(2) 0.0304(18)
C5 0.113(3) 0.071(2) 0.129(3) 0.052(2) 0.002(2) 0.027(2)
C6 0.097(2) 0.0633(19) 0.132(3) 0.0459(19) 0.006(2) 0.0207(17)
C7 0.089(2) 0.0452(15) 0.088(2) 0.0244(14) 0.0444(17) 0.0384(15)
C8 0.139(6) 0.100(5) 0.209(8) 0.082(5) -0.026(5) 0.014(4)
O3 0.133(3) 0.1107(18) 0.103(3) -0.0024(11) -0.005(2) 0.0664(14)
Cu1R 0.0774 0.04201 0.0699 0.01719 0.0344 0.03868
Cu1W 0.04201 0.04205 0.0699 0.01721 -0.01719 0.00333
Cu1HA 0.04205 0.04201 0.0699 0.01719 -0.01721 0.00333
O1N 0.0827 0.0523 0.0884 0.0312 0.0012 0.0196
O1CA 0.0958 0.0827 0.0884 -0.0012 0.03 0.0631
O2N 0.0753 0.0498 0.0878 0.0281 0.0024 0.0154
O2R 0.0943 0.0498 0.0878 0.0281 0.0257 0.0344
O2K 0.0943 0.0753 0.0878 -0.0024 0.0257 0.0599
C1N 0.0716 0.0514 0.092 0.0298 0.0015 0.0175
C2N 0.116 0.0656 0.124 0.0444 0.0424 0.0358
C3N 0.148 0.064 0.136 0.049 0.047 0.05
C4N 0.1022 0.061 0.108 0.0407 0.0247 0.0306
C5N 0.13 0.071 0.129 0.052 0.05 0.044
C6N 0.1189 0.0633 0.132 0.0459 0.0399 0.0426
C7N 0.0574 0.0452 0.088 0.0244 -0.02 0.0068
C8N 0.211 0.1 0.209 0.082 0.108 0.086
C9? 0.129(9) 0.069(6) 0.200(13) 0.064(7) -0.047(8) -0.005(6)
loop_
_geom_bond_atom_site_label_1
_geom_bond_atom_site_label_2
_geom_bond_site_symmetry_1
_geom_bond_site_symmetry_2
Cu1 O1 1_555 1_555
O1 C7 1_555 1_555
O2 C7 1_555 1_555
C1 C2 1_555 1_555
C2 H1 1_555 1_555
C3 C2 1_555 1_555
C4 C3 1_555 1_555
C5 C4 1_555 1_555
C6 C1 1_555 1_555
H2 C6 1_555 1_555
C7 C1 1_555 1_555
C8 C3 1_555 1_555
H3 C8 1_555 1_555
H4 C8 1_555 1_555
H5 C8 1_555 1_555
O3 Cu1 1_555 1_555
C10 O3 1_555 1_555
C11 C10 1_555 1_555
H9 C11 1_555 1_555
H10 C11 1_555 1_555
H11 C11 1_555 1_555
N1 C10 1_555 1_555
C12 N1 1_555 1_555
H12 C12 1_555 1_555
H13 C12 1_555 1_555
H14 C12 1_555 1_555
C13 C10 1_555 1_555
H15 C13 1_555 1_555
H16 C11 1_555 1_555
H17 C11 1_555 1_555
Cu1R O2 1_555 1_555
Cu1W O1N 1_555 1_555
Cu1HA O2N 1_555 1_555
O1N C7N 1_555 1_555
O1CA Cu1 1_555 1_555
O2N C7N 1_555 1_555
O2R Cu1 1_555 1_555
O2K Cu1 1_555 1_555
C1N C2N 1_555 1_555
C2N H1N 1_555 1_555
C3N C2N 1_555 1_555
C4N C4 1_555 1_555
C5N C4N 1_555 1_555
C6N C1N 1_555 1_555
H2N C6N 1_555 1_555
C7N C1N 1_555 1_555
C8N C3N 1_555 1_555
H3N C8N 1_555 1_555
H4N C8N 1_555 1_555
H5N C8N 1_555 1_555
C10CA O3 1_555 1_555
C11CA C10CA 1_555 1_555
H9CA C11CA 1_555 1_555
H10CA C11CA 1_555 1_555
H11CA C11CA 1_555 1_555
N1CA C10 1_555 1_555
C12CA N1 1_555 1_555
H12CA C12CA 1_555 1_555
H13CA C12 1_555 1_555
H14CA C12CA 1_555 1_555
C13CA N1 1_555 1_555
H15CA C13CA 1_555 1_555
H16CA C11CA 1_555 1_555
H17CA C11CA 1_555 1_555
C5 C6 1_555 1_555
C10 C10CA 1_555 1_555
C11 C13 1_555 1_555
H9 C13 1_555 1_555
H9 H16 1_555 1_555
H10 H17 1_555 1_555
N1 C10CA 1_555 1_555
N1 N1CA 1_555 1_555
C12 C13 1_555 1_555
C12 N1CA 1_555 1_555
C12 C12CA 1_555 1_555
H13 C12CA 1_555 1_555
H13 H13CA 1_555 1_555
C13 H16 1_555 1_555
C13 H17 1_555 1_555
C13 N1CA 1_555 1_555
C3N C4N 1_555 1_555
C5N C6N 1_555 1_555
C10CA N1CA 1_555 1_555
C10CA C13CA 1_555 1_555
C11CA C13CA 1_555 1_555
H9CA C13CA 1_555 1_555
H9CA H16CA 1_555 1_555
H10CA H17CA 1_555 1_555
N1CA C12CA 1_555 1_555
C12CA H13CA 1_555 1_555
C12CA C13CA 1_555 1_555
C13CA H16CA 1_555 1_555
C13CA H17CA 1_555 1_555

#END
