
#######################################################################
#
#                 Cambridge Crystallographic Data Centre
#                                CCDC 
#
#######################################################################
#
# If this CIF has been generated from an entry in the Cambridge 
# Structural Database, then it will include bibliographic, chemical, 
# crystal, experimental, refinement or atomic coordinate data resulting 
# from the CCDC's data processing and validation procedures.
#
#######################################################################

data_KOJZEP
_chemical_name_common            MOF-601
_chemical_formula_moiety         
'(C19 H13 Cu1 N3 O5)n,n(C3 H7 N1 O1),0.5n(C5 H9 N1 O1),n(H2 O1)'
_chemical_name_systematic        
"catena-((\m~4~-2,2'-Dicyanobiphenyl-4,4'-dicarboxylato)-(N,N-dimethylformamide)-copper N,N-dimethylformamide 1-methylpyrrolidin-2-one solvate monohydrate)"
_symmetry_cell_setting           rhombohedral
_symmetry_space_group_name_H-M   'R -3 m'
_symmetry_Int_Tables_number      166
_space_group_name_Hall           '-R 3 2"'
loop_
_symmetry_equiv_pos_site_id
_symmetry_equiv_pos_as_xyz
1 x,y,z
2 -y,x-y,z
3 -x+y,-x,z
4 y,x,-z
5 2/3+x,1/3+y,1/3+z
6 2/3-y,1/3+x-y,1/3+z
7 2/3-x+y,1/3-x,1/3+z
8 2/3+y,1/3+x,1/3-z
9 1/3+x,2/3+y,2/3+z
10 1/3+y,2/3+x,2/3-z
11 x-y,-y,-z
12 -x,-x+y,-z
13 1/3-y,2/3+x-y,2/3+z
14 1/3-x+y,2/3-x,2/3+z
15 1/3+x-y,2/3-y,2/3-z
16 1/3-x,2/3-x+y,2/3-z
17 2/3+x-y,1/3-y,1/3-z
18 2/3-x,1/3-x+y,1/3-z
19 -x,-y,-z
20 y,-x+y,-z
21 x-y,x,-z
22 -y,-x,z
23 1/3-x,2/3-y,2/3-z
24 1/3+y,2/3-x+y,2/3-z
25 1/3+x-y,2/3+x,2/3-z
26 1/3-y,2/3-x,2/3+z
27 2/3-x,1/3-y,1/3-z
28 2/3-y,1/3-x,1/3+z
29 -x+y,y,z
30 x,x-y,z
31 2/3+y,1/3-x+y,1/3-z
32 2/3+x-y,1/3+x,1/3-z
33 2/3-x+y,1/3+y,1/3+z
34 2/3+x,1/3+x-y,1/3+z
35 1/3-x+y,2/3+y,2/3+z
36 1/3+x,2/3+x-y,2/3+z
_cell_length_a                   44.0047(15)
_cell_length_b                   44.0047(15)
_cell_length_c                   12.2617(4)
_cell_angle_alpha                90
_cell_angle_beta                 90
_cell_angle_gamma                120.00
_cell_volume                     20562.7
_exptl_crystal_colour            blue
_exptl_crystal_description       block
_cell_formula_units_Z            18
loop_
_atom_site_label
_atom_site_type_symbol
_atom_site_fract_x
_atom_site_fract_y
_atom_site_fract_z
_atom_site_U_iso_or_equiv
_atom_site_thermal_displace_type
Cu1 Cu 0.180231(4) 0.819769(4) 0.76533(2) 0.0511 Uani
O1 O 0.13550(4) 0.80193(4) 0.68814(12) 0.0734 Uani
O2 O 0.11253(4) 0.82460(4) 0.80276(13) 0.0757 Uani
C1 C 0.07835(5) 0.79064(5) 0.65485(17) 0.0692 Uani
C2 C 0.05109(7) 0.79483(9) 0.6834(2) 0.1208 Uani
H1 H 0.0532 0.8084 0.7453 0.1450 Uiso
C3 C 0.01991(7) 0.77982(10) 0.6244(3) 0.1276 Uani
C4 C 0.01651(5) 0.76097(7) 0.53205(19) 0.0820 Uani
C5 C 0.04429(7) 0.75725(10) 0.5024(3) 0.1234 Uani
C6 C 0.07538(7) 0.77244(9) 0.5642(3) 0.1194 Uani
H2 H 0.0943 0.7698 0.5415 0.1430 Uiso
C7 C 0.11177(5) 0.80723(5) 0.72126(16) 0.0634 Uani
C8 C -0.0057(2) 0.7902(3) 0.6440(9) 0.2620 Uani
N1 N -0.0282(3) 0.7966(5) 0.6640(14) 0.4816 Uani
O3 O 0.20212(4) 0.79788(4) 0.6592(2) 0.0871 Uani
N3 N 0.2058(4) 0.7512(3) 0.5888(10) 0.1801 Uani
C10 C 0.1891(3) 0.7674(2) 0.6394(10) 0.1168 Uani
H3 H 0.1655 0.7529 0.6597 0.1400 Uiso
C11 C 0.22988(17) 0.77013(17) 0.5082(12) 0.1642 Uani
H4 H 0.2415 0.7585 0.4776 0.1970 Uiso
H5 H 0.2215 0.7785 0.4502 0.1970 Uiso
H6 H 0.2090 0.7512 0.5390 0.1970 Uiso
C12 C 0.1968(7) 0.7159(3) 0.5876(17) 0.3411 Uani
H7 H 0.2135 0.7131 0.5430 0.4080 Uiso
H8 H 0.1734 0.7019 0.5574 0.4080 Uiso
H9 H 0.1972 0.7082 0.6614 0.4080 Uiso
Cu1I Cu 0.153102(4) 0.846898(4) 0.90134(2) 0.0511 Uani
Cu1S Cu -0.180231(4) 0.639538(6) 0.23467(2) 0.0511 Uani
Cu1E Cu -0.153102(4) 0.693795(6) 0.09866(2) 0.0511 Uani
O1K O -0.13550(4) 0.66643(6) 0.31186(12) 0.0734 Uani
O1U O 0.19807(4) 0.86450(4) 0.68814(12) 0.0734 Uani
O2K O -0.11253(4) 0.71207(6) 0.19724(13) 0.0757 Uani
O2I O 0.15793(4) 0.77920(4) 0.86391(13) 0.0757 Uani
O2V O 0.22080(4) 0.84207(4) 0.86391(13) 0.0757 Uani
C1K C -0.07835(5) 0.71229(7) 0.34515(17) 0.0692 Uani
C2K C -0.05109(7) 0.74374(11) 0.3166(2) 0.1208 Uani
H1K H -0.0532 0.7552 0.2547 0.1450 Uiso
C3K C -0.01991(7) 0.75991(12) 0.3756(3) 0.1276 Uani
C4K C -0.01651(5) 0.74446(9) 0.46795(19) 0.0820 Uani
C5K C -0.04429(7) 0.71296(12) 0.4976(3) 0.1234 Uani
C6K C -0.07538(7) 0.69706(11) 0.4358(3) 0.1194 Uani
H2K H -0.0943 0.6755 0.4585 0.1430 Uiso
C7K C -0.11177(5) 0.69546(7) 0.27874(16) 0.0634 Uani
C8K C 0.0057(2) 0.7959(4) 0.3560(9) 0.2620 Uani
N1K N 0.0282(3) 0.8248(6) 0.3360(14) 0.4816 Uani
N3U N 0.2488(3) 0.7942(4) 0.5888(10) 0.1801 Uani
C10U C 0.2326(2) 0.8109(3) 0.6394(10) 0.1168 Uani
H3U H 0.2471 0.8345 0.6597 0.1400 Uiso
H6U H 0.2488 0.7910 0.5390 0.1970 Uiso
C12U C 0.2841(3) 0.8032(7) 0.5876(17) 0.3411 Uani
H7U H 0.2869 0.7865 0.5430 0.4080 Uiso
H8U H 0.2981 0.8266 0.5574 0.4080 Uiso
H9U H 0.2918 0.8028 0.6614 0.4080 Uiso
C9? C 0.0400(2) 0.7346(4) 0.4126(9) 0.2891 Uani
N2? N 0.0373(3) 0.7155(6) 0.3430(14) 0.5500 Uani
loop_
_atom_site_aniso_label
_atom_site_aniso_U_11
_atom_site_aniso_U_22
_atom_site_aniso_U_33
_atom_site_aniso_U_23
_atom_site_aniso_U_13
_atom_site_aniso_U_12
Cu1 0.04082(15) 0.04082(15) 0.0502(2) 0.01335(7) -0.01335(7) 0.00436(12)
O1 0.0495(7) 0.0805(10) 0.0720(9) -0.0074(7) -0.0256(7) 0.0188(7)
O2 0.0539(8) 0.0879(10) 0.0713(9) -0.0107(8) -0.0283(7) 0.0249(7)
C1 0.0500(10) 0.0715(12) 0.0637(11) -0.0011(9) -0.0239(8) 0.0135(9)
C2 0.0709(16) 0.188(3) 0.102(2) -0.066(2) -0.0476(15) 0.0636(19)
C3 0.0669(16) 0.197(4) 0.115(2) -0.070(2) -0.0479(16) 0.0630(19)
C4 0.0539(12) 0.0948(16) 0.0764(14) -0.0149(12) -0.0316(11) 0.0215(11)
C5 0.0695(15) 0.189(3) 0.112(2) -0.076(2) -0.0533(16) 0.0649(19)
C6 0.0621(14) 0.175(3) 0.119(2) -0.068(2) -0.0486(15) 0.0578(17)
C7 0.0476(10) 0.0571(10) 0.0590(11) 0.0125(9) -0.0205(8) 0.0063(8)
C8 0.131(6) 0.410(17) 0.290(12) -0.229(12) -0.130(7) 0.169(9)
N1 0.316(16) 0.67(3) 0.57(2) -0.45(2) -0.220(18) 0.33(2)
O3 0.0845(11) 0.0845(11) 0.0827(16) 0.0015(6) -0.0015(6) 0.0351(13)
N3 0.273(19) 0.142(12) 0.151(13) -0.021(10) -0.006(13) 0.123(13)
C10 0.142(11) 0.094(8) 0.117(9) 0.006(7) 0.025(8) 0.061(8)
C11 0.207(11) 0.207(11) 0.130(10) -0.002(4) 0.002(4) 0.142(12)
C12 0.66(7) 0.25(3) 0.21(3) -0.02(2) 0.03(4) 0.30(4)
Cu1I 0.04082 0.04082 0.0502 0.01335 -0.01335 0.00436
Cu1S 0.04082 0.07292 0.0502 -0.0267 -0.01335 0.03646
Cu1E 0.04082 0.07292 0.0502 -0.0267 -0.01335 0.03646
O1K 0.0495 0.0924 0.072 -0.0182 -0.0256 0.0307
O1U 0.0805 0.0495 0.072 0.0256 0.0074 0.0188
O2K 0.0539 0.092 0.0713 -0.0176 -0.0283 0.029
O2I 0.0879 0.0539 0.0713 0.0283 0.0107 0.0249
O2V 0.0539 0.0879 0.0713 -0.0107 -0.0283 0.0249
C1K 0.05 0.0945 0.0637 -0.0228 -0.0239 0.0365
C2K 0.0709 0.1317 0.102 0.0184 -0.0476 0.0073
C3K 0.0669 0.1379 0.115 0.0221 -0.0479 0.0039
C4K 0.0539 0.1057 0.0764 -0.0167 -0.0316 0.0324
C5K 0.0695 0.1287 0.112 0.0227 -0.0533 0.0046
C6K 0.0621 0.1215 0.119 0.0194 -0.0486 0.0043
C7K 0.0476 0.0921 0.059 -0.033 -0.0205 0.0413
C8K 0.131 0.203 0.29 0.099 -0.13 -0.038
N1K 0.316 0.326 0.57 0.23 -0.22 -0.014
N3U 0.142 0.273 0.151 0.006 0.021 0.123
C10U 0.094 0.142 0.117 -0.025 -0.006 0.061
C12U 0.25 0.66 0.21 -0.03 0.02 0.3
C9? 0.114(7) 0.57(3) 0.218(12) -0.259(16) -0.119(8) 0.197(12)
N2? 0.225(12) 1.10(5) 0.43(2) -0.57(3) -0.211(14) 0.41(2)
loop_
_geom_bond_atom_site_label_1
_geom_bond_atom_site_label_2
_geom_bond_site_symmetry_1
_geom_bond_site_symmetry_2
Cu1 O1 1_555 1_555
O1 C7 1_555 1_555
O2 C7 1_555 1_555
C1 C2 1_555 1_555
C2 H1 1_555 1_555
C3 C2 1_555 1_555
C4 C3 1_555 1_555
C5 C4 1_555 1_555
C6 C1 1_555 1_555
H2 C6 1_555 1_555
C7 C1 1_555 1_555
C8 C3 1_555 1_555
N1 C8 1_555 1_555
O3 Cu1 1_555 1_555
N3 C10 1_555 1_555
C10 O3 1_555 1_555
H3 C10 1_555 1_555
C11 N3 1_555 1_555
H4 C11 1_555 1_555
H5 C11 1_555 1_555
H6 N3 1_555 1_555
C12 N3 1_555 1_555
H7 C12 1_555 1_555
H8 C12 1_555 1_555
H9 C12 1_555 1_555
Cu1I O2 1_555 1_555
Cu1S O1K 1_555 1_555
Cu1E O2K 1_555 1_555
O1K C7K 1_555 1_555
O1U Cu1 1_555 1_555
O2K C7K 1_555 1_555
O2I Cu1 1_555 1_555
O2V Cu1 1_555 1_555
C1K C2K 1_555 1_555
C2K H1K 1_555 1_555
C3K C2K 1_555 1_555
C4K C4 1_555 1_555
C5K C4K 1_555 1_555
C6K C1K 1_555 1_555
H2K C6K 1_555 1_555
C7K C1K 1_555 1_555
C8K C3K 1_555 1_555
N1K C8K 1_555 1_555
N3U C11 1_555 1_555
C10U O3 1_555 1_555
H3U C10U 1_555 1_555
H6U C11 1_555 1_555
C12U N3U 1_555 1_555
H7U C12U 1_555 1_555
H8U C12U 1_555 1_555
H9U C12U 1_555 1_555
C5 C6 1_555 1_555
C11 H6 1_555 1_555
C3K C4K 1_555 1_555
C5K C6K 1_555 1_555
N3U C10U 1_555 1_555
N3U H6U 1_555 1_555

#END
