
#######################################################################
#
#                 Cambridge Crystallographic Data Centre
#                                CCDC 
#
#######################################################################
#
# If this CIF has been generated from an entry in the Cambridge 
# Structural Database, then it will include bibliographic, chemical, 
# crystal, experimental, refinement or atomic coordinate data resulting 
# from the CCDC's data processing and validation procedures.
#
#######################################################################

data_KOJZOZ
_chemical_name_common            MOF-603
_chemical_formula_moiety         
'(C109 H63 Cu6 I12 N5 O25)n,6n(C3 H7 N1 O1),7n(H2 O1)'
_chemical_name_systematic        
"catena-(hexakis(\m~4~-2,2'-Diiodobiphenyl-4,4'-dicarboxylato)-aqua-pentakis(pyridine)-hexa-copper N,N-dimethylformamide solvate heptahydrate)"
_symmetry_cell_setting           monoclinic
_symmetry_space_group_name_H-M   'C 2/m'
_symmetry_Int_Tables_number      12
_space_group_name_Hall           '-C 2y'
loop_
_symmetry_equiv_pos_site_id
_symmetry_equiv_pos_as_xyz
1 x,y,z
2 1/2+x,1/2+y,z
3 -x,y,-z
4 1/2-x,1/2+y,-z
5 -x,-y,-z
6 1/2-x,1/2-y,-z
7 x,-y,z
8 1/2+x,1/2-y,z
_cell_length_a                   30.1786(7)
_cell_length_b                   39.4019(9)
_cell_length_c                   26.5077(6)
_cell_angle_alpha                90
_cell_angle_beta                 120.9310(10)
_cell_angle_gamma                90
_cell_volume                     27037.6
_exptl_crystal_colour            blue
_exptl_crystal_description       block
_cell_formula_units_Z            4
loop_
_atom_site_label
_atom_site_type_symbol
_atom_site_fract_x
_atom_site_fract_y
_atom_site_fract_z
Cu1 Cu 0.114614(18) 0.273425(12) 0.62683(2)
Cu2 Cu 0.146199(18) 0.220436(12) 0.700208(19)
Cu3 Cu 0.42514(3) 0.5000 1.15228(3)
Cu4 Cu 0.34339(3) 0.5000 1.16526(3)
I1 I 0.28962(3) 0.301089(15) 0.98953(2)
I3 I 0.36185(5) 0.38087(4) 0.91656(6)
I5 I 0.59761(2) 0.376147(18) 1.36844(3)
I6 I 0.57534(2) 0.423193(9) 1.502303(16)
I7 I 0.40597(3) 0.18577(3) 0.75430(6)
I9 I 0.44546(4) 0.29866(4) 0.77245(6)
O1 O 0.14717(13) 0.29978(8) 0.69962(14)
O2 O 0.17541(12) 0.25586(8) 0.76117(12)
O3 O 0.31741(16) 0.46489(8) 1.10401(14)
O4 O 0.38609(17) 0.46505(8) 1.09331(14)
O5 O 0.45111(13) 0.46516(8) 1.21351(13)
O6 O 0.38191(14) 0.46497(8) 1.22398(13)
O7 O 0.61294(11) 0.30472(7) 1.62553(12)
O8 O 0.58566(12) 0.26051(8) 1.56459(12)
O9 O 0.18330(12) 0.26594(9) 0.63648(15)
O10 O 0.20988(11) 0.22234(9) 0.69747(14)
O11 O 0.57955(12) 0.27318(9) 0.69435(14)
O12 O 0.55157(12) 0.22942(9) 0.63149(15)
C1 C 0.19630(19) 0.31142(12) 0.80070(19)
C2 C 0.2233(3) 0.29937(14) 0.8578(2)
H1 H 0.2254 0.2759 0.8649
C3 C 0.2470(3) 0.32138(16) 0.9041(2)
C4 C 0.2438(2) 0.35632(14) 0.8942(2)
C5 C 0.2157(3) 0.36803(15) 0.8373(2)
C6 C 0.1929(2) 0.34536(14) 0.7912(2)
H2 H 0.1747 0.3536 0.7525
C7 C 0.17141(18) 0.28696(13) 0.7496(2)
C8 C 0.3175(2) 0.42831(11) 1.03367(19)
C9 C 0.2692(3) 0.41651(14) 1.0166(2)
H3 H 0.2522 0.4248 1.0353
C10 C 0.2448(3) 0.39276(16) 0.9725(2)
C11 C 0.2699(3) 0.38142(15) 0.9441(2)
C12 C 0.3184(3) 0.39398(18) 0.9607(3)
C13 C 0.3432(3) 0.41703(15) 1.0060(3)
H4 H 0.3765 0.4249 1.0177
C14 C 0.3427(3) 0.45509(11) 1.08113(18)
C15 C 0.4524(2) 0.42922(11) 1.28446(17)
C16 C 0.5002(2) 0.41721(12) 1.3010(2)
H5 H 0.5168 0.4245 1.2811
C17 C 0.5249(2) 0.39404(13) 1.3473(2)
C18 C 0.50223(19) 0.38281(10) 1.37764(17)
C19 C 0.4531(2) 0.39498(16) 1.3594(2)
H6 H 0.4360 0.3871 1.3785
C20 C 0.4286(2) 0.41811(16) 1.3145(3)
H7 H 0.3958 0.4264 1.3042
C21 C 0.4264(2) 0.45536(10) 1.23680(17)
C22 C 0.56982(16) 0.31509(10) 1.52414(17)
C23 C 0.57957(17) 0.34923(11) 1.53326(18)
H8 H 0.6003 0.3576 1.5717
C24 C 0.55869(18) 0.37169(10) 1.48546(17)
C25 C 0.52748(17) 0.35956(11) 1.42862(17)
C26 C 0.51824(18) 0.32516(11) 1.42063(17)
H9 H 0.4975 0.3166 1.3823
C27 C 0.53867(17) 0.30291(11) 1.46741(18)
H10 H 0.5315 0.2796 1.4609
C28 C 0.59135(16) 0.29175(11) 1.57584(18)
C29 C 0.26559(18) 0.24379(13) 0.6682(2)
C30 C 0.3044(2) 0.22233(16) 0.7024(3)
H11 H 0.3004 0.2072 0.7273
C31 C 0.3495(2) 0.22204(17) 0.7017(3)
C32 C 0.3585(2) 0.24451(17) 0.6694(3)
C33 C 0.3202(3) 0.2685(2) 0.6381(4)
C34 C 0.2740(2) 0.26699(19) 0.6360(3)
H12 H 0.2476 0.2823 0.6119
C35 C 0.21534(16) 0.24361(14) 0.6677(2)
C36 C 0.49796(18) 0.24896(13) 0.6653(2)
C37 C 0.4597(2) 0.22782(17) 0.6291(3)
H13 H 0.4642 0.2136 0.6036
C38 C 0.4133(2) 0.22670(18) 0.6291(4)
C39 C 0.4074(2) 0.24585(18) 0.6687(3)
C40 C 0.4472(2) 0.26750(19) 0.7054(3)
C41 C 0.4921(2) 0.26886(18) 0.7025(3)
H14 H 0.5186 0.2840 0.7270
C42 C 0.54757(19) 0.25080(14) 0.6640(2)
O13 O 0.4932(3) 0.5000 1.1446(3)
N1 N 0.09617(18) 0.31608(11) 0.57012(17)
C43 C 0.1027(4) 0.3468(2) 0.5846(4)
C44 C 0.0951(6) 0.3769(3) 0.5571(6)
C45 C 0.0919(18) 0.3728(5) 0.5033(12)
C46 C 0.0995(14) 0.3397(5) 0.4886(9)
C47 C 0.1033(8) 0.3115(4) 0.5234(6)
N2 N 0.16618(17) 0.17775(12) 0.75729(18)
C51 C 0.1816(4) 0.1486(2) 0.7444(4)
H15 H 0.1843 0.1468 0.7107
C52 C 0.1935(5) 0.1210(2) 0.7828(5)
H16 H 0.2013 0.1001 0.7722
C53 C 0.1942(6) 0.1228(3) 0.8330(6)
H17 H 0.2122 0.1076 0.8644
C54 C 0.1675(8) 0.1476(4) 0.8334(7)
H18 H 0.1525 0.1464 0.8569
C55 C 0.1601(5) 0.1759(3) 0.8004(5)
H19 H 0.1497 0.1958 0.8110
N3 N 0.2780(3) 0.5000 1.1772(4)
C56 C 0.2551(6) 0.4720(2) 1.1857(6)
H20 H 0.2674 0.4510 1.1809
C57 C 0.2164(8) 0.4694(2) 1.2003(12)
H21 H 0.2046 0.4488 1.2069
C58 C 0.1985(12) 0.5000 1.2039(19)
H22 H 0.1701 0.5000 1.2094
Cu1F Cu 0.114614(18) 0.726575(12) 0.62683(2)
Cu1G Cu 0.614614(18) 0.226575(12) 1.62683(2)
Cu1G_2 Cu 0.614614(18) 0.226575(12) 0.62683(2)
Cu1A Cu 0.614614(18) 0.773425(12) 1.62683(2)
Cu1G_3 Cu -0.385386(18) 0.226575(12) 0.62683(2)
Cu2F Cu 0.146199(18) 0.779564(12) 0.700208(19)
Cu2G Cu 0.646199(18) 0.279564(12) 1.700208(19)
Cu2G_2 Cu 0.646199(18) 0.279564(12) 0.700208(19)
Cu2A Cu 0.646199(18) 0.720436(12) 1.700208(19)
Cu2G_3 Cu -0.353801(18) 0.279564(12) 0.700208(19)
I1F I 0.28962(3) 0.698911(15) 0.98953(2)
I3F I 0.36185(5) 0.61913(4) 0.91656(6)
I5F I 0.59761(2) 0.623853(18) 1.36844(3)
I6F I 0.57534(2) 0.576807(9) 1.502303(16)
I7G I -0.09403(3) 0.31423(3) 0.75430(6)
I9G I -0.05454(4) 0.20134(4) 0.77245(6)
O1F O 0.14717(13) 0.70022(8) 0.69962(14)
O2F O 0.17541(12) 0.74414(8) 0.76117(12)
O3F O 0.31741(16) 0.53511(8) 1.10401(14)
O4F O 0.38609(17) 0.53495(8) 1.09331(14)
O5F O 0.45111(13) 0.53484(8) 1.21351(13)
O6F O 0.38191(14) 0.53503(8) 1.22398(13)
O7F O 0.61294(11) 0.69528(7) 1.62553(12)
O7G O 0.11294(11) 0.19528(7) 0.62553(12)
O7A O 0.11294(11) 0.80472(7) 0.62553(12)
O8F O 0.58566(12) 0.73949(8) 1.56459(12)
O8G O 0.08566(12) 0.23949(8) 0.56459(12)
O8A O 0.08566(12) 0.76051(8) 0.56459(12)
O9G O -0.31670(12) 0.23406(9) 0.63648(15)
O9F O 0.18330(12) 0.73406(9) 0.63648(15)
O10G O -0.29012(11) 0.27766(9) 0.69747(14)
O10F O 0.20988(11) 0.77766(9) 0.69747(14)
O11G O 0.07955(12) 0.22682(9) 0.69435(14)
O11A O 0.07955(12) 0.77318(9) 0.69435(14)
O12G O 0.05157(12) 0.27058(9) 0.63149(15)
O12A O 0.05157(12) 0.72942(9) 0.63149(15)
C1F C 0.19630(19) 0.68858(12) 0.80070(19)
C2F C 0.2233(3) 0.70063(14) 0.8578(2)
H1F H 0.2254 0.7241 0.8649
C3F C 0.2470(3) 0.67862(16) 0.9041(2)
C4F C 0.2438(2) 0.64368(14) 0.8942(2)
C5F C 0.2157(3) 0.63197(15) 0.8373(2)
C6F C 0.1929(2) 0.65464(14) 0.7912(2)
H2F H 0.1747 0.6464 0.7525
C7F C 0.17141(18) 0.71304(13) 0.7496(2)
C8F C 0.3175(2) 0.57169(11) 1.03367(19)
C9F C 0.2692(3) 0.58349(14) 1.0166(2)
H3F H 0.2522 0.5752 1.0353
C10F C 0.2448(3) 0.60724(16) 0.9725(2)
C11F C 0.2699(3) 0.61858(15) 0.9441(2)
C12F C 0.3184(3) 0.60602(18) 0.9607(3)
C13F C 0.3432(3) 0.58297(15) 1.0060(3)
H4F H 0.3765 0.5751 1.0177
C14F C 0.3427(3) 0.54491(11) 1.08113(18)
C15F C 0.4524(2) 0.57078(11) 1.28446(17)
C16F C 0.5002(2) 0.58279(12) 1.3010(2)
H5F H 0.5168 0.5755 1.2811
C17F C 0.5249(2) 0.60596(13) 1.3473(2)
C18F C 0.50223(19) 0.61719(10) 1.37764(17)
C19F C 0.4531(2) 0.60502(16) 1.3594(2)
H6F H 0.4360 0.6129 1.3785
C20F C 0.4286(2) 0.58189(16) 1.3145(3)
H7F H 0.3958 0.5736 1.3042
C21F C 0.4264(2) 0.54464(10) 1.23680(17)
C22F C 0.56982(16) 0.68491(10) 1.52414(17)
C23F C 0.57957(17) 0.65077(11) 1.53326(18)
H8F H 0.6003 0.6424 1.5717
C24F C 0.55869(18) 0.62831(10) 1.48546(17)
C25F C 0.52748(17) 0.64044(11) 1.42862(17)
C26F C 0.51824(18) 0.67484(11) 1.42063(17)
H9F H 0.4975 0.6834 1.3823
C27F C 0.53867(17) 0.69709(11) 1.46741(18)
H10F H 0.5315 0.7204 1.4609
C28F C 0.59135(16) 0.70825(11) 1.57584(18)
C29G C -0.23441(18) 0.25621(13) 0.6682(2)
C30G C -0.1956(2) 0.27767(16) 0.7024(3)
H11G H -0.1996 0.2928 0.7273
C31G C -0.1505(2) 0.27796(17) 0.7017(3)
C32G C -0.1415(2) 0.25549(17) 0.6694(3)
C33G C -0.1798(3) 0.2315(2) 0.6381(4)
C34G C -0.2260(2) 0.23301(19) 0.6360(3)
H12G H -0.2524 0.2177 0.6119
C35G C -0.28466(16) 0.25639(14) 0.6677(2)
C36G C -0.00204(18) 0.25104(13) 0.6653(2)
C37G C -0.0403(2) 0.27218(17) 0.6291(3)
H13G H -0.0358 0.2864 0.6036
C38G C -0.0867(2) 0.27330(18) 0.6291(4)
C39G C -0.0926(2) 0.25415(18) 0.6687(3)
C40G C -0.0528(2) 0.23250(19) 0.7054(3)
C41G C -0.0079(2) 0.23114(18) 0.7025(3)
H14G H 0.0186 0.2160 0.7270
C42G C 0.04757(19) 0.24920(14) 0.6640(2)
N1F N 0.09617(18) 0.68392(11) 0.57012(17)
C43F C 0.1027(4) 0.6532(2) 0.5846(4)
C44F C 0.0951(6) 0.6231(3) 0.5571(6)
C45F C 0.0919(18) 0.6272(5) 0.5033(12)
C46F C 0.0995(14) 0.6603(5) 0.4886(9)
C47F C 0.1033(8) 0.6885(4) 0.5234(6)
N2F N 0.16618(17) 0.82225(12) 0.75729(18)
C51F C 0.1816(4) 0.8514(2) 0.7444(4)
H15F H 0.1843 0.8532 0.7107
C52F C 0.1935(5) 0.8790(2) 0.7828(5)
H16F H 0.2013 0.8999 0.7722
C53F C 0.1942(6) 0.8772(3) 0.8330(6)
H17F H 0.2122 0.8924 0.8644
C54F C 0.1675(8) 0.8524(4) 0.8334(7)
H18F H 0.1525 0.8536 0.8569
C55F C 0.1601(5) 0.8241(3) 0.8004(5)
H19F H 0.1497 0.8042 0.8110
C56F C 0.2551(6) 0.5280(2) 1.1857(6)
H20F H 0.2674 0.5490 1.1809
C57F C 0.2164(8) 0.5306(2) 1.2003(12)
H21F H 0.2046 0.5512 1.2069
I2? I 0.2069(5) 0.42150(14) 0.8122(3)
I4? I 0.16631(6) 0.37847(4) 0.94796(7)
I8? I 0.31462(11) 0.28931(10) 0.55110(14)
I10? I 0.35135(6) 0.19414(6) 0.55918(11)
C48? C 0.0674(13) 0.3700(4) 0.4976(8)
C49? C 0.0374(8) 0.3401(4) 0.4775(6)
C50? C 0.0520(5) 0.3125(3) 0.5162(5)
loop_
_geom_bond_atom_site_label_1
_geom_bond_atom_site_label_2
_geom_bond_site_symmetry_1
_geom_bond_site_symmetry_2
Cu1 O1 1_555 1_555
Cu2 O2 1_555 1_555
Cu3 O4 1_555 1_555
Cu4 O3 1_555 1_555
I1 C3 1_555 1_555
I3 C12 1_555 1_555
I5 C17 1_555 1_555
I6 C24 1_555 1_555
I7 C31 1_555 1_555
I9 C40 1_555 1_555
O1 C7 1_555 1_555
O2 C7 1_555 1_555
O3 C14 1_555 1_555
O4 C14 1_555 1_555
O5 Cu3 1_555 1_555
O6 Cu4 1_555 1_555
O7 C28 1_555 1_555
O8 C28 1_555 1_555
O9 Cu1 1_555 1_555
O10 Cu2 1_555 1_555
O11 C42 1_555 1_555
O12 C42 1_555 1_555
C1 C2 1_555 1_555
C2 H1 1_555 1_555
C3 C2 1_555 1_555
C4 C3 1_555 1_555
C5 C4 1_555 1_555
C6 C1 1_555 1_555
H2 C6 1_555 1_555
C7 C1 1_555 1_555
C8 C9 1_555 1_555
C9 H3 1_555 1_555
C10 C9 1_555 1_555
C11 C4 1_555 1_555
C12 C11 1_555 1_555
C13 C8 1_555 1_555
H4 C13 1_555 1_555
C14 C8 1_555 1_555
C15 C16 1_555 1_555
C16 H5 1_555 1_555
C17 C16 1_555 1_555
C18 C17 1_555 1_555
C19 C18 1_555 1_555
H6 C19 1_555 1_555
C20 C15 1_555 1_555
H7 C20 1_555 1_555
C21 O5 1_555 1_555
C22 C23 1_555 1_555
C23 H8 1_555 1_555
C24 C23 1_555 1_555
C25 C18 1_555 1_555
C26 C25 1_555 1_555
H9 C26 1_555 1_555
C27 C22 1_555 1_555
H10 C27 1_555 1_555
C28 C22 1_555 1_555
C29 C30 1_555 1_555
C30 H11 1_555 1_555
C31 C30 1_555 1_555
C32 C31 1_555 1_555
C33 C32 1_555 1_555
C34 C29 1_555 1_555
H12 C34 1_555 1_555
C35 O9 1_555 1_555
C36 C37 1_555 1_555
C37 H13 1_555 1_555
C38 C37 1_555 1_555
C39 C32 1_555 1_555
C40 C39 1_555 1_555
C41 C36 1_555 1_555
H14 C41 1_555 1_555
C42 C36 1_555 1_555
O13 Cu3 1_555 1_555
N1 Cu1 1_555 1_555
C43 N1 1_555 1_555
C44 C43 1_555 1_555
C45 C44 1_555 1_555
C46 C45 1_555 1_555
C47 N1 1_555 1_555
N2 Cu2 1_555 1_555
C51 N2 1_555 1_555
H15 C51 1_555 1_555
C52 C51 1_555 1_555
H16 C52 1_555 1_555
C53 C52 1_555 1_555
H17 C53 1_555 1_555
C54 C53 1_555 1_555
H18 C54 1_555 1_555
C55 N2 1_555 1_555
H19 C55 1_555 1_555
N3 Cu4 1_555 1_555
C56 N3 1_555 1_555
H20 C56 1_555 1_555
C57 C56 1_555 1_555
H21 C57 1_555 1_555
C58 C57 1_555 1_555
H22 C58 1_555 1_555
Cu1F O1F 1_555 1_555
Cu1G O8 1_555 1_555
Cu1G_2 O12 1_555 1_555
Cu1A O8F 1_555 1_555
Cu1G_3 O9G 1_555 1_555
Cu2F O2F 1_555 1_555
Cu2G O7 1_555 1_555
Cu2G_2 O11 1_555 1_555
Cu2A O7F 1_555 1_555
Cu2G_3 O10G 1_555 1_555
I1F C3F 1_555 1_555
I3F C12F 1_555 1_555
I5F C17F 1_555 1_555
I6F C24F 1_555 1_555
I7G C31G 1_555 1_555
I9G C40G 1_555 1_555
O1F C7F 1_555 1_555
O2F C7F 1_555 1_555
O3F Cu4 1_555 1_555
O4F Cu3 1_555 1_555
O5F Cu3 1_555 1_555
O6F Cu4 1_555 1_555
O7F C28F 1_555 1_555
O7G Cu2 1_555 1_555
O7A Cu2F 1_555 1_555
O8F C28F 1_555 1_555
O8G Cu1 1_555 1_555
O8A Cu1F 1_555 1_555
O9G C35G 1_555 1_555
O9F Cu1F 1_555 1_555
O10G C35G 1_555 1_555
O10F Cu2F 1_555 1_555
O11G Cu2 1_555 1_555
O11A Cu2F 1_555 1_555
O12G Cu1 1_555 1_555
O12A Cu1F 1_555 1_555
C1F C2F 1_555 1_555
C2F H1F 1_555 1_555
C3F C2F 1_555 1_555
C4F C3F 1_555 1_555
C5F C4F 1_555 1_555
C6F C1F 1_555 1_555
H2F C6F 1_555 1_555
C7F C1F 1_555 1_555
C8F C9F 1_555 1_555
C9F H3F 1_555 1_555
C10F C9F 1_555 1_555
C11F C4F 1_555 1_555
C12F C11F 1_555 1_555
C13F C8F 1_555 1_555
H4F C13F 1_555 1_555
C14F O3F 1_555 1_555
C15F C16F 1_555 1_555
C16F H5F 1_555 1_555
C17F C16F 1_555 1_555
C18F C17F 1_555 1_555
C19F C18F 1_555 1_555
H6F C19F 1_555 1_555
C20F C15F 1_555 1_555
H7F C20F 1_555 1_555
C21F O5F 1_555 1_555
C22F C23F 1_555 1_555
C23F H8F 1_555 1_555
C24F C23F 1_555 1_555
C25F C18F 1_555 1_555
C26F C25F 1_555 1_555
H9F C26F 1_555 1_555
C27F C22F 1_555 1_555
H10F C27F 1_555 1_555
C28F C22F 1_555 1_555
C29G C30G 1_555 1_555
C30G H11G 1_555 1_555
C31G C30G 1_555 1_555
C32G C31G 1_555 1_555
C33G C32G 1_555 1_555
C34G C29G 1_555 1_555
H12G C34G 1_555 1_555
C35G C29G 1_555 1_555
C36G C37G 1_555 1_555
C37G H13G 1_555 1_555
C38G C37G 1_555 1_555
C39G C32G 1_555 1_555
C40G C39G 1_555 1_555
C41G C36G 1_555 1_555
H14G C41G 1_555 1_555
C42G O11G 1_555 1_555
N1F Cu1F 1_555 1_555
C43F N1F 1_555 1_555
C44F C43F 1_555 1_555
C45F C44F 1_555 1_555
C46F C45F 1_555 1_555
C47F N1F 1_555 1_555
N2F Cu2F 1_555 1_555
C51F N2F 1_555 1_555
H15F C51F 1_555 1_555
C52F C51F 1_555 1_555
H16F C52F 1_555 1_555
C53F C52F 1_555 1_555
H17F C53F 1_555 1_555
C54F C53F 1_555 1_555
H18F C54F 1_555 1_555
C55F N2F 1_555 1_555
H19F C55F 1_555 1_555
C56F N3 1_555 1_555
H20F C56F 1_555 1_555
C57F C58 1_555 1_555
H21F C57F 1_555 1_555
O6 C21 1_555 1_555
O10 C35 1_555 1_555
C5 C6 1_555 1_555
C10 C11 1_555 1_555
C12 C13 1_555 1_555
C15 C21 1_555 1_555
C19 C20 1_555 1_555
C24 C25 1_555 1_555
C26 C27 1_555 1_555
C29 C35 1_555 1_555
C33 C34 1_555 1_555
C38 C39 1_555 1_555
C40 C41 1_555 1_555
C46 C47 1_555 1_555
C54 C55 1_555 1_555
O4F C14F 1_555 1_555
O6F C21F 1_555 1_555
O12G C42G 1_555 1_555
C5F C6F 1_555 1_555
C8F C14F 1_555 1_555
C10F C11F 1_555 1_555
C12F C13F 1_555 1_555
C15F C21F 1_555 1_555
C19F C20F 1_555 1_555
C24F C25F 1_555 1_555
C26F C27F 1_555 1_555
C33G C34G 1_555 1_555
C36G C42G 1_555 1_555
C38G C39G 1_555 1_555
C40G C41G 1_555 1_555
C46F C47F 1_555 1_555
C54F C55F 1_555 1_555
C56F C57F 1_555 1_555

#END
