
#######################################################################
#
#                 Cambridge Crystallographic Data Centre
#                                CCDC 
#
#######################################################################
#
# If this CIF has been generated from an entry in the Cambridge 
# Structural Database, then it will include bibliographic, chemical, 
# crystal, experimental, refinement or atomic coordinate data resulting 
# from the CCDC's data processing and validation procedures.
#
#######################################################################

data_KOJZUF
_chemical_name_common            MOF-604
_chemical_formula_moiety         '(C38 H38 Cu2 N2 O10)n'
_chemical_name_systematic        
catena-(bis(\m~4~-3,3'-Dimethylbiphenyl-4,4'-dicarboxylato)-bis(N,N-dimethylformamide)-di-copper)
_symmetry_cell_setting           monoclinic
_symmetry_space_group_name_H-M   'C 2/c'
_symmetry_Int_Tables_number      15
_space_group_name_Hall           '-C 2yc'
loop_
_symmetry_equiv_pos_site_id
_symmetry_equiv_pos_as_xyz
1 x,y,z
2 1/2+x,1/2+y,z
3 -x,y,1/2-z
4 1/2-x,1/2+y,1/2-z
5 -x,-y,-z
6 1/2-x,1/2-y,-z
7 x,-y,1/2+z
8 1/2+x,1/2-y,1/2+z
_cell_length_a                   24.1636(16)
_cell_length_b                   17.6710(11)
_cell_length_c                   10.1065(7)
_cell_angle_alpha                90
_cell_angle_beta                 113.969(2)
_cell_angle_gamma                90
_cell_volume                     3943.29
_exptl_crystal_colour            blue
_exptl_crystal_description       block
_cell_formula_units_Z            4
loop_
_atom_site_label
_atom_site_type_symbol
_atom_site_fract_x
_atom_site_fract_y
_atom_site_fract_z
_atom_site_U_iso_or_equiv
_atom_site_thermal_displace_type
Cu1 Cu 0.27646(4) 0.19298(5) 0.96543(8) 0.0495 Uani
O1 O 0.2198(2) 0.1290(3) 1.0026(6) 0.0645 Uani
O2 O 0.1751(3) 0.2259(3) 1.0630(7) 0.0716 Uani
O3 O 0.2130(3) 0.2095(3) 0.7698(5) 0.0762 Uani
O4 O 0.1692(3) 0.3068(4) 0.8301(6) 0.0772 Uani
C1 C 0.1798(3) 0.1565(4) 1.0343(8) 0.0566 Uani
C2 C 0.1290(2) 0.1081(3) 1.0349(8) 0.0715 Uani
C3 C 0.1372(2) 0.0367(4) 1.0978(11) 0.1812 Uani
C4 C 0.0873(3) -0.0062(3) 1.0865(12) 0.1995 Uani
H1 H 0.0928 -0.0545 1.1291 0.2420 Uiso
C5 C 0.0291(3) 0.0223(3) 1.0124(9) 0.0854 Uani
C6 C 0.0209(2) 0.0937(4) 0.9495(10) 0.1233 Uani
H2 H -0.0184 0.1129 0.8993 0.1480 Uiso
C7 C 0.0709(3) 0.1366(3) 0.9608(9) 0.0994 Uani
H3 H 0.0653 0.1849 0.9182 0.1200 Uiso
C8 C 0.2016(5) 0.0053(11) 1.182(3) 0.4437 Uani
H4 H 0.2301 0.0469 1.2159 0.5330 Uiso
H5 H 0.2126 -0.0271 1.1191 0.5330 Uiso
H6 H 0.2026 -0.0238 1.2645 0.5330 Uiso
C9 C 0.1727(3) 0.2579(5) 0.7433(7) 0.0683 Uani
C10 C 0.1214(2) 0.2577(4) 0.5951(5) 0.0797 Uani
C11 C 0.0650(3) 0.2844(4) 0.5796(5) 0.0864 Uani
C12 C 0.0171(2) 0.2855(4) 0.4438(6) 0.0906 Uani
H7 H -0.0210 0.3035 0.4334 0.1090 Uiso
C13 C 0.0257(3) 0.2598(5) 0.3234(4) 0.0904 Uani
C14 C 0.0821(3) 0.2331(5) 0.3389(5) 0.1345 Uani
H8 H 0.0879 0.2158 0.2575 0.1620 Uiso
C15 C 0.1299(3) 0.2320(5) 0.4747(7) 0.1326 Uani
C16 C 0.0427(11) 0.3094(16) 0.697(2) 0.1754 Uani
H9 H 0.0008 0.3259 0.6511 0.2110 Uiso
H10 H 0.0676 0.3509 0.7532 0.2110 Uiso
H11 H 0.0457 0.2672 0.7612 0.2110 Uiso
O5 O 0.3255(3) 0.1065(4) 0.9036(7) 0.0776 Uani
N1 N 0.3539(6) 0.0639(6) 0.7270(14) 0.1317 Uani
C18 C 0.3267(5) 0.1121(7) 0.7899(14) 0.1006 Uani
H15 H 0.3069 0.1544 0.7347 0.1200 Uiso
C19 C 0.3475(10) 0.0735(12) 0.5801(19) 0.2132 Uani
H16 H 0.3458 0.0242 0.5362 0.2570 Uiso
H17 H 0.3819 0.1015 0.5795 0.2570 Uiso
H18 H 0.3105 0.1011 0.5255 0.2570 Uiso
C20 C 0.3881(17) 0.0013(16) 0.806(3) 0.3975 Uani
H19 H 0.4085 0.0146 0.9071 0.4840 Uiso
H20 H 0.4180 -0.0123 0.7683 0.4840 Uiso
H21 H 0.3613 -0.0413 0.7950 0.4840 Uiso
Cu1D Cu -0.27646(4) -0.19298(5) 1.03457(8) 0.0495 Uani
Cu1E Cu 0.22354(4) 0.30702(5) 1.03457(8) 0.0495 Uani
Cu1A Cu -0.22354(4) -0.30702(5) 0.96543(8) 0.0495 Uani
Cu1B Cu -0.27646(4) 0.19298(5) -0.46543(8) 0.0495 Uani
Cu1G Cu -0.22354(4) 0.30702(5) -0.53457(8) 0.0495 Uani
O1D O -0.2198(2) -0.1290(3) 0.9974(6) 0.0645 Uani
O1E O 0.2802(2) 0.3710(3) 0.9974(6) 0.0645 Uani
O2D O -0.1751(3) -0.2259(3) 0.9370(7) 0.0716 Uani
O2E O 0.3249(3) 0.2741(3) 0.9370(7) 0.0716 Uani
O3B O -0.2130(3) 0.2095(3) -0.2698(5) 0.0762 Uani
O3E O 0.2870(3) 0.2905(3) 1.2302(5) 0.0762 Uani
O4B O -0.1692(3) 0.3068(4) -0.3301(6) 0.0772 Uani
O4E O 0.3308(3) 0.1932(4) 1.1699(6) 0.0772 Uani
C1D C -0.1798(3) -0.1565(4) 0.9657(8) 0.0566 Uani
C2D C -0.1290(2) -0.1081(3) 0.9651(8) 0.0715 Uani
C3D C -0.1372(2) -0.0367(4) 0.9022(11) 0.1812 Uani
C4D C -0.0873(3) 0.0062(3) 0.9135(12) 0.1995 Uani
H1D H -0.0928 0.0545 0.8709 0.2420 Uiso
C5D C -0.0291(3) -0.0223(3) 0.9876(9) 0.0854 Uani
C6D C -0.0209(2) -0.0937(4) 1.0505(10) 0.1233 Uani
H2D H 0.0184 -0.1129 1.1007 0.1480 Uiso
C7D C -0.0709(3) -0.1366(3) 1.0392(9) 0.0994 Uani
H3D H -0.0653 -0.1849 1.0818 0.1200 Uiso
C8D C -0.2016(5) -0.0053(11) 0.818(3) 0.4437 Uani
H4D H -0.2301 -0.0469 0.7841 0.5330 Uiso
H5D H -0.2126 0.0271 0.8809 0.5330 Uiso
H6D H -0.2026 0.0238 0.7355 0.5330 Uiso
C9B C -0.1727(3) 0.2579(5) -0.2433(7) 0.0683 Uani
C10B C -0.1214(2) 0.2577(4) -0.0951(5) 0.0797 Uani
C11B C -0.0650(3) 0.2844(4) -0.0796(5) 0.0864 Uani
C12B C -0.0171(2) 0.2855(4) 0.0562(6) 0.0906 Uani
H7B H 0.0210 0.3035 0.0666 0.1090 Uiso
C13B C -0.0257(3) 0.2598(5) 0.1766(4) 0.0904 Uani
C14B C -0.0821(3) 0.2331(5) 0.1611(5) 0.1345 Uani
H8B H -0.0879 0.2158 0.2425 0.1620 Uiso
C15B C -0.1299(3) 0.2320(5) 0.0253(7) 0.1326 Uani
C16B C -0.0427(11) 0.3094(16) -0.197(2) 0.1754 Uani
H9B H -0.0008 0.3259 -0.1511 0.2110 Uiso
H10B H -0.0676 0.3509 -0.2532 0.2110 Uiso
H11B H -0.0457 0.2672 -0.2612 0.2110 Uiso
O5E O 0.1745(3) 0.3935(4) 1.0964(7) 0.0776 Uani
N1E N 0.1461(6) 0.4361(6) 1.2730(14) 0.1317 Uani
C18E C 0.1733(5) 0.3879(7) 1.2101(14) 0.1006 Uani
H15E H 0.1931 0.3456 1.2653 0.1200 Uiso
C19E C 0.1525(10) 0.4265(12) 1.4199(19) 0.2132 Uani
H16E H 0.1542 0.4758 1.4638 0.2570 Uiso
H17E H 0.1181 0.3985 1.4205 0.2570 Uiso
H18E H 0.1895 0.3989 1.4745 0.2570 Uiso
C20E C 0.1119(17) 0.4987(16) 1.194(3) 0.3975 Uani
H19E H 0.0915 0.4854 1.0929 0.4840 Uiso
H20E H 0.0820 0.5123 1.2317 0.4840 Uiso
H21E H 0.1387 0.5413 1.2050 0.4840 Uiso
C17? C 0.1891(8) 0.2000(19) 0.471(2) 0.2003 Uani
H12? H 0.1910 0.2133 0.3802 0.2410 Uiso
H13? H 0.1895 0.1454 0.4809 0.2410 Uiso
H14? H 0.2237 0.2213 0.5508 0.2410 Uiso
loop_
_atom_site_aniso_label
_atom_site_aniso_U_11
_atom_site_aniso_U_22
_atom_site_aniso_U_33
_atom_site_aniso_U_23
_atom_site_aniso_U_13
_atom_site_aniso_U_12
Cu1 0.0442(5) 0.0528(5) 0.0300(5) 0.0044(4) -0.0071(3) -0.0199(4)
O1 0.057(3) 0.055(3) 0.079(4) 0.008(3) 0.025(3) -0.016(3)
O2 0.074(4) 0.065(4) 0.077(4) -0.006(3) 0.032(3) -0.030(3)
O3 0.077(4) 0.084(4) 0.029(3) 0.005(3) -0.018(3) -0.015(3)
O4 0.063(4) 0.097(5) 0.034(3) 0.002(3) -0.019(2) -0.007(3)
C1 0.050(5) 0.055(5) 0.054(4) 0.003(4) 0.010(4) -0.023(4)
C2 0.068(5) 0.052(5) 0.092(6) 0.006(4) 0.030(5) -0.019(4)
C3 0.084(8) 0.109(10) 0.33(2) 0.107(13) 0.063(12) -0.009(7)
C4 0.094(10) 0.123(12) 0.36(3) 0.116(15) 0.070(14) -0.019(9)
C5 0.078(7) 0.057(5) 0.138(9) 0.008(6) 0.061(7) -0.020(5)
C6 0.052(6) 0.073(7) 0.234(15) 0.062(8) 0.047(8) -0.003(5)
C7 0.055(5) 0.056(5) 0.187(12) 0.037(6) 0.049(7) -0.007(4)
C8 0.084(11) 0.27(3) 0.81(7) 0.38(4) 0.01(2) -0.018(14)
C9 0.058(5) 0.085(6) 0.030(4) 0.011(4) -0.015(4) -0.019(5)
C10 0.075(6) 0.096(7) 0.033(4) 0.005(4) -0.014(4) 0.000(5)
C11 0.077(6) 0.121(8) 0.032(4) 0.007(5) -0.008(4) -0.019(6)
C12 0.069(6) 0.137(9) 0.037(4) 0.009(5) -0.008(4) -0.008(6)
C13 0.077(7) 0.126(9) 0.032(5) 0.004(5) -0.015(4) 0.001(6)
C14 0.125(10) 0.198(15) 0.036(5) -0.020(7) -0.013(6) 0.065(10)
C15 0.106(9) 0.191(14) 0.048(6) -0.012(7) -0.023(6) 0.052(9)
C16 0.15(3) 0.18(3) 0.10(2) 0.03(2) -0.048(18) -0.03(2)
O5 0.099(5) 0.075(4) 0.054(3) 0.007(3) 0.026(3) -0.007(3)
N1 0.204(12) 0.092(7) 0.141(10) -0.025(7) 0.113(10) -0.012(8)
C18 0.109(9) 0.080(7) 0.090(8) -0.004(6) 0.017(7) -0.016(6)
C19 0.30(3) 0.24(2) 0.158(16) -0.020(16) 0.153(18) 0.06(2)
C20 0.69(6) 0.28(3) 0.47(5) 0.27(3) 0.49(5) 0.34(4)
Cu1D 0.0442 0.0528 0.03 0.0044 -0.0071 -0.0199
Cu1E 0.0442 0.0528 0.03 0.0044 -0.0071 -0.0199
Cu1A 0.0442 0.0528 0.03 0.0044 -0.0071 -0.0199
Cu1B 0.0442 0.0528 0.03 -0.0044 -0.0071 0.0199
Cu1G 0.0442 0.0528 0.03 -0.0044 -0.0071 0.0199
O1D 0.057 0.055 0.079 0.008 0.025 -0.016
O1E 0.057 0.055 0.079 0.008 0.025 -0.016
O2D 0.074 0.065 0.077 -0.006 0.032 -0.03
O2E 0.074 0.065 0.077 -0.006 0.032 -0.03
O3B 0.077 0.084 0.029 -0.005 -0.018 0.015
O3E 0.077 0.084 0.029 0.005 -0.018 -0.015
O4B 0.063 0.097 0.034 -0.002 -0.019 0.007
O4E 0.063 0.097 0.034 0.002 -0.019 -0.007
C1D 0.05 0.055 0.054 0.003 0.01 -0.023
C2D 0.068 0.052 0.092 0.006 0.03 -0.019
C3D 0.084 0.109 0.33 0.107 0.063 -0.009
C4D 0.094 0.123 0.36 0.116 0.07 -0.019
C5D 0.078 0.057 0.138 0.008 0.061 -0.02
C6D 0.052 0.073 0.234 0.062 0.047 -0.003
C7D 0.055 0.056 0.187 0.037 0.049 -0.007
C8D 0.084 0.27 0.81 0.38 0.01 -0.018
C9B 0.058 0.085 0.03 -0.011 -0.015 0.019
C10B 0.075 0.096 0.033 -0.005 -0.014 0
C11B 0.077 0.121 0.032 -0.007 -0.008 0.019
C12B 0.069 0.137 0.037 -0.009 -0.008 0.008
C13B 0.077 0.126 0.032 -0.004 -0.015 -0.001
C14B 0.125 0.198 0.036 0.02 -0.013 -0.065
C15B 0.106 0.191 0.048 0.012 -0.023 -0.052
C16B 0.15 0.18 0.1 -0.03 -0.048 0.03
O5E 0.099 0.075 0.054 0.007 0.026 -0.007
N1E 0.204 0.092 0.141 -0.025 0.113 -0.012
C18E 0.109 0.08 0.09 -0.004 0.017 -0.016
C19E 0.3 0.24 0.158 -0.02 0.153 0.06
C20E 0.69 0.28 0.47 0.27 0.49 0.34
C17? 0.16(2) 0.35(5) 0.039(11) -0.033(18) -0.013(13) 0.16(3)
loop_
_geom_bond_atom_site_label_1
_geom_bond_atom_site_label_2
_geom_bond_site_symmetry_1
_geom_bond_site_symmetry_2
Cu1 O1 1_555 1_555
O1 C1 1_555 1_555
O2 C1 1_555 1_555
O3 Cu1 1_555 1_555
O4 C9 1_555 1_555
C1 C2 1_555 1_555
C2 C3 1_555 1_555
C3 C4 1_555 1_555
C4 H1 1_555 1_555
C5 C4 1_555 1_555
C6 C5 1_555 1_555
H2 C6 1_555 1_555
C7 C2 1_555 1_555
H3 C7 1_555 1_555
C8 C3 1_555 1_555
H4 C8 1_555 1_555
H5 C8 1_555 1_555
H6 C8 1_555 1_555
C9 O3 1_555 1_555
C10 C9 1_555 1_555
C11 C10 1_555 1_555
C12 C11 1_555 1_555
H7 C12 1_555 1_555
C13 C12 1_555 1_555
C14 C13 1_555 1_555
H8 C14 1_555 1_555
C15 C10 1_555 1_555
C16 C11 1_555 1_555
H9 C16 1_555 1_555
H10 C16 1_555 1_555
H11 C16 1_555 1_555
O5 Cu1 1_555 1_555
N1 C18 1_555 1_555
C18 O5 1_555 1_555
H15 C18 1_555 1_555
C19 N1 1_555 1_555
H16 C19 1_555 1_555
H17 C19 1_555 1_555
H18 C19 1_555 1_555
C20 N1 1_555 1_555
H19 C20 1_555 1_555
H20 C20 1_555 1_555
H21 C20 1_555 1_555
Cu1D O1D 1_555 1_555
Cu1E O2 1_555 1_555
Cu1A O2D 1_555 1_555
Cu1B O3B 1_555 1_555
Cu1G O4B 1_555 1_555
O1D C1D 1_555 1_555
O1E Cu1E 1_555 1_555
O2D C1D 1_555 1_555
O2E Cu1 1_555 1_555
O3B C9B 1_555 1_555
O3E Cu1E 1_555 1_555
O4B C9B 1_555 1_555
O4E Cu1 1_555 1_555
C1D C2D 1_555 1_555
C2D C3D 1_555 1_555
C3D C4D 1_555 1_555
C4D H1D 1_555 1_555
C5D C5 1_555 1_555
C6D C5D 1_555 1_555
H2D C6D 1_555 1_555
C7D C2D 1_555 1_555
H3D C7D 1_555 1_555
C8D C3D 1_555 1_555
H4D C8D 1_555 1_555
H5D C8D 1_555 1_555
H6D C8D 1_555 1_555
C9B C10B 1_555 1_555
C10B C11B 1_555 1_555
C11B C12B 1_555 1_555
C12B H7B 1_555 1_555
C13B C13 1_555 1_555
C14B C13B 1_555 1_555
H8B C14B 1_555 1_555
C15B C10B 1_555 1_555
C16B C11B 1_555 1_555
H9B C16B 1_555 1_555
H10B C16B 1_555 1_555
H11B C16B 1_555 1_555
O5E Cu1E 1_555 1_555
N1E C18E 1_555 1_555
C18E O5E 1_555 1_555
H15E C18E 1_555 1_555
C19E N1E 1_555 1_555
H16E C19E 1_555 1_555
H17E C19E 1_555 1_555
H18E C19E 1_555 1_555
C20E N1E 1_555 1_555
H19E C20E 1_555 1_555
H20E C20E 1_555 1_555
H21E C20E 1_555 1_555
O4 Cu1E 1_555 1_555
C6 C7 1_555 1_555
C14 C15 1_555 1_555
C4D C5D 1_555 1_555
C6D C7D 1_555 1_555
C12B C13B 1_555 1_555
C14B C15B 1_555 1_555

#END
