
#######################################################################
#
#                 Cambridge Crystallographic Data Centre
#                                CCDC 
#
#######################################################################
#
# If this CIF has been generated from an entry in the Cambridge 
# Structural Database, then it will include bibliographic, chemical, 
# crystal, experimental, refinement or atomic coordinate data resulting 
# from the CCDC's data processing and validation procedures.
#
#######################################################################

data_DILKAL
_chemical_formula_moiety         '(C38 H34 Cu4 N2 O20)n,6n(H2 O1)'
_chemical_name_systematic        
'catena-(tetrakis(\m~4~-terephthalato)-diaqua-bis(dimethylformamide)-tetra-copper(ii) hexahydrate)'
_symmetry_cell_setting           orthorhombic
_symmetry_space_group_name_H-M   'C m c a'
_symmetry_Int_Tables_number      64
_space_group_name_Hall           '-C 2ac 2'
loop_
_symmetry_equiv_pos_site_id
_symmetry_equiv_pos_as_xyz
1 x,y,z
2 1/2+x,1/2+y,z
3 -x,1/2-y,1/2+z
4 x,-y,-z
5 -x,1/2+y,1/2-z
6 1/2-x,-y,1/2+z
7 1/2+x,1/2-y,-z
8 1/2-x,y,1/2-z
9 -x,-y,-z
10 1/2-x,1/2-y,-z
11 x,1/2+y,1/2-z
12 -x,y,z
13 x,1/2-y,1/2+z
14 1/2+x,y,1/2-z
15 1/2-x,1/2+y,z
16 1/2+x,-y,1/2+z
_cell_length_a                   27.948(5)
_cell_length_b                   25.110(5)
_cell_length_c                   15.232(3)
_cell_angle_alpha                90
_cell_angle_beta                 90
_cell_angle_gamma                90
_cell_volume                     10689.4
_exptl_crystal_colour            blue
_exptl_crystal_description       sheet
_cell_formula_units_Z            8
loop_
_atom_site_label
_atom_site_type_symbol
_atom_site_fract_x
_atom_site_fract_y
_atom_site_fract_z
_atom_site_U_iso_or_equiv
_atom_site_thermal_displace_type
Cu1 Cu 0.21835(3) 0.10033(4) 0.31427(7) 0.0297 Uani
Cu2 Cu 0.0000 -0.11569(6) 0.32021(10) 0.0322 Uani
Cu3 Cu 0.0000 -0.19104(6) 0.19959(10) 0.0328 Uani
O1 O 0.1823(2) 0.0478(3) 0.2482(4) 0.0437 Uani
O2 O 0.2383(2) 0.0421(3) 0.1453(4) 0.0417 Uani
O3 O 0.05025(19) -0.0830(3) 0.2463(5) 0.0423 Uani
O4 O 0.0000 -0.0535(6) 0.4156(9) 0.0857 Uani
O5 O 0.0498(2) -0.1475(3) 0.1451(5) 0.0543 Uani
O6 O 0.1877(2) -0.3421(3) 0.2558(4) 0.0420 Uani
O7 O 0.23873(19) -0.3470(3) 0.3670(4) 0.0423 Uani
O8 O 0.0496(2) -0.2229(3) 0.2720(5) 0.0540 Uani
O9 O 0.0495(2) -0.1598(3) 0.3754(4) 0.0467 Uani
O10 O 0.1733(2) 0.0948(3) 0.4259(5) 0.0543 Uani
N1 N 0.1738(4) 0.0926(5) 0.5779(8) 0.0890 Uani
C1 C 0.2003(3) 0.0268(4) 0.1815(6) 0.0350 Uani
C2 C 0.1756(3) -0.0196(4) 0.1424(6) 0.0397 Uani
C3 C 0.1959(4) -0.0488(4) 0.0721(7) 0.0583 Uani
H1 H 0.2252 -0.0376 0.0497 0.0700 Uiso
C4 C 0.1751(4) -0.0917(5) 0.0362(7) 0.0700 Uani
H2 H 0.1895 -0.1091 -0.0108 0.0840 Uiso
C5 C 0.1326(4) -0.1095(4) 0.0694(7) 0.0593 Uani
H3 H 0.1181 -0.1395 0.0452 0.0710 Uiso
C6 C 0.1107(3) -0.0828(4) 0.1401(6) 0.0350 Uani
C7 C 0.1324(3) -0.0384(4) 0.1731(6) 0.0377 Uani
H4 H 0.1173 -0.0199 0.2183 0.0450 Uiso
C8 C 0.0669(3) -0.1050(5) 0.1792(8) 0.0520 Uani
C9 C 0.0654(3) -0.2028(4) 0.3414(6) 0.0327 Uani
C10 C 0.1072(3) -0.2280(4) 0.3870(7) 0.0417 Uani
C11 C 0.1208(4) -0.2141(4) 0.4698(7) 0.0503 Uani
H5 H 0.1029 -0.1893 0.5012 0.0600 Uiso
C12 C 0.1604(4) -0.2364(5) 0.5068(7) 0.0653 Uani
H6 H 0.1693 -0.2265 0.5632 0.0780 Uiso
C13 C 0.1869(3) -0.2729(4) 0.4630(6) 0.0477 Uani
H7 H 0.2137 -0.2878 0.4896 0.0570 Uiso
C14 C 0.1743(3) -0.2882(3) 0.3781(6) 0.0333 Uani
C15 C 0.1337(3) -0.2658(4) 0.3418(6) 0.0370 Uani
H8 H 0.1240 -0.2762 0.2860 0.0440 Uiso
C16 C 0.2017(3) -0.3292(4) 0.3298(6) 0.0340 Uani
C17 C 0.1884(5) 0.1072(5) 0.4950(10) 0.0803 Uani
H9 H 0.2142 0.1306 0.4934 0.0960 Uiso
C18 C 0.1349(6) 0.0557(7) 0.5840(10) 0.1320 Uani
H10 H 0.1251 0.0453 0.5261 0.1980 Uiso
H11 H 0.1085 0.0723 0.6137 0.1980 Uiso
H12 H 0.1449 0.0248 0.6162 0.1980 Uiso
C19 C 0.1967(7) 0.1153(9) 0.6572(11) 0.1553 Uani
H13 H 0.2219 0.1391 0.6399 0.2310 Uiso
H14 H 0.2098 0.0871 0.6923 0.2310 Uiso
H15 H 0.1733 0.1345 0.6907 0.2310 Uiso
O11 O 0.0000 -0.2509(12) 0.1009(17) 0.1203 Uani
H16 H 0.0000 -0.296(8) 0.111(12) 0.1000 Uiso
H17 H 0.0000 -0.239(9) 0.072(12) 0.0000 Uiso
H18 H 0.0000 -0.051(4) 0.464(6) 0.0000 Uiso
Cu1K Cu -0.21835(3) 0.10033(4) 0.31427(7) 0.0297 Uani
Cu1G Cu 0.28165(3) 0.10033(4) 0.18573(7) 0.0297 Uani
Cu1J Cu 0.21835(3) -0.39967(4) 0.18573(7) 0.0297 Uani
Cu1N Cu 0.28165(3) -0.39967(4) 0.31427(7) 0.0297 Uani
Cu1M Cu -0.28165(3) 0.10033(4) 0.18573(7) 0.0297 Uani
Cu1D Cu -0.21835(3) -0.39967(4) 0.18573(7) 0.0297 Uani
Cu1A Cu -0.28165(3) -0.39967(4) 0.31427(7) 0.0297 Uani
O1K O -0.1823(2) 0.0478(3) 0.2482(4) 0.0437 Uani
O2K O -0.2383(2) 0.0421(3) 0.1453(4) 0.0417 Uani
O2G O 0.2617(2) 0.0421(3) 0.3547(4) 0.0417 Uani
O2M O -0.2617(2) 0.0421(3) 0.3547(4) 0.0417 Uani
O3K O -0.05025(19) -0.0830(3) 0.2463(5) 0.0423 Uani
O5K O -0.0498(2) -0.1475(3) 0.1451(5) 0.0543 Uani
O6K O -0.1877(2) -0.3421(3) 0.2558(4) 0.0420 Uani
O6J O 0.1877(2) 0.1579(3) 0.2442(4) 0.0420 Uani
O6D O -0.1877(2) 0.1579(3) 0.2442(4) 0.0420 Uani
O7K O -0.23873(19) -0.3470(3) 0.3670(4) 0.0423 Uani
O7N O 0.26127(19) 0.1530(3) 0.3670(4) 0.0423 Uani
O7A O -0.26127(19) 0.1530(3) 0.3670(4) 0.0423 Uani
O8K O -0.0496(2) -0.2229(3) 0.2720(5) 0.0540 Uani
O9K O -0.0495(2) -0.1598(3) 0.3754(4) 0.0467 Uani
O10K O -0.1733(2) 0.0948(3) 0.4259(5) 0.0543 Uani
N1K N -0.1738(4) 0.0926(5) 0.5779(8) 0.0890 Uani
C1K C -0.2003(3) 0.0268(4) 0.1815(6) 0.0350 Uani
C2K C -0.1756(3) -0.0196(4) 0.1424(6) 0.0397 Uani
C3K C -0.1959(4) -0.0488(4) 0.0721(7) 0.0583 Uani
H1K H -0.2252 -0.0376 0.0497 0.0700 Uiso
C4K C -0.1751(4) -0.0917(5) 0.0362(7) 0.0700 Uani
H2K H -0.1895 -0.1091 -0.0108 0.0840 Uiso
C5K C -0.1326(4) -0.1095(4) 0.0694(7) 0.0593 Uani
H3K H -0.1181 -0.1395 0.0452 0.0710 Uiso
C6K C -0.1107(3) -0.0828(4) 0.1401(6) 0.0350 Uani
C7K C -0.1324(3) -0.0384(4) 0.1731(6) 0.0377 Uani
H4K H -0.1173 -0.0199 0.2183 0.0450 Uiso
C8K C -0.0669(3) -0.1050(5) 0.1792(8) 0.0520 Uani
C9K C -0.0654(3) -0.2028(4) 0.3414(6) 0.0327 Uani
C10K C -0.1072(3) -0.2280(4) 0.3870(7) 0.0417 Uani
C11K C -0.1208(4) -0.2141(4) 0.4698(7) 0.0503 Uani
H5K H -0.1029 -0.1893 0.5012 0.0600 Uiso
C12K C -0.1604(4) -0.2364(5) 0.5068(7) 0.0653 Uani
H6K H -0.1693 -0.2265 0.5632 0.0780 Uiso
C13K C -0.1869(3) -0.2729(4) 0.4630(6) 0.0477 Uani
H7K H -0.2137 -0.2878 0.4896 0.0570 Uiso
C14K C -0.1743(3) -0.2882(3) 0.3781(6) 0.0333 Uani
C15K C -0.1337(3) -0.2658(4) 0.3418(6) 0.0370 Uani
H8K H -0.1240 -0.2762 0.2860 0.0440 Uiso
C16K C -0.2017(3) -0.3292(4) 0.3298(6) 0.0340 Uani
C17K C -0.1884(5) 0.1072(5) 0.4950(10) 0.0803 Uani
H9K H -0.2142 0.1306 0.4934 0.0960 Uiso
C18K C -0.1349(6) 0.0557(7) 0.5840(10) 0.1320 Uani
H10K H -0.1251 0.0453 0.5261 0.1980 Uiso
H11K H -0.1085 0.0723 0.6137 0.1980 Uiso
H12K H -0.1449 0.0248 0.6162 0.1980 Uiso
C19K C -0.1967(7) 0.1153(9) 0.6572(11) 0.1553 Uani
H13K H -0.2219 0.1391 0.6399 0.2310 Uiso
H14K H -0.2098 0.0871 0.6923 0.2310 Uiso
H15K H -0.1733 0.1345 0.6907 0.2310 Uiso
H19? H 0.0000 -0.225(6) 0.470(9) 0.0800 Uiso
loop_
_atom_site_aniso_label
_atom_site_aniso_U_11
_atom_site_aniso_U_22
_atom_site_aniso_U_33
_atom_site_aniso_U_23
_atom_site_aniso_U_13
_atom_site_aniso_U_12
Cu1 0.0194(5) 0.0287(7) 0.0410(6) -0.0016(5) 0.0084(4) -0.0021(5)
Cu2 0.0174(7) 0.0241(9) 0.0550(10) -0.0106(8) 0.000 0.000
Cu3 0.0162(7) 0.0307(10) 0.0516(10) -0.0140(8) 0.000 0.000
O1 0.031(3) 0.044(4) 0.056(4) -0.010(3) 0.009(3) -0.006(3)
O2 0.040(4) 0.040(4) 0.045(4) -0.009(3) 0.008(3) -0.016(3)
O3 0.021(3) 0.038(4) 0.068(5) -0.008(4) 0.003(3) -0.012(3)
O4 0.095(9) 0.091(10) 0.071(9) -0.065(8) 0.000 0.000
O5 0.041(4) 0.051(5) 0.071(5) -0.017(4) 0.024(3) -0.027(4)
O6 0.034 0.042 0.05 -0.006 -0.011 0.01
O7 0.028 0.046 0.053 -0.01 -0.013 0.013
O8 0.034 0.058 0.07 -0.019 -0.022 0.02
O9 0.034 0.036 0.07 -0.012 -0.009 0.014
O10 0.055(4) 0.077(6) 0.031(4) -0.008(4) 0.025(3) 0.010(4)
N1 0.082(8) 0.102(10) 0.083(8) 0.000(7) 0.027(7) 0.017(7)
C1 0.019(4) 0.038(6) 0.048(6) 0.012(5) -0.006(4) -0.009(4)
C2 0.026(4) 0.053(7) 0.040(5) 0.014(5) 0.010(4) 0.002(5)
C3 0.055(7) 0.041(8) 0.079(8) 0.004(6) 0.030(6) -0.007(6)
C4 0.096(9) 0.050(8) 0.064(8) -0.012(6) 0.035(7) -0.032(7)
C5 0.059(7) 0.046(8) 0.073(8) -0.016(6) 0.030(6) -0.025(6)
C6 0.035(5) 0.023(6) 0.047(6) 0.005(4) 0.007(4) -0.003(4)
C7 0.041(5) 0.029(6) 0.043(6) -0.001(4) 0.001(4) -0.001(4)
C8 0.032(5) 0.054(8) 0.070(8) 0.018(7) 0.002(5) -0.003(5)
C9 0.024 0.026 0.048 0.025 0.006 0.017
C10 0.026 0.027 0.072 0.005 0.008 -0.006
C11 0.051 0.039 0.061 -0.008 -0.004 0.013
C12 0.06 0.073 0.063 -0.017 -0.033 0.03
C13 0.045 0.041 0.057 0.002 -0.013 0.027
C14 0.023 0.022 0.055 0.014 0 0.003
C15 0.027 0.036 0.048 0.005 -0.003 -0.003
C16 0.022 0.034 0.046 0.005 0.014 -0.008
C17 0.077(9) 0.080(11) 0.084(10) 0.025(9) 0.058(8) 0.018(8)
C18 0.166(16) 0.113(14) 0.117(13) -0.012(11) 0.082(12) -0.060(13)
C19 0.137(16) 0.24(3) 0.089(13) 0.005(15) -0.009(12) 0.019(16)
O11 0.121(14) 0.11(3) 0.13(2) -0.07(2) 0.000 0.000
Cu1K 0.0194 0.0287 0.041 -0.0016 -0.0084 0.0021
Cu1G 0.0194 0.0287 0.041 0.0016 0.0084 0.0021
Cu1J 0.0194 0.0287 0.041 0.0016 -0.0084 -0.0021
Cu1N 0.0194 0.0287 0.041 -0.0016 -0.0084 0.0021
Cu1M 0.0194 0.0287 0.041 0.0016 -0.0084 -0.0021
Cu1D 0.0194 0.0287 0.041 0.0016 0.0084 0.0021
Cu1A 0.0194 0.0287 0.041 -0.0016 0.0084 -0.0021
O1K 0.031 0.044 0.056 -0.01 -0.009 0.006
O2K 0.04 0.04 0.045 -0.009 -0.008 0.016
O2G 0.04 0.04 0.045 0.009 0.008 0.016
O2M 0.04 0.04 0.045 0.009 -0.008 -0.016
O3K 0.021 0.038 0.068 -0.008 -0.003 0.012
O5K 0.041 0.051 0.071 -0.017 -0.024 0.027
O6K 0.034 0.042 0.05 -0.006 0.011 -0.01
O6J 0.034(3) 0.042(4) 0.050(4) 0.006(3) 0.011(3) 0.010(3)
O6D 0.034 0.042 0.05 0.006 -0.011 -0.01
O7K 0.028 0.046 0.053 -0.01 0.013 -0.013
O7N 0.028 0.046 0.053 -0.01 0.013 -0.013
O7A 0.028 0.046 0.053 -0.01 -0.013 0.013
O8K 0.034 0.058 0.07 -0.019 0.022 -0.02
O9K 0.034 0.036 0.07 -0.012 0.009 -0.014
O10K 0.055 0.077 0.031 -0.008 -0.025 -0.01
N1K 0.082 0.102 0.083 0 -0.027 -0.017
C1K 0.019 0.038 0.048 0.012 0.006 0.009
C2K 0.026 0.053 0.04 0.014 -0.01 -0.002
C3K 0.055 0.041 0.079 0.004 -0.03 0.007
C4K 0.096 0.05 0.064 -0.012 -0.035 0.032
C5K 0.059 0.046 0.073 -0.016 -0.03 0.025
C6K 0.035 0.023 0.047 0.005 -0.007 0.003
C7K 0.041 0.029 0.043 -0.001 -0.001 0.001
C8K 0.032 0.054 0.07 0.018 -0.002 0.003
C9K 0.024 0.026 0.048 0.025 -0.006 -0.017
C10K 0.026 0.027 0.072 0.005 -0.008 0.006
C11K 0.051 0.039 0.061 -0.008 0.004 -0.013
C12K 0.06 0.073 0.063 -0.017 0.033 -0.03
C13K 0.045 0.041 0.057 0.002 0.013 -0.027
C14K 0.023 0.022 0.055 0.014 0 -0.003
C15K 0.027 0.036 0.048 0.005 0.003 0.003
C16K 0.022 0.034 0.046 0.005 -0.014 0.008
C17K 0.077 0.08 0.084 0.025 -0.058 -0.018
C18K 0.166 0.113 0.117 -0.012 -0.082 0.06
C19K 0.137 0.24 0.089 0.005 0.009 -0.019
loop_
_geom_bond_atom_site_label_1
_geom_bond_atom_site_label_2
_geom_bond_site_symmetry_1
_geom_bond_site_symmetry_2
Cu1 O1 1_555 1_555
Cu2 Cu3 1_555 1_555
Cu3 O5 1_555 1_555
O1 C1 1_555 1_555
O2 C1 1_555 1_555
O3 Cu2 1_555 1_555
O4 Cu2 1_555 1_555
O5 C8 1_555 1_555
O6 C16 1_555 1_555
O7 C16 1_555 1_555
O8 Cu3 1_555 1_555
O9 Cu2 1_555 1_555
O10 Cu1 1_555 1_555
N1 C17 1_555 1_555
C1 C2 1_555 1_555
C2 C3 1_555 1_555
C3 H1 1_555 1_555
C4 C3 1_555 1_555
H2 C4 1_555 1_555
C5 C4 1_555 1_555
H3 C5 1_555 1_555
C6 C5 1_555 1_555
C7 C2 1_555 1_555
H4 C7 1_555 1_555
C8 O3 1_555 1_555
C9 O8 1_555 1_555
C10 C9 1_555 1_555
C11 C10 1_555 1_555
H5 C11 1_555 1_555
C12 C11 1_555 1_555
H6 C12 1_555 1_555
C13 C12 1_555 1_555
H7 C13 1_555 1_555
C14 C13 1_555 1_555
C15 C10 1_555 1_555
H8 C15 1_555 1_555
C16 C14 1_555 1_555
C17 O10 1_555 1_555
H9 C17 1_555 1_555
C18 N1 1_555 1_555
H10 C18 1_555 1_555
H11 C18 1_555 1_555
H12 C18 1_555 1_555
C19 N1 1_555 1_555
H13 C19 1_555 1_555
H14 C19 1_555 1_555
H15 C19 1_555 1_555
O11 Cu3 1_555 1_555
H16 O11 1_555 1_555
H17 O11 1_555 1_555
H18 O4 1_555 1_555
Cu1K Cu1M 1_555 1_555
Cu1G Cu1 1_555 1_555
Cu1J O6 1_555 1_555
Cu1N O7 1_555 1_555
Cu1M O2K 1_555 1_555
Cu1D Cu1A 1_555 1_555
Cu1A O7K 1_555 1_555
O1K Cu1K 1_555 1_555
O2K C1K 1_555 1_555
O2G Cu1 1_555 1_555
O2M Cu1K 1_555 1_555
O3K Cu2 1_555 1_555
O5K Cu3 1_555 1_555
O6K Cu1D 1_555 1_555
O6J Cu1 1_555 1_555
O6D Cu1K 1_555 1_555
O7K C16K 1_555 1_555
O7N Cu1 1_555 1_555
O7A Cu1K 1_555 1_555
O8K Cu3 1_555 1_555
O9K Cu2 1_555 1_555
O10K Cu1K 1_555 1_555
N1K C17K 1_555 1_555
C1K O1K 1_555 1_555
C2K C1K 1_555 1_555
C3K C2K 1_555 1_555
H1K C3K 1_555 1_555
C4K C3K 1_555 1_555
H2K C4K 1_555 1_555
C5K C4K 1_555 1_555
H3K C5K 1_555 1_555
C6K C5K 1_555 1_555
C7K C2K 1_555 1_555
H4K C7K 1_555 1_555
C8K O3K 1_555 1_555
C9K O8K 1_555 1_555
C10K C9K 1_555 1_555
C11K C10K 1_555 1_555
H5K C11K 1_555 1_555
C12K C11K 1_555 1_555
H6K C12K 1_555 1_555
C13K C12K 1_555 1_555
H7K C13K 1_555 1_555
C14K C13K 1_555 1_555
C15K C10K 1_555 1_555
H8K C15K 1_555 1_555
C16K O6K 1_555 1_555
C17K O10K 1_555 1_555
H9K C17K 1_555 1_555
C18K N1K 1_555 1_555
H10K C18K 1_555 1_555
H11K C18K 1_555 1_555
H12K C18K 1_555 1_555
C19K N1K 1_555 1_555
H13K C19K 1_555 1_555
H14K C19K 1_555 1_555
H15K C19K 1_555 1_555
O2 Cu1G 1_555 1_555
O9 C9 1_555 1_555
C6 C7 1_555 1_555
C6 C8 1_555 1_555
C14 C15 1_555 1_555
Cu1J Cu1N 1_555 1_555
O5K C8K 1_555 1_555
O9K C9K 1_555 1_555
C6K C7K 1_555 1_555
C6K C8K 1_555 1_555
C14K C15K 1_555 1_555
C14K C16K 1_555 1_555

#END
