
#######################################################################
#
#                 Cambridge Crystallographic Data Centre
#                                CCDC 
#
#######################################################################
#
# If this CIF has been generated from an entry in the Cambridge 
# Structural Database, then it will include bibliographic, chemical, 
# crystal, experimental, refinement or atomic coordinate data resulting 
# from the CCDC's data processing and validation procedures.
#
#######################################################################

data_KUKWIZ
_chemical_formula_moiety         '(C16 H8 Al2 O10)n,4(O2 S1)'
_chemical_name_systematic        
"catena-[(\m- [1,1'-biphenyl]-3,3',5,5'-tetracarboxylato)-bis(\m-hydroxo)-di-aluminium tetrakis(sulfur dioxide)]"
_symmetry_cell_setting           tetragonal
_symmetry_space_group_name_H-M   'I 41 2 2'
_symmetry_Int_Tables_number      98
_space_group_name_Hall           'I 4bw 2bw'
loop_
_symmetry_equiv_pos_site_id
_symmetry_equiv_pos_as_xyz
1 x,y,z
2 1/2-x,1/2-y,1/2+z
3 1/2-x,y,3/4-z
4 -y,-x,-z
5 -y,1/2+x,1/4+z
6 1/2+y,-x,3/4+z
7 1/2+y,1/2+x,1/2-z
8 x,1/2-y,1/4-z
9 -x,-y,z
10 -x,1/2+y,1/4-z
11 1/2-y,1/2-x,1/2-z
12 1/2-y,x,3/4+z
13 y,1/2-x,1/4+z
14 y,x,-z
15 1/2+x,-y,3/4-z
16 1/2+x,1/2+y,1/2+z
_cell_length_a                   14.84741(10)
_cell_length_b                   14.84741(10)
_cell_length_c                   11.805642(82)
_cell_angle_alpha                90
_cell_angle_beta                 90
_cell_angle_gamma                90
_cell_volume                     2602.5
_cell_formula_units_Z            4
loop_
_atom_site_label
_atom_site_type_symbol
_atom_site_fract_x
_atom_site_fract_y
_atom_site_fract_z
_atom_site_U_iso_or_equiv
_atom_site_thermal_displace_type
O1 O 0.623204(76) 0.378307(83) 0.602806(85) 0.0063 Uiso
O2 O 0.603659(74) 0.286353(71) 0.75360(13) 0.0063 Uiso
C1 C 0.59466(13) 0.35735(12) 0.70142(16) 0.0114 Uiso
C2 C 0.53958(11) 0.430836(69) 0.759581(85) 0.0114 Uiso
C3 C 0.500 0.500 0.694407(95) 0.0114 Uiso
C4 C 0.540050(68) 0.429602(51) 0.878113(85) 0.0114 Uiso
C5 C 0.500 0.500 0.936934(93) 0.0114 Uiso
H1 H 0.500 0.500 0.61250(66) 0.0138 Uiso
H2 H 0.57318 0.38162 0.90735 0.0138 Uiso
Al1 Al 0.693324(42) 0.306676(42) 0.500 0.0105 Uiso
O3 O 0.750 0.24907(11) 0.375 0.0063 Uiso
O1C O 0.621693(83) 0.376796(76) 1.397194(85) 0.0063 Uiso
O2C O 0.713647(71) 0.396341(74) 1.24640(13) 0.0063 Uiso
C1C C 0.64265(12) 0.40534(13) 1.29858(16) 0.0114 Uiso
C2C C 0.569164(69) 0.46042(11) 1.240419(85) 0.0114 Uiso
C3C C 0.500 0.500 1.305593(95) 0.0114 Uiso
C4C C 0.570398(51) 0.459950(68) 1.121887(85) 0.0114 Uiso
C5C C 0.500 0.500 1.063066(93) 0.0114 Uiso
H1C H 0.500 0.500 1.38750(66) 0.0138 Uiso
H2C H 0.61838 0.42682 1.09265 0.0138 Uiso
O1H O 0.376796(76) 0.621693(83) 0.602806(85) 0.0063 Uiso
O2H O 0.396341(74) 0.713647(71) 0.75360(13) 0.0063 Uiso
C1H C 0.40534(13) 0.64265(12) 0.70142(16) 0.0114 Uiso
C2H C 0.46042(11) 0.569164(69) 0.759581(85) 0.0114 Uiso
C4H C 0.459950(68) 0.570398(51) 0.878113(85) 0.0114 Uiso
H2H H 0.42682 0.61838 0.90735 0.0138 Uiso
O1M O 0.378307(83) 0.623204(76) 1.397194(85) 0.0063 Uiso
O2M O 0.286353(71) 0.603659(74) 1.24640(13) 0.0063 Uiso
C1M C 0.35735(12) 0.59466(13) 1.29858(16) 0.0114 Uiso
C2M C 0.430836(69) 0.53958(11) 1.240419(85) 0.0114 Uiso
C4M C 0.429602(51) 0.540050(68) 1.121887(85) 0.0114 Uiso
H2M H 0.38162 0.57318 1.09265 0.0138 Uiso
Al1H Al 0.306676(42) 0.693324(42) 0.500 0.0105 Uiso
O3C O 0.75093(11) 0.250 0.625 0.0063 Uiso
O1C_2 O 0.621693(83) 0.376796(76) 0.397194(85) 0.0063 Uiso
O1M_2 O 0.378307(83) 0.623204(76) 0.397194(85) 0.0063 Uiso
O2E O 0.786353(71) 0.396341(74) 0.50360(13) 0.0063 Uiso
O2G O 0.603659(74) 0.213647(71) 0.49640(13) 0.0063 Uiso
O2I O 0.396341(74) 0.786353(71) 0.49640(13) 0.0063 Uiso
O2K O 0.213647(71) 0.603659(74) 0.50360(13) 0.0063 Uiso
Al1B Al 0.806676(42) 0.306676(42) 0.250 0.0105 Uiso
Al1B_2 Al 0.806676(42) 0.306676(42) 1.250 0.0105 Uiso
Al1C Al 0.693324(42) 0.306676(42) 1.500 0.0105 Uiso
Al1D Al 0.693324(42) 0.193324(42) 0.750 0.0105 Uiso
Al1H_2 Al 0.306676(42) 0.693324(42) 1.500 0.0105 Uiso
Al1I Al 0.306676(42) 0.806676(42) 0.750 0.0105 Uiso
Al1K Al 0.193324(42) 0.693324(42) 1.250 0.0105 Uiso
O3H O 0.250 0.75093(11) 0.375 0.0063 Uiso
O3L O 0.24907(11) 0.750 0.625 0.0063 Uiso
S1 S 0.103150 0.315138 -0.712427 0.2319 Uiso
O4 O 0.117697 0.260787 -0.606897 0.4867 Uiso
O5 O 0.123069 0.257463 -0.813692 0.3095 Uiso
S2? S 0.062518 0.257889 -0.415951 0.1906 Uiso
O6? O -0.036130 0.243180 -0.416293 0.0730 Uiso
O7? O 0.110299 0.250886 -0.525706 0.4985 Uiso
H3? H 0.7263(13) 0.19062(65) 0.3818(19) 0.0095 Uiso
loop_
_geom_bond_atom_site_label_1
_geom_bond_atom_site_label_2
_geom_bond_site_symmetry_1
_geom_bond_site_symmetry_2
O1 C1 1_555 1_555
O2 C1 1_555 1_555
C1 C2 1_555 1_555
C2 C3 1_555 1_555
C3 H1 1_555 1_555
C4 C2 1_555 1_555
C5 C4 1_555 1_555
H2 C4 1_555 1_555
Al1 O1 1_555 1_555
O3 Al1 1_555 1_555
S1 O4 1_555 1_555
O5 S1 1_555 1_555
O1C C1C 1_555 1_555
O2C C1C 1_555 1_555
C1C C2C 1_555 1_555
C2C C3C 1_555 1_555
C3C H1C 1_555 1_555
C4C C2C 1_555 1_555
C5C C5 1_555 1_555
H2C C4C 1_555 1_555
O1H C1H 1_555 1_555
O2H C1H 1_555 1_555
C1H C2H 1_555 1_555
C2H C3 1_555 1_555
C4H C5 1_555 1_555
H2H C4H 1_555 1_555
O1M C1M 1_555 1_555
O2M C1M 1_555 1_555
C1M C2M 1_555 1_555
C2M C3C 1_555 1_555
C4M C5C 1_555 1_555
H2M C4M 1_555 1_555
Al1H O1H 1_555 1_555
O3C Al1 1_555 1_555
O1C_2 Al1 1_555 1_555
O1M_2 Al1H 1_555 1_555
O2E Al1 1_555 1_555
O2G Al1 1_555 1_555
O2I Al1H 1_555 1_555
O2K Al1H 1_555 1_555
Al1B O3 1_555 1_555
Al1B_2 O2C 1_555 1_555
Al1C O1C 1_555 1_555
Al1D O2 1_555 1_555
Al1H_2 O1M 1_555 1_555
Al1I O2H 1_555 1_555
Al1K O2M 1_555 1_555
O3H Al1H 1_555 1_555
O3L Al1H 1_555 1_555
C4C C5C 1_555 1_555
C2H C4H 1_555 1_555
C2M C4M 1_555 1_555
O3C Al1D 1_555 1_555
Al1I O3L 1_555 1_555

#END
