
#######################################################################
#
#                 Cambridge Crystallographic Data Centre
#                                CCDC 
#
#######################################################################
#
# If this CIF has been generated from an entry in the Cambridge 
# Structural Database, then it will include bibliographic, chemical, 
# crystal, experimental, refinement or atomic coordinate data resulting 
# from the CCDC's data processing and validation procedures.
#
#######################################################################

data_VIXPUP
_chemical_name_common            HNUST-3
_chemical_formula_moiety         '(C108 H72 Cu12 N12 O72)n'
_chemical_name_systematic        
"catena-[hexakis(\m~8~-5,5'-((1,2-dioxoethane-1,2-diyl)di-imino)di-isophthalato)-dodecakis(aqua)-dodeca-copper unknown solvate]"
_symmetry_cell_setting           monoclinic
_symmetry_space_group_name_H-M   'P 21/c'
_symmetry_Int_Tables_number      14
_space_group_name_Hall           '-P 2ybc'
loop_
_symmetry_equiv_pos_site_id
_symmetry_equiv_pos_as_xyz
1 x,y,z
2 -x,1/2+y,1/2-z
3 -x,-y,-z
4 x,1/2-y,1/2+z
_cell_length_a                   28.180(2)
_cell_length_b                   18.4040(14)
_cell_length_c                   32.044(2)
_cell_angle_alpha                90
_cell_angle_beta                 112.1740(10)
_cell_angle_gamma                90
_cell_volume                     15389.7
_cell_formula_units_Z            2
loop_
_atom_site_label
_atom_site_type_symbol
_atom_site_fract_x
_atom_site_fract_y
_atom_site_fract_z
C1 C 0.4734(2) 0.2509(3) 0.25486(18)
C2 C 0.5247(2) 0.2109(3) 0.26944(18)
C3 C 0.60807(18) 0.2039(3) 0.32878(16)
C4 C 0.63446(17) 0.2194(3) 0.37454(15)
H1 H 0.6191 0.2485 0.3896
C5 C 0.68343(16) 0.1918(2) 0.39773(14)
C6 C 0.70600(15) 0.1494(2) 0.37608(14)
H2 H 0.7387 0.1311 0.3918
C7 C 0.68095(15) 0.1328(2) 0.33064(13)
C8 C 0.63209(18) 0.1600(3) 0.30677(15)
H3 H 0.6154 0.1491 0.2764
C9 C 0.70842(15) 0.2066(2) 0.44758(15)
C10 C 0.70481(14) 0.0822(2) 0.30767(12)
C11 C 0.39055(19) 0.2586(3) 0.19192(16)
C12 C 0.36575(18) 0.2339(3) 0.14790(15)
H4 H 0.3815 0.2005 0.1354
C13 C 0.31703(16) 0.2602(2) 0.12302(15)
C14 C 0.29355(16) 0.3109(2) 0.14090(14)
H5 H 0.2609 0.3281 0.1238
C15 C 0.31950(15) 0.3360(2) 0.18526(13)
C16 C 0.36747(17) 0.3090(2) 0.21063(15)
H6 H 0.3844 0.3245 0.2402
C17 C 0.29494(15) 0.3948(2) 0.20318(13)
C18 C 0.29093(16) 0.2406(2) 0.07478(14)
C19 C 0.0197(3) 0.2131(4) -0.2162(3)
C20 C -0.0311(4) 0.2307(5) -0.2553(3)
C21 C 0.1081(2) 0.1841(4) -0.20870(18)
C22 C 0.13124(19) 0.1994(3) -0.16392(18)
H7 H 0.1128 0.2213 -0.1486
C23 C 0.18285(16) 0.1818(3) -0.14116(14)
C24 C 0.20982(15) 0.1465(2) -0.16362(13)
H8 H 0.2440 0.1339 -0.1482
C25 C 0.18568(16) 0.1299(2) -0.20910(14)
C26 C 0.1338(2) 0.1465(4) -0.23142(17)
H9 H 0.1165 0.1325 -0.2612
C27 C 0.21272(14) 0.0867(2) -0.23354(14)
C28 C 0.20760(17) 0.1962(2) -0.09242(14)
C29 C -0.1162(2) 0.2747(4) -0.26826(17)
C30 C -0.14027(18) 0.2497(3) -0.31266(15)
H10 H -0.1234 0.2171 -0.3245
C31 C -0.18885(16) 0.2736(2) -0.33880(15)
C32 C -0.21404(16) 0.3213(2) -0.32067(14)
H11 H -0.2469 0.3373 -0.3381
C33 C -0.19031(15) 0.3453(2) -0.27657(14)
C34 C -0.14216(18) 0.3202(3) -0.25018(15)
H12 H -0.1272 0.3340 -0.2201
C35 C -0.21532(15) 0.4032(2) -0.25825(14)
C36 C -0.21251(16) 0.2521(2) -0.38668(15)
C37 C 0.4734(3) 0.5086(3) -0.0051(4)
C38 C 0.3864(2) 0.4656(3) -0.0291(3)
C39 C 0.36278(18) 0.4022(3) -0.0257(2)
H13 H 0.3806 0.3586 -0.0217
C40 C 0.31266(16) 0.4020(2) -0.02797(17)
C41 C 0.28574(17) 0.4677(2) -0.03335(16)
H14 H 0.2521 0.4682 -0.0349
C42 C 0.31044(17) 0.5328(2) -0.03643(18)
C43 C 0.3602(2) 0.5328(3) -0.0339(2)
H15 H 0.3764 0.5762 -0.0353
C44 C 0.28396(16) 0.6042(2) -0.03817(14)
C45 C 0.28836(15) 0.3325(2) -0.02173(15)
C46 C 0.0258(2) 0.0123(2) -0.0002(3)
C47 C 0.10571(19) -0.0352(2) -0.00122(19)
C48 C 0.13169(18) 0.0308(2) 0.00183(17)
H16 H 0.1162 0.0738 0.0053
C49 C 0.17915(17) 0.0332(2) -0.00017(14)
C50 C 0.20326(17) -0.0315(2) -0.00612(15)
H17 H 0.2356 -0.0303 -0.0077
C51 C 0.17683(17) -0.0977(2) -0.00965(16)
C52 C 0.12930(17) -0.1001(2) -0.00816(16)
H18 H 0.1121 -0.1442 -0.0117
C53 C 0.20230(17) -0.1654(2) -0.01848(15)
C54 C 0.20665(16) 0.1023(2) 0.00047(14)
Cu1 Cu 0.289677(17) 0.18149(2) -0.007210(16)
Cu2 Cu 0.711187(17) 0.26117(2) 0.528251(16)
Cu3 Cu 0.786345(16) -0.00684(2) 0.307465(15)
Cu4 Cu 0.795447(17) 0.18672(2) 0.532846(16)
Cu5 Cu 0.207137(17) 0.25395(2) -0.010101(16)
Cu6 Cu 0.703381(16) -0.00098(2) 0.232193(15)
N1 N 0.55939(17) 0.2316(3) 0.30685(15)
H19 H 0.5512 0.2675 0.3200
N2 N 0.44038(17) 0.2333(3) 0.21518(15)
H20 H 0.4508 0.2012 0.2011
N3 N 0.0582(3) 0.1989(4) -0.2326(2)
H21 H 0.0490 0.1996 -0.2614
N4 N -0.06696(19) 0.2498(3) -0.24052(18)
H22 H -0.0599 0.2470 -0.2120
N5 N 0.4380(2) 0.4623(2) -0.0224(3)
H23 H 0.4475 0.4228 -0.0314
N6 N 0.05713(16) -0.0407(2) 0.00022(17)
H24 H 0.0463 -0.0841 0.0015
O1 O 0.68555(11) 0.24702(16) 0.46482(9)
O2 O 0.75261(10) 0.17913(15) 0.46722(9)
O3 O 0.74886(10) 0.06022(16) 0.33025(9)
O4 O 0.67962(10) 0.06735(15) 0.26688(9)
O5 O 0.32140(10) 0.41896(15) 0.24183(9)
O6 O 0.25050(10) 0.41247(15) 0.17928(9)
O7 O 0.24715(10) 0.26856(15) 0.05357(9)
O8 O 0.31448(11) 0.19903(15) 0.05749(9)
O9 O 0.18025(10) 0.22715(17) -0.07386(10)
O10 O 0.25340(10) 0.17619(16) -0.07255(9)
O11 O 0.25827(11) 0.06969(16) -0.20999(9)
O12 O 0.18752(11) 0.07211(18) -0.27337(10)
O13 O -0.19091(11) 0.42468(18) -0.21935(10)
O14 O -0.26045(11) 0.42191(16) -0.28355(9)
O15 O -0.25749(11) 0.27298(16) -0.40760(9)
O16 O -0.18548(11) 0.21554(15) -0.40256(9)
O17 O 0.24224(11) 0.33670(14) -0.02390(10)
O18 O 0.31472(11) 0.27733(15) -0.01471(11)
O19 O 0.23779(10) 0.60045(14) -0.04203(10)
O20 O 0.31028(11) 0.66017(15) -0.03495(11)
O21 O 0.18267(11) 0.15986(14) 0.00273(10)
O22 O 0.24951(10) 0.09863(14) -0.00144(10)
O23 O 0.17687(11) -0.22357(14) -0.02152(10)
O24 O 0.24514(11) -0.15909(14) -0.02116(11)
O25 O 0.5236(3) 0.1469(4) 0.2512(2)
O26 O 0.4618(3) 0.2798(4) 0.2852(3)
O27 O 0.0235(3) 0.2059(5) -0.1773(3)
O28 O -0.0336(4) 0.2360(6) -0.2970(4)
O29 O 0.4678(3) 0.5645(4) 0.0178(3)
O30 O 0.0352(2) 0.0765(3) 0.00108(18)
O31 O 0.35774(13) 0.12315(19) -0.00287(12)
O32 O 0.14472(15) 0.3207(2) -0.01005(15)
O33 O 0.64305(17) 0.3187(2) 0.52465(15)
O34 O 0.86513(13) 0.13033(19) 0.54186(14)
O35 O 0.85436(14) -0.01037(19) 0.36662(11)
O36 O 0.63835(17) 0.00368(19) 0.17045(13)
C37B C 0.5266(3) 0.4914(3) 0.0051(4)
C38B C 0.6136(2) 0.5344(3) 0.0291(3)
C39B C 0.63722(18) 0.5978(3) 0.0257(2)
H13B H 0.6194 0.6414 0.0217
C40B C 0.68734(16) 0.5980(2) 0.02797(17)
C41B C 0.71426(17) 0.5323(2) 0.03335(16)
H14B H 0.7479 0.5318 0.0349
C42B C 0.68956(17) 0.4672(2) 0.03643(18)
C43B C 0.6398(2) 0.4672(3) 0.0339(2)
H15B H 0.6236 0.4238 0.0353
C44B C 0.71604(16) 0.3958(2) 0.03817(14)
C45B C 0.71164(15) 0.6675(2) 0.02173(15)
N5B N 0.5620(2) 0.5377(2) 0.0224(3)
H23B H 0.5525 0.5772 0.0314
O17B O 0.75776(11) 0.66330(14) 0.02390(10)
O18B O 0.68528(11) 0.72267(15) 0.01471(11)
O19B O 0.76221(10) 0.39955(14) 0.04203(10)
O20B O 0.68972(11) 0.33983(15) 0.03495(11)
O29B O 0.5322(3) 0.4355(4) -0.0178(3)
C46B C -0.0258(2) -0.0123(2) 0.0002(3)
C47B C -0.10571(19) 0.0352(2) 0.00122(19)
C48B C -0.13169(18) -0.0308(2) -0.00183(17)
H16B H -0.1162 -0.0738 -0.0053
C49B C -0.17915(17) -0.0332(2) 0.00017(14)
C50B C -0.20326(17) 0.0315(2) 0.00612(15)
H17B H -0.2356 0.0303 0.0077
C51B C -0.17683(17) 0.0977(2) 0.00965(16)
C52B C -0.12930(17) 0.1001(2) 0.00816(16)
H18B H -0.1121 0.1442 0.0117
C53B C -0.20230(17) 0.1654(2) 0.01848(15)
C54B C -0.20665(16) -0.1023(2) -0.00047(14)
N6B N -0.05713(16) 0.0407(2) -0.00022(17)
H24B H -0.0463 0.0841 -0.0015
O21B O -0.18267(11) -0.15986(14) -0.00273(10)
O22B O -0.24951(10) -0.09863(14) 0.00144(10)
O23B O -0.17687(11) 0.22357(14) 0.02152(10)
O24B O -0.24514(11) 0.15909(14) 0.02116(11)
O30B O -0.0352(2) -0.0765(3) -0.00108(18)
C1B C -0.4734(2) -0.2509(3) -0.25486(18)
C2B C -0.5247(2) -0.2109(3) -0.26944(18)
C3B C -0.60807(18) -0.2039(3) -0.32878(16)
C4B C -0.63446(17) -0.2194(3) -0.37454(15)
H1B H -0.6191 -0.2485 -0.3896
C5B C -0.68343(16) -0.1918(2) -0.39773(14)
C6B C -0.70600(15) -0.1494(2) -0.37608(14)
H2B H -0.7387 -0.1311 -0.3918
C7B C -0.68095(15) -0.1328(2) -0.33064(13)
C8B C -0.63209(18) -0.1600(3) -0.30677(15)
H3B H -0.6154 -0.1491 -0.2764
C9B C -0.70842(15) -0.2066(2) -0.44758(15)
C10B C -0.70481(14) -0.0822(2) -0.30767(12)
C11B C -0.39055(19) -0.2586(3) -0.19192(16)
C12B C -0.36575(18) -0.2339(3) -0.14790(15)
H4B H -0.3815 -0.2005 -0.1354
C13B C -0.31703(16) -0.2602(2) -0.12302(15)
C14B C -0.29355(16) -0.3109(2) -0.14090(14)
H5B H -0.2609 -0.3281 -0.1238
C15B C -0.31950(15) -0.3360(2) -0.18526(13)
C16B C -0.36747(17) -0.3090(2) -0.21063(15)
H6B H -0.3844 -0.3245 -0.2402
C17B C -0.29494(15) -0.3948(2) -0.20318(13)
C18B C -0.29093(16) -0.2406(2) -0.07478(14)
C19B C -0.0197(3) -0.2131(4) 0.2162(3)
C20B C 0.0311(4) -0.2307(5) 0.2553(3)
C21B C -0.1081(2) -0.1841(4) 0.20870(18)
C22B C -0.13124(19) -0.1994(3) 0.16392(18)
H7B H -0.1128 -0.2213 0.1486
C23B C -0.18285(16) -0.1818(3) 0.14116(14)
C24B C -0.20982(15) -0.1465(2) 0.16362(13)
H8B H -0.2440 -0.1339 0.1482
C25B C -0.18568(16) -0.1299(2) 0.20910(14)
C26B C -0.1338(2) -0.1465(4) 0.23142(17)
H9B H -0.1165 -0.1325 0.2612
C27B C -0.21272(14) -0.0867(2) 0.23354(14)
C28B C -0.20760(17) -0.1962(2) 0.09242(14)
C29B C 0.1162(2) -0.2747(4) 0.26826(17)
C30B C 0.14027(18) -0.2497(3) 0.31266(15)
H10B H 0.1234 -0.2171 0.3245
C31B C 0.18885(16) -0.2736(2) 0.33880(15)
C32B C 0.21404(16) -0.3213(2) 0.32067(14)
H11B H 0.2469 -0.3373 0.3381
C33B C 0.19031(15) -0.3453(2) 0.27657(14)
C34B C 0.14216(18) -0.3202(3) 0.25018(15)
H12B H 0.1272 -0.3340 0.2201
C35B C 0.21532(15) -0.4032(2) 0.25825(14)
C36B C 0.21251(16) -0.2521(2) 0.38668(15)
Cu1B Cu -0.289677(17) -0.18149(2) 0.007210(16)
Cu2B Cu -0.711187(17) -0.26117(2) -0.528251(16)
Cu3B Cu -0.786345(16) 0.00684(2) -0.307465(15)
Cu4B Cu -0.795447(17) -0.18672(2) -0.532846(16)
Cu5B Cu -0.207137(17) -0.25395(2) 0.010101(16)
Cu6B Cu -0.703381(16) 0.00098(2) -0.232193(15)
N1B N -0.55939(17) -0.2316(3) -0.30685(15)
H19B H -0.5512 -0.2675 -0.3200
N2B N -0.44038(17) -0.2333(3) -0.21518(15)
H20B H -0.4508 -0.2012 -0.2011
N3B N -0.0582(3) -0.1989(4) 0.2326(2)
H21B H -0.0490 -0.1996 0.2614
N4B N 0.06696(19) -0.2498(3) 0.24052(18)
H22B H 0.0599 -0.2470 0.2120
O1B O -0.68555(11) -0.24702(16) -0.46482(9)
O2B O -0.75261(10) -0.17913(15) -0.46722(9)
O3B O -0.74886(10) -0.06022(16) -0.33025(9)
O4B O -0.67962(10) -0.06735(15) -0.26688(9)
O5B O -0.32140(10) -0.41896(15) -0.24183(9)
O6B O -0.25050(10) -0.41247(15) -0.17928(9)
O7B O -0.24715(10) -0.26856(15) -0.05357(9)
O8B O -0.31448(11) -0.19903(15) -0.05749(9)
O9B O -0.18025(10) -0.22715(17) 0.07386(10)
O10B O -0.25340(10) -0.17619(16) 0.07255(9)
O11B O -0.25827(11) -0.06969(16) 0.20999(9)
O12B O -0.18752(11) -0.07211(18) 0.27337(10)
O13B O 0.19091(11) -0.42468(18) 0.21935(10)
O14B O 0.26045(11) -0.42191(16) 0.28355(9)
O15B O 0.25749(11) -0.27298(16) 0.40760(9)
O16B O 0.18548(11) -0.21554(15) 0.40256(9)
O25B O -0.5236(3) -0.1469(4) -0.2512(2)
O26B O -0.4618(3) -0.2798(4) -0.2852(3)
O27B O -0.0235(3) -0.2059(5) 0.1773(3)
O28B O 0.0336(4) -0.2360(6) 0.2970(4)
O31B O -0.35774(13) -0.12315(19) 0.00287(12)
O32B O -0.14472(15) -0.3207(2) 0.01005(15)
O33B O -0.64305(17) -0.3187(2) -0.52465(15)
O34B O -0.86513(13) -0.13033(19) -0.54186(14)
O35B O -0.85436(14) 0.01037(19) -0.36662(11)
O36B O -0.63835(17) -0.00368(19) -0.17045(13)
Cu1B_2 Cu 0.710323(17) 0.81851(2) 0.007210(16)
Cu2_2 Cu -0.288813(17) 0.26117(2) -0.471749(16)
Cu2A Cu 0.288813(17) -0.23883(2) -0.028251(16)
Cu2A_2 Cu 0.288813(17) 0.76117(2) -0.028251(16)
Cu2B_2 Cu 0.288813(17) -0.26117(2) 0.471749(16)
Cu2C Cu -0.288813(17) 0.23883(2) 0.028251(16)
Cu2C_2 Cu 0.711187(17) 0.23883(2) 0.028251(16)
Cu3_2 Cu -0.213655(16) -0.00684(2) 0.307465(15)
Cu3A Cu 0.213655(16) -0.50684(2) 0.192535(15)
Cu3A_2 Cu 0.213655(16) 0.49316(2) 0.192535(15)
Cu3B_2 Cu 0.213655(16) 0.00684(2) -0.307465(15)
Cu3C Cu -0.213655(16) -0.49316(2) -0.192535(15)
Cu3C_2 Cu -0.213655(16) 0.50684(2) -0.192535(15)
Cu4_2 Cu -0.204553(17) 0.18672(2) -0.467154(16)
Cu4A Cu 0.204553(17) -0.31328(2) -0.032846(16)
Cu4A_2 Cu 0.204553(17) 0.68672(2) -0.032846(16)
Cu4B_2 Cu 0.204553(17) -0.18672(2) 0.467154(16)
Cu4C Cu -0.204553(17) 0.31328(2) 0.032846(16)
Cu4C_2 Cu 0.795447(17) 0.31328(2) 0.032846(16)
Cu5B_2 Cu 0.792863(17) 0.74605(2) 0.010101(16)
Cu6_2 Cu -0.296619(16) -0.00098(2) 0.232193(15)
Cu6A Cu 0.296619(16) -0.50098(2) 0.267807(15)
Cu6A_2 Cu 0.296619(16) 0.49902(2) 0.267807(15)
Cu6B_2 Cu 0.296619(16) 0.00098(2) -0.232193(15)
Cu6C Cu -0.296619(16) -0.49902(2) -0.267807(15)
Cu6C_2 Cu -0.296619(16) 0.50098(2) -0.267807(15)
O5A O 0.67860(10) -0.08104(15) 0.25817(9)
O5C O -0.67860(10) 0.08104(15) -0.25817(9)
O6A O 0.74950(10) -0.08753(15) 0.32072(9)
O6C O -0.74950(10) 0.08753(15) -0.32072(9)
O11_2 O -0.74173(11) 0.06969(16) -0.20999(9)
O11B_2 O 0.74173(11) -0.06969(16) 0.20999(9)
O12_2 O -0.81248(11) 0.07211(18) -0.27337(10)
O12B_2 O 0.81248(11) -0.07211(18) 0.27337(10)
O13A O -0.80909(11) -0.07532(18) -0.28065(10)
O13C O 0.80909(11) 0.07532(18) 0.28065(10)
O14A O -0.73955(11) -0.07809(16) -0.21645(9)
O14C O 0.73955(11) 0.07809(16) 0.21645(9)
O15_2 O 0.74251(11) 0.27298(16) 0.59240(9)
O15B_2 O -0.74251(11) -0.27298(16) -0.59240(9)
O16_2 O 0.81452(11) 0.21554(15) 0.59744(9)
O16B_2 O -0.81452(11) -0.21554(15) -0.59744(9)
O17B_2 O -0.24224(11) -0.33670(14) 0.02390(10)
O18B_2 O -0.31472(11) -0.27733(15) 0.01471(11)
O19A O 0.76221(10) 0.10045(14) 0.54203(10)
O19C O -0.76221(10) -0.10045(14) -0.54203(10)
O20A O 0.68972(11) 0.16017(15) 0.53495(11)
O20C O -0.68972(11) -0.16017(15) -0.53495(11)
O23A O 0.82313(11) 0.27643(14) 0.52152(10)
O23C O -0.82313(11) -0.27643(14) -0.52152(10)
O24A O 0.75486(11) 0.34091(14) 0.52116(11)
O24C O -0.75486(11) -0.34091(14) -0.52116(11)
O37? O 0.5362(3) 0.1821(5) 0.2375(3)
O38? O 0.4730(3) 0.3113(4) 0.2741(2)
O39? O 0.0331(3) 0.2494(6) -0.1808(3)
loop_
_geom_bond_atom_site_label_1
_geom_bond_atom_site_label_2
_geom_bond_site_symmetry_1
_geom_bond_site_symmetry_2
C1 C2 1_555 1_555
C2 N1 1_555 1_555
C3 C4 1_555 1_555
C4 H1 1_555 1_555
C5 C4 1_555 1_555
C6 C5 1_555 1_555
H2 C6 1_555 1_555
C7 C6 1_555 1_555
C8 C3 1_555 1_555
H3 C8 1_555 1_555
C9 C5 1_555 1_555
C10 C7 1_555 1_555
C11 C12 1_555 1_555
C12 H4 1_555 1_555
C13 C12 1_555 1_555
C14 C13 1_555 1_555
H5 C14 1_555 1_555
C15 C14 1_555 1_555
C16 C11 1_555 1_555
H6 C16 1_555 1_555
C17 C15 1_555 1_555
C18 C13 1_555 1_555
C19 C20 1_555 1_555
C20 N4 1_555 1_555
C21 C22 1_555 1_555
C22 H7 1_555 1_555
C23 C22 1_555 1_555
C24 C23 1_555 1_555
H8 C24 1_555 1_555
C25 C24 1_555 1_555
C26 C21 1_555 1_555
H9 C26 1_555 1_555
C27 C25 1_555 1_555
C28 C23 1_555 1_555
C29 C30 1_555 1_555
C30 H10 1_555 1_555
C31 C30 1_555 1_555
C32 C31 1_555 1_555
H11 C32 1_555 1_555
C33 C32 1_555 1_555
C34 C29 1_555 1_555
H12 C34 1_555 1_555
C35 C33 1_555 1_555
C36 C31 1_555 1_555
C37 N5 1_555 1_555
C38 C39 1_555 1_555
C39 H13 1_555 1_555
C40 C39 1_555 1_555
C41 C40 1_555 1_555
H14 C41 1_555 1_555
C42 C41 1_555 1_555
C43 C38 1_555 1_555
H15 C43 1_555 1_555
C44 C42 1_555 1_555
C45 C40 1_555 1_555
C46 N6 1_555 1_555
C47 C48 1_555 1_555
C48 H16 1_555 1_555
C49 C48 1_555 1_555
C50 C49 1_555 1_555
H17 C50 1_555 1_555
C51 C50 1_555 1_555
C52 C47 1_555 1_555
H18 C52 1_555 1_555
C53 C51 1_555 1_555
C54 C49 1_555 1_555
Cu1 Cu5 1_555 1_555
Cu2 Cu4 1_555 1_555
Cu3 Cu6 1_555 1_555
Cu4 O2 1_555 1_555
Cu5 O7 1_555 1_555
Cu6 O4 1_555 1_555
N1 C3 1_555 1_555
H19 N1 1_555 1_555
N2 C1 1_555 1_555
H20 N2 1_555 1_555
N3 C19 1_555 1_555
H21 N3 1_555 1_555
N4 C29 1_555 1_555
H22 N4 1_555 1_555
N5 C38 1_555 1_555
H23 N5 1_555 1_555
N6 C47 1_555 1_555
H24 N6 1_555 1_555
O1 C9 1_555 1_555
O2 C9 1_555 1_555
O3 C10 1_555 1_555
O4 C10 1_555 1_555
O5 C17 1_555 1_555
O6 C17 1_555 1_555
O7 C18 1_555 1_555
O8 C18 1_555 1_555
O9 C28 1_555 1_555
O10 C28 1_555 1_555
O11 C27 1_555 1_555
O12 C27 1_555 1_555
O13 C35 1_555 1_555
O14 C35 1_555 1_555
O15 C36 1_555 1_555
O16 C36 1_555 1_555
O17 C45 1_555 1_555
O18 C45 1_555 1_555
O19 C44 1_555 1_555
O20 C44 1_555 1_555
O21 C54 1_555 1_555
O22 C54 1_555 1_555
O23 C53 1_555 1_555
O24 C53 1_555 1_555
O25 C2 1_555 1_555
O26 C1 1_555 1_555
O27 C19 1_555 1_555
O28 C20 1_555 1_555
O29 C37 1_555 1_555
O30 C46 1_555 1_555
O31 Cu1 1_555 1_555
O32 Cu5 1_555 1_555
O33 Cu2 1_555 1_555
O34 Cu4 1_555 1_555
O35 Cu3 1_555 1_555
O36 Cu6 1_555 1_555
C37B C37 1_555 1_555
C38B C39B 1_555 1_555
C39B H13B 1_555 1_555
C40B C39B 1_555 1_555
C41B C40B 1_555 1_555
H14B C41B 1_555 1_555
C42B C41B 1_555 1_555
C43B C38B 1_555 1_555
H15B C43B 1_555 1_555
C44B C42B 1_555 1_555
C45B C40B 1_555 1_555
N5B C37B 1_555 1_555
H23B N5B 1_555 1_555
O17B C45B 1_555 1_555
O18B C45B 1_555 1_555
O19B C44B 1_555 1_555
O20B C44B 1_555 1_555
O29B C37B 1_555 1_555
C46B C46 1_555 1_555
C47B C48B 1_555 1_555
C48B H16B 1_555 1_555
C49B C48B 1_555 1_555
C50B C49B 1_555 1_555
H17B C50B 1_555 1_555
C51B C50B 1_555 1_555
C52B C47B 1_555 1_555
H18B C52B 1_555 1_555
C53B C51B 1_555 1_555
C54B C49B 1_555 1_555
N6B C46B 1_555 1_555
H24B N6B 1_555 1_555
O21B C54B 1_555 1_555
O22B C54B 1_555 1_555
O23B C53B 1_555 1_555
O24B C53B 1_555 1_555
O30B C46B 1_555 1_555
C1B C2B 1_555 1_555
C2B N1B 1_555 1_555
C3B C4B 1_555 1_555
C4B H1B 1_555 1_555
C5B C4B 1_555 1_555
C6B C5B 1_555 1_555
H2B C6B 1_555 1_555
C7B C6B 1_555 1_555
C8B C3B 1_555 1_555
H3B C8B 1_555 1_555
C9B C5B 1_555 1_555
C10B C7B 1_555 1_555
C11B C12B 1_555 1_555
C12B H4B 1_555 1_555
C13B C12B 1_555 1_555
C14B C13B 1_555 1_555
H5B C14B 1_555 1_555
C15B C14B 1_555 1_555
C16B C11B 1_555 1_555
H6B C16B 1_555 1_555
C17B C15B 1_555 1_555
C18B C13B 1_555 1_555
C19B C20B 1_555 1_555
C20B N4B 1_555 1_555
C21B C22B 1_555 1_555
C22B H7B 1_555 1_555
C23B C22B 1_555 1_555
C24B C23B 1_555 1_555
H8B C24B 1_555 1_555
C25B C24B 1_555 1_555
C26B C21B 1_555 1_555
H9B C26B 1_555 1_555
C27B C25B 1_555 1_555
C28B C23B 1_555 1_555
C29B C30B 1_555 1_555
C30B H10B 1_555 1_555
C31B C30B 1_555 1_555
C32B C31B 1_555 1_555
H11B C32B 1_555 1_555
C33B C32B 1_555 1_555
C34B C29B 1_555 1_555
H12B C34B 1_555 1_555
C35B C33B 1_555 1_555
C36B C31B 1_555 1_555
Cu1B O22B 1_555 1_555
Cu2B Cu4B 1_555 1_555
Cu3B Cu6B 1_555 1_555
Cu4B O2B 1_555 1_555
Cu5B O21B 1_555 1_555
Cu6B O4B 1_555 1_555
N1B C3B 1_555 1_555
H19B N1B 1_555 1_555
N2B C1B 1_555 1_555
H20B N2B 1_555 1_555
N3B C19B 1_555 1_555
H21B N3B 1_555 1_555
N4B C29B 1_555 1_555
H22B N4B 1_555 1_555
O1B C9B 1_555 1_555
O2B C9B 1_555 1_555
O3B C10B 1_555 1_555
O4B C10B 1_555 1_555
O5B C17B 1_555 1_555
O6B C17B 1_555 1_555
O7B C18B 1_555 1_555
O8B C18B 1_555 1_555
O9B C28B 1_555 1_555
O10B C28B 1_555 1_555
O11B C27B 1_555 1_555
O12B C27B 1_555 1_555
O13B C35B 1_555 1_555
O14B C35B 1_555 1_555
O15B C36B 1_555 1_555
O16B C36B 1_555 1_555
O25B C2B 1_555 1_555
O26B C1B 1_555 1_555
O27B C19B 1_555 1_555
O28B C20B 1_555 1_555
O31B Cu1B 1_555 1_555
O32B Cu5B 1_555 1_555
O33B Cu2B 1_555 1_555
O34B Cu4B 1_555 1_555
O35B Cu3B 1_555 1_555
O36B Cu6B 1_555 1_555
Cu1B_2 O18B 1_555 1_555
Cu2_2 O15 1_555 1_555
Cu2A O24 1_555 1_555
Cu2A_2 O20 1_555 1_555
Cu2B_2 O15B 1_555 1_555
Cu2C O24B 1_555 1_555
Cu2C_2 O20B 1_555 1_555
Cu3_2 O12B 1_555 1_555
Cu3A O13B 1_555 1_555
Cu3A_2 O6 1_555 1_555
Cu3B_2 O12 1_555 1_555
Cu3C O6B 1_555 1_555
Cu3C_2 O13 1_555 1_555
Cu4_2 O16 1_555 1_555
Cu4A O23 1_555 1_555
Cu4A_2 O19 1_555 1_555
Cu4B_2 O16B 1_555 1_555
Cu4C O23B 1_555 1_555
Cu4C_2 O19B 1_555 1_555
Cu5B_2 O17B 1_555 1_555
Cu6_2 O11B 1_555 1_555
Cu6A O14B 1_555 1_555
Cu6A_2 O5 1_555 1_555
Cu6B_2 O11 1_555 1_555
Cu6C O5B 1_555 1_555
Cu6C_2 O14 1_555 1_555
O5A Cu6 1_555 1_555
O5C Cu6B 1_555 1_555
O6A Cu3 1_555 1_555
O6C Cu3B 1_555 1_555
O11_2 Cu6B 1_555 1_555
O11B_2 Cu6 1_555 1_555
O12_2 Cu3B 1_555 1_555
O12B_2 Cu3 1_555 1_555
O13A Cu3B 1_555 1_555
O13C Cu3 1_555 1_555
O14A Cu6B 1_555 1_555
O14C Cu6 1_555 1_555
O15_2 Cu2 1_555 1_555
O15B_2 Cu2B 1_555 1_555
O16_2 Cu4 1_555 1_555
O16B_2 Cu4B 1_555 1_555
O17B_2 Cu5B 1_555 1_555
O18B_2 Cu1B 1_555 1_555
O19A Cu4 1_555 1_555
O19C Cu4B 1_555 1_555
O20A Cu2 1_555 1_555
O20C Cu2B 1_555 1_555
O23A Cu4 1_555 1_555
O23C Cu4B 1_555 1_555
O24A Cu2 1_555 1_555
O24C Cu2B 1_555 1_555
C7 C8 1_555 1_555
C11 N2 1_555 1_555
C15 C16 1_555 1_555
C21 N3 1_555 1_555
C25 C26 1_555 1_555
C33 C34 1_555 1_555
C42 C43 1_555 1_555
C51 C52 1_555 1_555
Cu1 O8 1_555 1_555
Cu1 O10 1_555 1_555
Cu1 O18 1_555 1_555
Cu1 O22 1_555 1_555
Cu2 O1 1_555 1_555
Cu3 O3 1_555 1_555
Cu5 O9 1_555 1_555
Cu5 O17 1_555 1_555
Cu5 O21 1_555 1_555
C38B N5B 1_555 1_555
C42B C43B 1_555 1_555
C47B N6B 1_555 1_555
C51B C52B 1_555 1_555
C7B C8B 1_555 1_555
C11B N2B 1_555 1_555
C15B C16B 1_555 1_555
C21B N3B 1_555 1_555
C25B C26B 1_555 1_555
C33B C34B 1_555 1_555
Cu1B Cu5B 1_555 1_555
Cu1B O8B 1_555 1_555
Cu1B O10B 1_555 1_555
Cu2B O1B 1_555 1_555
Cu3B O3B 1_555 1_555
Cu5B O7B 1_555 1_555
Cu5B O9B 1_555 1_555
Cu1B_2 Cu5B_2 1_555 1_555
Cu2_2 Cu4_2 1_555 1_555
Cu2A Cu4A 1_555 1_555
Cu2A_2 Cu4A_2 1_555 1_555
Cu2B_2 Cu4B_2 1_555 1_555
Cu2C Cu4C 1_555 1_555
Cu2C_2 Cu4C_2 1_555 1_555
Cu3_2 Cu6_2 1_555 1_555
Cu3A Cu6A 1_555 1_555
Cu3A_2 Cu6A_2 1_555 1_555
Cu3B_2 Cu6B_2 1_555 1_555
Cu3C Cu6C 1_555 1_555
Cu3C_2 Cu6C_2 1_555 1_555

#END
