
#######################################################################
#
#                 Cambridge Crystallographic Data Centre
#                                CCDC 
#
#######################################################################
#
# If this CIF has been generated from an entry in the Cambridge 
# Structural Database, then it will include bibliographic, chemical, 
# crystal, experimental, refinement or atomic coordinate data resulting 
# from the CCDC's data processing and validation procedures.
#
#######################################################################

data_ALAMUW
_chemical_name_common            SNU-50
_chemical_formula_moiety         '(C32 H22 Cu2 N4 O14)n,n(C3 H7 N1 O1),n(H2 O1)'
_chemical_name_systematic        
"catena-((\m~8~-N,N'-bis(3,5-Dicarboxylatophenyl)pyromellitic di-imide)-bis(dimethylformamide)-di-copper dimethylformamide solvate hydrate)"
_symmetry_cell_setting           rhombohedral
_symmetry_space_group_name_H-M   'R -3 m'
_symmetry_Int_Tables_number      166
_space_group_name_Hall           '-R 3 2"'
loop_
_symmetry_equiv_pos_site_id
_symmetry_equiv_pos_as_xyz
1 x,y,z
2 -y,x-y,z
3 -x+y,-x,z
4 y,x,-z
5 -x,-x+y,-z
6 x-y,-y,-z
7 2/3+x,1/3+y,1/3+z
8 2/3-y,1/3+x-y,1/3+z
9 2/3-x+y,1/3-x,1/3+z
10 2/3+y,1/3+x,1/3-z
11 2/3-x,1/3-x+y,1/3-z
12 2/3+x-y,1/3-y,1/3-z
13 1/3+x,2/3+y,2/3+z
14 1/3-y,2/3+x-y,2/3+z
15 1/3-x+y,2/3-x,2/3+z
16 1/3+y,2/3+x,2/3-z
17 1/3-x,2/3-x+y,2/3-z
18 1/3+x-y,2/3-y,2/3-z
19 -x,-y,-z
20 y,-x+y,-z
21 x-y,x,-z
22 -y,-x,z
23 x,x-y,z
24 -x+y,y,z
25 1/3-x,2/3-y,2/3-z
26 1/3+y,2/3-x+y,2/3-z
27 1/3+x-y,2/3+x,2/3-z
28 1/3-y,2/3-x,2/3+z
29 1/3+x,2/3+x-y,2/3+z
30 1/3-x+y,2/3+y,2/3+z
31 2/3-x,1/3-y,1/3-z
32 2/3+y,1/3-x+y,1/3-z
33 2/3+x-y,1/3+x,1/3-z
34 2/3-y,1/3-x,1/3+z
35 2/3+x,1/3+x-y,1/3+z
36 2/3-x+y,1/3+y,1/3+z
_cell_length_a                   18.794(7)
_cell_length_b                   18.794(7)
_cell_length_c                   50.17(2)
_cell_angle_alpha                90
_cell_angle_beta                 90
_cell_angle_gamma                120
_cell_volume                     15346.6
_exptl_crystal_colour            green
_exptl_crystal_description       prism
_cell_formula_units_Z            9
loop_
_atom_site_label
_atom_site_type_symbol
_atom_site_fract_x
_atom_site_fract_y
_atom_site_fract_z
_atom_site_U_iso_or_equiv
_atom_site_thermal_displace_type
C1 C 0.7294(5) 0.1369(5) 0.06006(15) 0.0890 Uiso
H1 H 0.6906 0.0896 0.0688 0.1070 Uiso
C2 C 0.7761(3) 0.2239(3) 0.01946(19) 0.0680 Uiso
H2 H 0.7677 0.2323 0.0017 0.0810 Uiso
C3 C 0.6401(5) 0.0940(5) 0.02008(15) 0.0700 Uiso
C4 C 0.8026(4) 0.1974(4) 0.0724(3) 0.1150 Uiso
C5 C 0.7703 0.12 0.1139 0.6600 Uiso
C6 C 0.8036 0.1404 0.1436 0.3220 Uiso
C7 C 0.7564 0.09 0.1667 0.6900 Uiso
H3 H 0.7068 0.0406 0.1667 0.8290 Uiso
C8 C 0.4688 -0.0625 0.0781 0.9700 Uiso
H4 H 0.4937 -0.0128 0.0689 1.1590 Uiso
C9 C 0.5151 0.0301 0.1114 0.6400 Uiso
H5 H 0.5114 0.0227 0.1304 0.9590 Uiso
H6 H 0.4885 0.0602 0.1062 0.9590 Uiso
C10 C 0.4366 -0.1266 0.1144 0.7100 Uiso
H7 H 0.4406 -0.1187 0.1334 1.0650 Uiso
H8 H 0.4632 -0.1568 0.1093 1.0650 Uiso
Cu1 Cu 0.47716(3) -0.04569(6) 0.02198(2) 0.0522 Uani
N1 N 0.8127(4) 0.1873(4) 0.1027(3) 0.1360 Uiso
N2 N 0.48 -0.04 0.1 0.6100 Uiso
O1 O 0.5896(3) 0.0332(3) 0.03405(9) 0.0726 Uani
O2 O 0.6284(3) 0.1111(2) -0.00357(8) 0.0656 Uani
O3 O 0.7 0.06 0.11 0.8200 Uiso
O4 O 0.4432(3) -0.1136(6) 0.05899(17) 0.1223 Uani
C11 C 0.7204(4) 0.1546(4) 0.03367(13) 0.0695 Uiso
C1I C 0.8036(5) 0.0627(5) 0.27327(15) 0.0890 Uiso
H1I H 0.7563 0.0239 0.2645 0.1070 Uiso
C2I C 0.8906(3) 0.1094(3) 0.31387(19) 0.0680 Uiso
H2I H 0.8990 0.1010 0.3316 0.0810 Uiso
C3I C 0.7607(5) -0.0266(5) 0.31325(15) 0.0700 Uiso
C4I C 0.8641(4) 0.1359(4) 0.2609(3) 0.1150 Uiso
C5I C 0.786667 0.1036 0.2194 0.6600 Uiso
C6I C 0.8071 0.1369 0.1897 0.3220 Uiso
N1I N 0.8540(4) 0.1460(4) 0.2306(3) 0.1360 Uiso
O1I O 0.6999(3) -0.0771(3) 0.29928(9) 0.0726 Uani
O2I O 0.7778(2) -0.0383(3) 0.33690(8) 0.0656 Uani
O3I O 0.726667 0.033333 0.223333 0.8200 Uiso
C11I C 0.8213(4) 0.0537(4) 0.29966(13) 0.0695 Uiso
C1U C 0.8631(5) 0.2706(5) 0.06006(15) 0.0890 Uiso
H1U H 0.9104 0.3094 0.0688 0.1070 Uiso
C3U C 0.9060(5) 0.3599(5) 0.02008(15) 0.0700 Uiso
C5U C 0.88 0.2297 0.1139 0.6600 Uiso
C6U C 0.8596 0.1964 0.1436 0.3220 Uiso
C7U C 0.91 0.2436 0.1667 0.6900 Uiso
H3U H 0.9594 0.2932 0.1667 0.8290 Uiso
O1U O 0.9668(3) 0.4104(3) 0.03405(9) 0.0726 Uani
O2U O 0.8889(2) 0.3716(3) -0.00357(8) 0.0656 Uani
O3U O 0.94 0.3 0.11 0.8200 Uiso
C11U C 0.8454(4) 0.2796(4) 0.03367(13) 0.0695 Uiso
C1DA C 0.9373(5) 0.1964(5) 0.27327(15) 0.0890 Uiso
H1DA H 0.9761 0.2437 0.2645 0.1070 Uiso
C3DA C 1.0266(5) 0.2393(5) 0.31325(15) 0.0700 Uiso
C5DA C 0.8964 0.213333 0.2194 0.6600 Uiso
C6DA C 0.8631 0.1929 0.1897 0.3220 Uiso
O1DA O 1.0771(3) 0.3001(3) 0.29928(9) 0.0726 Uani
O2DA O 1.0383(3) 0.2222(2) 0.33690(8) 0.0656 Uani
O3DA O 0.966667 0.273333 0.223333 0.8200 Uiso
C11DA C 0.9463(4) 0.1787(4) 0.29966(13) 0.0695 Uiso
H6W H 0.5717 0.0602 0.1062 0.9590 Uiso
H8W H 0.3800 -0.1568 0.1093 1.0650 Uiso
C8A C 1.0625 0.5313 0.0781 0.9700 Uiso
H4A H 1.0128 0.5065 0.0689 1.1590 Uiso
C9A C 0.9699 0.4850 0.1114 0.6400 Uiso
H5A H 0.9773 0.4887 0.1304 0.9590 Uiso
H6A H 0.9398 0.4283 0.1062 0.9590 Uiso
C10A C 1.1266 0.5632 0.1144 0.7100 Uiso
H7A H 1.1187 0.5593 0.1334 1.0650 Uiso
H8A H 1.1568 0.6200 0.1093 1.0650 Uiso
Cu1A Cu 1.04569(6) 0.52285(7) 0.02198(2) 0.0522 Uani
N2A N 1.04 0.52 0.1 0.6100 Uiso
O4A O 1.1136(6) 0.5568(7) 0.05899(17) 0.1223 Uani
H6U H 0.9398 0.5115 0.1062 0.9590 Uiso
H8U H 1.1568 0.5368 0.1093 1.0650 Uiso
Cu1C Cu 0.95431(6) 0.47716(3) -0.02198(2) 0.0522 Uani
Cu1E Cu 0.52285(7) 0.04569(6) -0.02198(2) 0.0522 Uani
Cu1F Cu 1.14383(3) 0.28764(6) 0.35531(2) 0.0522 Uani
Cu1G Cu 0.71236(6) -0.14382(7) 0.35531(2) 0.0522 Uani
Cu1I Cu 0.62098(6) -0.18951(3) 0.31135(2) 0.0522 Uani
Cu1K Cu 1.18952(7) 0.37902(6) 0.31135(2) 0.0522 Uani
O1A O 0.9668(3) 0.5564(4) 0.03405(9) 0.0726 Uani
O1W O 0.4436(4) 0.0332(3) 0.03405(9) 0.0726 Uani
O2C O 1.1111(2) 0.6284(3) 0.00357(8) 0.0656 Uani
O2E O 0.5173(4) -0.1111(2) 0.00357(8) 0.0656 Uani
O2R O 0.3716(3) -0.1111(2) 0.00357(8) 0.0656 Uani
O2S O 1.1111(2) 0.4827(4) 0.00357(8) 0.0656 Uani
loop_
_atom_site_aniso_label
_atom_site_aniso_U_11
_atom_site_aniso_U_22
_atom_site_aniso_U_33
_atom_site_aniso_U_23
_atom_site_aniso_U_13
_atom_site_aniso_U_12
Cu1 0.0618(7) 0.0365(7) 0.0497(7) 0.0048(5) 0.0024(3) 0.0182(3)
O1 0.058(3) 0.062(3) 0.067(3) 0.006(2) -0.005(2) 0.007(2)
O2 0.062(3) 0.050(3) 0.062(3) -0.001(2) -0.010(2) 0.011(2)
O4 0.114(5) 0.168(9) 0.103(6) 0.074(6) 0.037(3) 0.084(4)
O1I 0.062 0.058 0.067 0.005 -0.006 0.007
O2I 0.05 0.062 0.062 0.01 0.001 0.011
O1U 0.062 0.058 0.067 0.005 -0.006 0.007
O2U 0.05 0.062 0.062 0.01 0.001 0.011
O1DA 0.058 0.062 0.067 0.006 -0.005 0.007
O2DA 0.062 0.05 0.062 -0.001 -0.01 0.011
Cu1A 0.0365 0.0619 0.0497 -0.0024 -0.0048 0.0183
O4A 0.168 0.114 0.103 -0.037 -0.074 0.084
Cu1C 0.0365 0.0618 0.0497 -0.0024 -0.0048 0.0182
Cu1E 0.0619 0.0365 0.0497 0.0048 0.0024 0.0183
Cu1F 0.0618 0.0365 0.0497 0.0048 0.0024 0.0182
Cu1G 0.0365 0.0619 0.0497 -0.0024 -0.0048 0.0183
Cu1I 0.0365 0.0618 0.0497 -0.0024 -0.0048 0.0182
Cu1K 0.0619 0.0365 0.0497 0.0048 0.0024 0.0183
O1A 0.062 0.106 0.067 -0.011 -0.006 0.055
O1W 0.106 0.062 0.067 0.006 0.011 0.055
O2C 0.05 0.062 0.062 0.01 0.001 0.011
O2E 0.09 0.05 0.062 -0.001 0.009 0.039
O2R 0.062 0.05 0.062 -0.001 -0.01 0.011
O2S 0.05 0.09 0.062 -0.009 0.001 0.039
loop_
_geom_bond_atom_site_label_1
_geom_bond_atom_site_label_2
_geom_bond_site_symmetry_1
_geom_bond_site_symmetry_2
C1 H1 1_555 1_555
C2 H2 1_555 1_555
C3 O1 1_555 1_555
C4 C1 1_555 1_555
C5 C6 1_555 1_555
C6 C7 1_555 1_555
C7 H3 1_555 1_555
C8 H4 1_555 1_555
C9 H5 1_555 1_555
H6 C9 1_555 1_555
C10 H7 1_555 1_555
H8 C10 1_555 1_555
Cu1 O1 1_555 1_555
N1 C4 1_555 1_555
N2 C8 1_555 1_555
O2 C3 1_555 1_555
O3 C5 1_555 1_555
O4 C8 1_555 1_555
C11 C1 1_555 1_555
C1I H1I 1_555 1_555
C2I H2I 1_555 1_555
C3I O1I 1_555 1_555
C4I C1I 1_555 1_555
C5I C6I 1_555 1_555
C6I C7 1_555 1_555
N1I C4I 1_555 1_555
O1I Cu1I 1_555 1_555
O2I C3I 1_555 1_555
O3I C5I 1_555 1_555
C11I C1I 1_555 1_555
C1U C4 1_555 1_555
H1U C1U 1_555 1_555
C3U O1U 1_555 1_555
C5U N1 1_555 1_555
C6U C6 1_555 1_555
C7U C6U 1_555 1_555
H3U C7U 1_555 1_555
O1U Cu1A 1_555 1_555
O2U C3U 1_555 1_555
O3U C5U 1_555 1_555
C11U C2 1_555 1_555
C1DA C4I 1_555 1_555
H1DA C1DA 1_555 1_555
C3DA O1DA 1_555 1_555
C5DA N1I 1_555 1_555
C6DA C6I 1_555 1_555
O1DA Cu1K 1_555 1_555
O2DA C3DA 1_555 1_555
O3DA C5DA 1_555 1_555
C11DA C2I 1_555 1_555
H6W C9 1_555 1_555
H8W C10 1_555 1_555
C8A H4A 1_555 1_555
C9A H5A 1_555 1_555
H6A C9A 1_555 1_555
C10A H7A 1_555 1_555
H8A C10A 1_555 1_555
Cu1A O4A 1_555 1_555
N2A C8A 1_555 1_555
O4A C8A 1_555 1_555
H6U C9A 1_555 1_555
H8U C10A 1_555 1_555
Cu1C O2U 1_555 1_555
Cu1E Cu1 1_555 1_555
Cu1F O2DA 1_555 1_555
Cu1G O2I 1_555 1_555
Cu1I Cu1G 1_555 1_555
Cu1K Cu1F 1_555 1_555
O1A Cu1A 1_555 1_555
O1W Cu1 1_555 1_555
O2C Cu1A 1_555 1_555
O2E Cu1 1_555 1_555
O2R Cu1 1_555 1_555
O2S Cu1A 1_555 1_555
C2 C11 1_555 1_555
C3 C11 1_555 1_555
C5 N1 1_555 1_555
C9 N2 1_555 1_555
C10 N2 1_555 1_555
Cu1 O4 1_555 1_555
O2 Cu1E 1_555 1_555
C2I C11I 1_555 1_555
C3I C11I 1_555 1_555
C5I N1I 1_555 1_555
C1U C11U 1_555 1_555
C3U C11U 1_555 1_555
C5U C6U 1_555 1_555
C7U C6DA 1_555 1_555
C1DA C11DA 1_555 1_555
C3DA C11DA 1_555 1_555
C5DA C6DA 1_555 1_555
C9A N2A 1_555 1_555
C10A N2A 1_555 1_555
Cu1A Cu1C 1_555 1_555

#END
