
#######################################################################
#
#                 Cambridge Crystallographic Data Centre
#                                CCDC 
#
#######################################################################
#
# If this CIF has been generated from an entry in the Cambridge 
# Structural Database, then it will include bibliographic, chemical, 
# crystal, experimental, refinement or atomic coordinate data resulting 
# from the CCDC's data processing and validation procedures.
#
#######################################################################

data_LUSVUR01
_chemical_formula_moiety         '(C34 H28 N2 O8 Rh2)n'
_chemical_name_systematic        
catena-(tetrakis(\m~2~-benzoato)-(\m~2~-2,3-dimethylpyrazine)-di-rhodium(ii))
_symmetry_cell_setting           triclinic
_symmetry_space_group_name_H-M   'P -1'
_symmetry_Int_Tables_number      2
_space_group_name_Hall           '-P 1'
loop_
_symmetry_equiv_pos_site_id
_symmetry_equiv_pos_as_xyz
1 x,y,z
2 -x,-y,-z
_cell_length_a                   10.2633(5)
_cell_length_b                   10.4611(5)
_cell_length_c                   15.7171(7)
_cell_angle_alpha                79.8530(10)
_cell_angle_beta                 81.0400(10)
_cell_angle_gamma                87.3630(10)
_cell_volume                     1640.51
_exptl_crystal_colour            red
_exptl_crystal_description       plate
_cell_formula_units_Z            2
loop_
_atom_site_label
_atom_site_type_symbol
_atom_site_fract_x
_atom_site_fract_y
_atom_site_fract_z
_atom_site_U_iso_or_equiv
_atom_site_thermal_displace_type
C1 C 0.4083(2) 0.7073(2) 0.56156(14) 0.0152 Uani
C2 C 0.3574(2) 0.8251(2) 0.59817(14) 0.0158 Uani
C3 C 0.3458(2) 0.9431(2) 0.54254(15) 0.0198 Uani
H1 H 0.3758 0.9501 0.4816 0.0240 Uiso
C4 C 0.2901(2) 1.0505(2) 0.57646(16) 0.0241 Uani
H2 H 0.2825 1.1313 0.5388 0.0290 Uiso
C5 C 0.2458(2) 1.0396(2) 0.66490(16) 0.0242 Uani
H3 H 0.2047 1.1124 0.6875 0.0290 Uiso
C6 C 0.2607(2) 0.9236(2) 0.72116(15) 0.0239 Uani
H4 H 0.2324 0.9177 0.7822 0.0290 Uiso
C7 C 0.3170(2) 0.8167(2) 0.68793(14) 0.0196 Uani
H5 H 0.3282 0.7373 0.7263 0.0230 Uiso
C8 C 0.2800(2) 0.4593(2) 0.44715(14) 0.0167 Uani
C9 C 0.1613(2) 0.4257(2) 0.41201(15) 0.0204 Uani
C10 C 0.1553(2) 0.4614(3) 0.32314(17) 0.0279 Uani
H6 H 0.2240 0.5106 0.2860 0.0330 Uiso
C11 C 0.0486(3) 0.4247(3) 0.28879(19) 0.0346 Uani
H7 H 0.0448 0.4475 0.2280 0.0420 Uiso
C12 C -0.0519(3) 0.3550(3) 0.3436(2) 0.0375 Uani
H8 H -0.1247 0.3298 0.3201 0.0450 Uiso
C13 C -0.0475(3) 0.3214(3) 0.4321(2) 0.0347 Uani
H9 H -0.1178 0.2746 0.4693 0.0420 Uiso
C14 C 0.0594(2) 0.3560(2) 0.46679(17) 0.0253 Uani
H10 H 0.0631 0.3322 0.5276 0.0300 Uiso
C15 C 0.1134(2) 0.0426(2) 1.13009(14) 0.0167 Uani
C16 C 0.1758(2) 0.0752(2) 1.20266(14) 0.0182 Uani
C17 C 0.1219(2) 0.0325(2) 1.28920(15) 0.0240 Uani
H11 H 0.0455 -0.0195 1.3025 0.0290 Uiso
C18 C 0.1798(3) 0.0658(3) 1.35640(16) 0.0281 Uani
H12 H 0.1424 0.0370 1.4155 0.0340 Uiso
C19 C 0.2914(3) 0.1405(2) 1.33752(16) 0.0269 Uani
H13 H 0.3308 0.1625 1.3837 0.0320 Uiso
C20 C 0.3462(3) 0.1837(2) 1.25140(16) 0.0265 Uani
H14 H 0.4229 0.2352 1.2386 0.0320 Uiso
C21 C 0.2886(2) 0.1514(2) 1.18410(15) 0.0229 Uani
H15 H 0.3259 0.1812 1.1251 0.0280 Uiso
C22 C 0.1386(2) -0.2135(2) 0.98609(14) 0.0176 Uani
C23 C 0.2151(2) -0.3360(2) 0.97383(14) 0.0189 Uani
C24 C 0.1616(2) -0.4563(2) 1.01175(16) 0.0252 Uani
H16 H 0.0780 -0.4606 1.0478 0.0300 Uiso
C25 C 0.2297(3) -0.5695(2) 0.99723(19) 0.0315 Uani
H17 H 0.1921 -0.6514 1.0224 0.0380 Uiso
C26 C 0.3528(3) -0.5637(3) 0.94600(18) 0.0318 Uani
H18 H 0.3998 -0.6415 0.9363 0.0380 Uiso
C27 C 0.4072(3) -0.4442(3) 0.90892(18) 0.0325 Uani
H19 H 0.4918 -0.4401 0.8741 0.0390 Uiso
C28 C 0.3386(3) -0.3308(2) 0.92244(17) 0.0273 Uani
H20 H 0.3759 -0.2490 0.8965 0.0330 Uiso
C29 C 0.2495(2) 0.3513(2) 0.72490(14) 0.0163 Uani
H21 H 0.2085 0.4209 0.6906 0.0200 Uiso
C30 C 0.1769(2) 0.2821(2) 0.79840(13) 0.0166 Uani
H22 H 0.0856 0.3021 0.8120 0.0200 Uiso
C31 C 0.3616(2) 0.1634(2) 0.83161(13) 0.0160 Uani
C32 C 0.4347(2) 0.2289(2) 0.75358(14) 0.0165 Uani
C33 C 0.4284(2) 0.0661(2) 0.89375(15) 0.0220 Uani
H23 H 0.3684 0.0432 0.9488 0.0330 Uiso
H24 H 0.5084 0.1037 0.9051 0.0330 Uiso
H25 H 0.4521 -0.0120 0.8679 0.0330 Uiso
C34 C 0.5769(2) 0.1935(2) 0.72772(15) 0.0235 Uani
H26 H 0.6069 0.2358 0.6675 0.0350 Uiso
H27 H 0.5865 0.0991 0.7318 0.0350 Uiso
H28 H 0.6302 0.2226 0.7670 0.0350 Uiso
N1 N 0.37762(18) 0.32186(17) 0.70091(11) 0.0156 Uani
N2 N 0.23216(18) 0.18691(17) 0.85133(11) 0.0157 Uani
O1 O 0.46176(15) 0.72298(14) 0.48247(9) 0.0172 Uani
O2 O 0.39257(15) 0.59941(14) 0.61345(9) 0.0175 Uani
O3 O 0.36239(15) 0.53228(15) 0.39440(10) 0.0189 Uani
O4 O 0.29099(15) 0.40988(15) 0.52551(10) 0.0180 Uani
O5 O 0.01217(15) -0.02852(15) 1.14904(10) 0.0182 Uani
O6 O 0.16712(15) 0.09020(15) 1.05312(9) 0.0180 Uani
O7 O 0.03020(15) -0.22478(14) 1.03828(10) 0.0183 Uani
O8 O 0.18664(15) -0.10799(14) 0.94297(10) 0.0180 Uani
Rh1 Rh 0.462633(16) 0.434882(15) 0.569662(10) 0.0131 Uani
Rh2 Rh 0.083067(16) 0.062541(15) 0.949489(10) 0.0136 Uani
O1A O 0.53824(15) 0.27702(14) 0.51753(9) 0.0172 Uani
O3A O 0.63761(15) 0.46772(15) 0.60560(10) 0.0189 Uani
O5A O -0.01217(15) 0.02852(15) 0.85096(10) 0.0182 Uani
O7A O -0.03020(15) 0.22478(14) 0.96172(10) 0.0183 Uani
Rh1A Rh 0.537367(16) 0.565118(15) 0.430338(10) 0.0131 Uani
Rh2A Rh -0.083067(16) -0.062541(15) 1.050511(10) 0.0136 Uani
loop_
_atom_site_aniso_label
_atom_site_aniso_U_11
_atom_site_aniso_U_22
_atom_site_aniso_U_33
_atom_site_aniso_U_23
_atom_site_aniso_U_13
_atom_site_aniso_U_12
C1 0.0121 0.0162 0.0161 -0.0005 -0.0001 -0.0031
C2 0.0149 0.0144 0.0174 -0.0031 0.0008 -0.0036
C3 0.0218 0.0188 0.0173 -0.0023 0.0011 -0.0014
C4 0.0301 0.0149 0.0255 -0.0021 -0.0003 -0.0002
C5 0.0257 0.0198 0.028 -0.0106 0.0003 -0.0007
C6 0.0288 0.0261 0.0174 -0.0085 0.0016 -0.0055
C7 0.0206 0.0198 0.0176 -0.0027 -0.0001 -0.0036
C8 0.0166(10) 0.0144(10) 0.0180(10) -0.0038(8) 0.0013(8) 0.0014(8)
C9 0.0184(11) 0.0162(10) 0.0274(12) -0.0059(9) -0.0035(9) 0.0011(8)
C10 0.0225(12) 0.0281(13) 0.0337(14) -0.0030(10) -0.0083(10) -0.0013(10)
C11 0.0346(15) 0.0364(15) 0.0365(15) -0.0060(12) -0.0171(12) -0.0004(12)
C12 0.0282(14) 0.0303(14) 0.059(2) -0.0101(13) -0.0193(13) -0.0017(11)
C13 0.0208(13) 0.0305(14) 0.0528(18) -0.0067(12) -0.0045(12) -0.0043(10)
C14 0.0199(12) 0.0220(12) 0.0334(13) -0.0049(10) -0.0009(10) -0.0026(9)
C15 0.0192 0.0127 0.0159 0.0005 0.0004 0.0034
C16 0.0198 0.0174 0.0163 -0.0012 -0.0022 0.0027
C17 0.0224 0.0298 0.0183 -0.0021 0.0001 -0.0021
C18 0.0298 0.0374 0.0161 -0.0043 -0.0018 0.0017
C19 0.0321 0.0271 0.0237 -0.0075 -0.0088 0.0032
C20 0.0269 0.0233 0.0288 -0.0016 -0.0053 -0.0027
C21 0.0254 0.0216 0.0196 0.0004 -0.001 -0.0002
C22 0.0224(11) 0.0171(10) 0.0123(10) -0.0010(8) -0.0013(8) -0.0016(8)
C23 0.0228(11) 0.0156(10) 0.0174(10) -0.0018(8) -0.0020(8) 0.0006(8)
C24 0.0243(12) 0.0204(12) 0.0293(13) -0.0014(10) -0.0017(10) -0.0024(9)
C25 0.0365(15) 0.0147(11) 0.0435(16) -0.0024(10) -0.0094(12) -0.0010(10)
C26 0.0352(15) 0.0218(12) 0.0402(15) -0.0100(11) -0.0084(11) 0.0085(11)
C27 0.0303(14) 0.0290(14) 0.0352(15) -0.0063(11) 0.0033(11) 0.0054(11)
C28 0.0301(13) 0.0201(12) 0.0277(13) -0.0011(9) 0.0042(10) 0.0007(10)
C29 0.0187(11) 0.0124(10) 0.0154(10) 0.0008(8) 0.0013(8) 0.0002(8)
C30 0.0191(11) 0.0151(10) 0.0136(10) -0.0014(8) 0.0030(8) -0.0007(8)
C31 0.0211(11) 0.0126(10) 0.0130(10) -0.0003(8) -0.0002(8) -0.0021(8)
C32 0.0195(11) 0.0136(10) 0.0144(10) -0.0004(8) 0.0022(8) -0.0023(8)
C33 0.0201(11) 0.0238(12) 0.0180(11) 0.0051(9) 0.0001(9) -0.0010(9)
C34 0.0182(11) 0.0246(12) 0.0219(11) 0.0044(9) 0.0043(9) 0.0017(9)
N1 0.0197(9) 0.0116(8) 0.0131(8) 0.0011(6) 0.0019(7) -0.0018(7)
N2 0.0209(9) 0.0132(8) 0.0114(8) -0.0015(6) 0.0030(7) -0.0037(7)
O1 0.0215 0.0137 0.0133 0.0004 0.0038 -0.0002
O2 0.022 0.0145 0.0133 -0.0003 0.0037 -0.0009
O3 0.0185(8) 0.0206(8) 0.0153(7) 0.0022(6) -0.0004(6) -0.0032(6)
O4 0.0169(8) 0.0177(8) 0.0167(7) 0.0010(6) 0.0026(6) -0.0035(6)
O5 0.0217 0.0179 0.0129 0.0007 0.001 -0.0037
O6 0.0214 0.0189 0.0118 0.0002 0.002 -0.0053
O7 0.0217(8) 0.0136(7) 0.0156(7) 0.0011(6) 0.0056(6) -0.0008(6)
O8 0.0208(8) 0.0134(7) 0.0162(7) 0.0004(6) 0.0051(6) -0.0005(6)
Rh1 0.01477(8) 0.01177(8) 0.01007(8) 0.00115(6) 0.00312(6) -0.00150(6)
Rh2 0.01737(9) 0.01156(8) 0.00924(8) 0.00111(6) 0.00321(6) -0.00183(6)
O1A 0.0215(8) 0.0137(7) 0.0133(7) 0.0004(6) 0.0038(6) -0.0002(6)
O3A 0.0185 0.0206 0.0153 0.0022 -0.0004 -0.0032
O5A 0.0217(8) 0.0179(8) 0.0129(7) 0.0007(6) 0.0010(6) -0.0037(6)
O7A 0.0217 0.0136 0.0156 0.0011 0.0056 -0.0008
Rh1A 0.01477 0.01177 0.01007 0.00115 0.00312 -0.0015
Rh2A 0.01737 0.01156 0.00924 0.00111 0.00321 -0.00183
loop_
_geom_bond_atom_site_label_1
_geom_bond_atom_site_label_2
_geom_bond_site_symmetry_1
_geom_bond_site_symmetry_2
C1 C2 1_555 1_555
C2 C3 1_555 1_555
C3 H1 1_555 1_555
C4 C3 1_555 1_555
H2 C4 1_555 1_555
C5 C4 1_555 1_555
H3 C5 1_555 1_555
C6 C5 1_555 1_555
H4 C6 1_555 1_555
C7 C2 1_555 1_555
H5 C7 1_555 1_555
C8 C9 1_555 1_555
C9 C10 1_555 1_555
C10 H6 1_555 1_555
C11 C10 1_555 1_555
H7 C11 1_555 1_555
C12 C11 1_555 1_555
H8 C12 1_555 1_555
C13 C12 1_555 1_555
H9 C13 1_555 1_555
C14 C9 1_555 1_555
H10 C14 1_555 1_555
C15 C16 1_555 1_555
C16 C17 1_555 1_555
C17 H11 1_555 1_555
C18 C17 1_555 1_555
H12 C18 1_555 1_555
C19 C18 1_555 1_555
H13 C19 1_555 1_555
C20 C19 1_555 1_555
H14 C20 1_555 1_555
C21 C16 1_555 1_555
H15 C21 1_555 1_555
C22 C23 1_555 1_555
C23 C24 1_555 1_555
C24 H16 1_555 1_555
C25 C24 1_555 1_555
H17 C25 1_555 1_555
C26 C25 1_555 1_555
H18 C26 1_555 1_555
C27 C26 1_555 1_555
H19 C27 1_555 1_555
C28 C23 1_555 1_555
H20 C28 1_555 1_555
C29 H21 1_555 1_555
C30 C29 1_555 1_555
H22 C30 1_555 1_555
C31 C32 1_555 1_555
C32 C34 1_555 1_555
C33 C31 1_555 1_555
H23 C33 1_555 1_555
H24 C33 1_555 1_555
H25 C33 1_555 1_555
C34 H26 1_555 1_555
H27 C34 1_555 1_555
H28 C34 1_555 1_555
N1 C29 1_555 1_555
N2 C30 1_555 1_555
O1 C1 1_555 1_555
O2 C1 1_555 1_555
O3 C8 1_555 1_555
O4 C8 1_555 1_555
O5 C15 1_555 1_555
O6 C15 1_555 1_555
O7 C22 1_555 1_555
O8 C22 1_555 1_555
Rh1 N1 1_555 1_555
Rh2 N2 1_555 1_555
O1A Rh1 1_555 1_555
O3A Rh1 1_555 1_555
O5A Rh2 1_555 1_555
O7A Rh2 1_555 1_555
Rh1A O1 1_555 1_555
Rh2A O5 1_555 1_555
C6 C7 1_555 1_555
C13 C14 1_555 1_555
C20 C21 1_555 1_555
C27 C28 1_555 1_555
C31 N2 1_555 1_555
C32 N1 1_555 1_555
O2 Rh1 1_555 1_555
O3 Rh1A 1_555 1_555
O4 Rh1 1_555 1_555
O6 Rh2 1_555 1_555
O7 Rh2A 1_555 1_555
O8 Rh2 1_555 1_555
Rh1 Rh1A 1_555 1_555
Rh2 Rh2A 1_555 1_555

#END
