
#######################################################################
#
#                 Cambridge Crystallographic Data Centre
#                                CCDC 
#
#######################################################################
#
# If this CIF has been generated from an entry in the Cambridge 
# Structural Database, then it will include bibliographic, chemical, 
# crystal, experimental, refinement or atomic coordinate data resulting 
# from the CCDC's data processing and validation procedures.
#
#######################################################################

data_ACAJIZ
_chemical_formula_moiety         '(C22 H24 Cu2 N2 O8)n,n(C2 H3 N1)'
_chemical_name_systematic        
'catena-[bis(\m~4~-Glutarato)-(\m~2~-1,2-bis(4-pyridyl)ethane)-copper acetonitrile solvate]'
_symmetry_cell_setting           monoclinic
_symmetry_space_group_name_H-M   'C 2/c'
_symmetry_Int_Tables_number      15
_space_group_name_Hall           '-C 2yc'
loop_
_symmetry_equiv_pos_site_id
_symmetry_equiv_pos_as_xyz
1 x,y,z
2 -x,y,1/2-z
3 1/2+x,1/2+y,z
4 1/2-x,1/2+y,1/2-z
5 -x,-y,-z
6 x,-y,1/2+z
7 1/2-x,1/2-y,-z
8 1/2+x,1/2-y,1/2+z
_cell_length_a                   25.667(5)
_cell_length_b                   13.076(3)
_cell_length_c                   8.7250(17)
_cell_angle_alpha                90
_cell_angle_beta                 95.07(3)
_cell_angle_gamma                90
_cell_volume                     2916.84
_exptl_crystal_colour            blue
_exptl_crystal_description       block
_cell_formula_units_Z            4
loop_
_atom_site_label
_atom_site_type_symbol
_atom_site_fract_x
_atom_site_fract_y
_atom_site_fract_z
Cu1 Cu 0.292642(16) 0.29674(3) 0.06182(4)
O1 O 0.25179(11) 0.29209(19) 0.2432(3)
O2 O 0.17892(11) 0.2172(2) 0.1401(3)
O3 O 0.18381(10) 0.65509(18) 0.3921(3)
O4 O 0.25549(11) 0.57623(18) 0.4932(3)
N1 N 0.35746(11) 0.3660(2) 0.2035(3)
C1 C 0.20543(15) 0.2625(2) 0.2483(4)
C2 C 0.17914(16) 0.2847(3) 0.3943(4)
H1 H 0.1859 0.2285 0.4659
H2 H 0.1416 0.2889 0.3692
C3 C 0.19838(16) 0.3843(3) 0.4719(4)
H3 H 0.1812 0.3939 0.5655
H4 H 0.2357 0.3795 0.4999
C4 C 0.18730(17) 0.4762(3) 0.3670(4)
H5 H 0.2001 0.4609 0.2681
H6 H 0.1497 0.4847 0.3501
C5 C 0.21093(14) 0.5772(3) 0.4237(4)
C6 C 0.39522(17) 0.3088(3) 0.2712(5)
H7 H 0.3961 0.2399 0.2454
C7 C 0.43319(16) 0.3458(3) 0.3778(5)
H8 H 0.4593 0.3023 0.4201
C8 C 0.43277(15) 0.4461(3) 0.4219(4)
C9 C 0.39278(16) 0.5066(3) 0.3509(5)
H9 H 0.3908 0.5756 0.3757
C10 C 0.35666(15) 0.4647(3) 0.2455(5)
H10 H 0.3302 0.5065 0.2005
C11 C 0.47480(16) 0.4897(4) 0.5354(5)
H11 H 0.4623 0.5530 0.5770
H12 H 0.4815 0.4421 0.6201
Cu1F Cu 0.207358(16) 0.20326(3) -0.06182(4)
Cu1C Cu 0.207358(16) 0.79674(3) 0.43818(4)
Cu1E Cu 0.292642(16) 0.70326(3) 0.56182(4)
Cu1D Cu 0.707358(16) 0.70326(3) 0.93818(4)
Cu1E_2 Cu 0.292642(16) -0.29674(3) -0.43818(4)
Cu1C_2 Cu 0.207358(16) -0.20326(3) -0.56182(4)
O1F O 0.24821(11) 0.20791(19) -0.2432(3)
O2F O 0.32108(11) 0.2828(2) -0.1401(3)
O3F O 0.31619(10) -0.15509(18) -0.3921(3)
O3C O 0.31619(10) 0.15509(18) 0.1079(3)
O3E O 0.18381(10) 0.34491(18) -0.1079(3)
O4F O 0.24451(11) -0.07623(18) -0.4932(3)
O4E O 0.25549(11) 0.42377(18) -0.0068(3)
O4C O 0.24451(11) 0.07623(18) 0.0068(3)
N1D N 0.64254(11) 0.6340(2) 0.7965(3)
N1F N 0.14254(11) 0.1340(2) -0.2035(3)
C1F C 0.29457(15) 0.2375(2) -0.2483(4)
C2F C 0.32086(16) 0.2153(3) -0.3943(4)
H1F H 0.3141 0.2715 -0.4659
H2F H 0.3584 0.2111 -0.3692
C3F C 0.30162(16) 0.1157(3) -0.4719(4)
H3F H 0.3188 0.1061 -0.5655
H4F H 0.2643 0.1205 -0.4999
C4F C 0.31270(17) 0.0238(3) -0.3670(4)
H5F H 0.2999 0.0391 -0.2681
H6F H 0.3503 0.0153 -0.3501
C5F C 0.28907(14) -0.0772(3) -0.4237(4)
C6D C 0.60478(17) 0.6912(3) 0.7288(5)
H7D H 0.6039 0.7601 0.7546
C7D C 0.56681(16) 0.6542(3) 0.6222(5)
H8D H 0.5407 0.6977 0.5799
C8D C 0.56723(15) 0.5539(3) 0.5781(4)
C9D C 0.60722(16) 0.4934(3) 0.6491(5)
H9D H 0.6092 0.4244 0.6243
C10D C 0.64334(15) 0.5353(3) 0.7545(5)
H10D H 0.6698 0.4935 0.7995
C11D C 0.52520(16) 0.5103(4) 0.4646(5)
H11D H 0.5377 0.4470 0.4230
H12D H 0.5185 0.5579 0.3799
C12? C 0.4317(4) 0.1158(8) 0.9396(11)
C13? C 0.4601(7) 0.1920(12) 0.853(2)
C14? C 0.4657(8) 0.1079(19) 1.0849(18)
N2? N 0.4808(9) 0.2489(15) 0.779(3)
N3? N 0.4892(13) 0.089(2) 1.200(2)
loop_
_geom_bond_atom_site_label_1
_geom_bond_atom_site_label_2
_geom_bond_site_symmetry_1
_geom_bond_site_symmetry_2
Cu1 O1 1_555 1_555
O1 C1 1_555 1_555
O2 C1 1_555 1_555
O3 C5 1_555 1_555
O4 C5 1_555 1_555
N1 Cu1 1_555 1_555
C1 C2 1_555 1_555
C2 H1 1_555 1_555
H2 C2 1_555 1_555
C3 C2 1_555 1_555
H3 C3 1_555 1_555
H4 C3 1_555 1_555
C4 C3 1_555 1_555
H5 C4 1_555 1_555
H6 C4 1_555 1_555
C5 C4 1_555 1_555
C6 N1 1_555 1_555
H7 C6 1_555 1_555
C7 C6 1_555 1_555
H8 C7 1_555 1_555
C8 C7 1_555 1_555
C9 C8 1_555 1_555
H9 C9 1_555 1_555
C10 N1 1_555 1_555
H10 C10 1_555 1_555
C11 C8 1_555 1_555
H11 C11 1_555 1_555
H12 C11 1_555 1_555
Cu1F O2 1_555 1_555
Cu1C O3 1_555 1_555
Cu1E O4 1_555 1_555
Cu1D N1D 1_555 1_555
Cu1E_2 O3F 1_555 1_555
Cu1C_2 O4F 1_555 1_555
O1F Cu1F 1_555 1_555
O2F Cu1 1_555 1_555
O3F C5F 1_555 1_555
O3C Cu1 1_555 1_555
O3E Cu1F 1_555 1_555
O4F C5F 1_555 1_555
O4E Cu1 1_555 1_555
O4C Cu1F 1_555 1_555
N1D C6D 1_555 1_555
N1F Cu1F 1_555 1_555
C1F O1F 1_555 1_555
C2F C1F 1_555 1_555
H1F C2F 1_555 1_555
H2F C2F 1_555 1_555
C3F C2F 1_555 1_555
H3F C3F 1_555 1_555
H4F C3F 1_555 1_555
C4F C3F 1_555 1_555
H5F C4F 1_555 1_555
H6F C4F 1_555 1_555
C5F C4F 1_555 1_555
C6D H7D 1_555 1_555
C7D C6D 1_555 1_555
H8D C7D 1_555 1_555
C8D C7D 1_555 1_555
C9D C8D 1_555 1_555
H9D C9D 1_555 1_555
C10D N1D 1_555 1_555
H10D C10D 1_555 1_555
C11D C11 1_555 1_555
H11D C11D 1_555 1_555
H12D C11D 1_555 1_555
C9 C10 1_555 1_555
O2F C1F 1_555 1_555
C8D C11D 1_555 1_555
C9D C10D 1_555 1_555

#END
