
#######################################################################
#
#                 Cambridge Crystallographic Data Centre
#                                CCDC 
#
#######################################################################
#
# If this CIF has been generated from an entry in the Cambridge 
# Structural Database, then it will include bibliographic, chemical, 
# crystal, experimental, refinement or atomic coordinate data resulting 
# from the CCDC's data processing and validation procedures.
#
#######################################################################

data_ACAJOF
_chemical_formula_moiety         '(C23 H26 Cu2 N2 O8)n,n(C3 H6 O1)'
_chemical_name_systematic        
'catena-[bis(\m~4~-Glutarato)-(\m~3~-1,3-bis(4-pyridyl)propane)-copper acetone solvate]'
_symmetry_cell_setting           orthorhombic
_symmetry_space_group_name_H-M   'P c c n'
_symmetry_Int_Tables_number      56
_space_group_name_Hall           '-P 2ab 2ac'
loop_
_symmetry_equiv_pos_site_id
_symmetry_equiv_pos_as_xyz
1 x,y,z
2 1/2-x,1/2-y,z
3 -x,1/2+y,1/2-z
4 1/2+x,-y,1/2-z
5 -x,-y,-z
6 1/2+x,1/2+y,-z
7 x,1/2-y,1/2+z
8 1/2-x,y,1/2+z
_cell_length_a                   13.042(3)
_cell_length_b                   28.201(6)
_cell_length_c                   8.6770(17)
_cell_angle_alpha                90
_cell_angle_beta                 90
_cell_angle_gamma                90
_cell_volume                     3191.38
_exptl_crystal_colour            blue
_exptl_crystal_description       plate
_cell_formula_units_Z            4
loop_
_atom_site_label
_atom_site_type_symbol
_atom_site_fract_x
_atom_site_fract_y
_atom_site_fract_z
Cu1 Cu 0.04656(3) 0.538769(15) 0.05074(5)
O1 O 0.17531(18) 0.50574(10) -0.0058(3)
O2 O 0.09599(19) 0.44026(10) -0.0849(3)
O3 O 0.45968(19) 0.50076(10) -0.2577(3)
O4 O 0.5360(2) 0.43513(10) -0.3399(3)
N1 N 0.1097(2) 0.59747(10) 0.1822(4)
C1 C 0.1748(3) 0.46516(13) -0.0620(4)
C2 C 0.2756(3) 0.44378(15) -0.1141(5)
H1 H 0.2670 0.4097 -0.1216
H2 H 0.2906 0.4555 -0.2168
C3 C 0.3672(3) 0.45370(15) -0.0125(5)
H3 H 0.3576 0.4382 0.0862
H4 H 0.3721 0.4876 0.0058
C4 C 0.4681(3) 0.43603(16) -0.0861(5)
H5 H 0.5245 0.4426 -0.0164
H6 H 0.4642 0.4019 -0.0999
C5 C 0.4896(3) 0.45900(14) -0.2394(4)
C6 C 0.2039(3) 0.59660(14) 0.2425(5)
H7 H 0.2470 0.5717 0.2151
C7 C 0.2411(3) 0.63044(14) 0.3433(5)
H8 H 0.3075 0.6281 0.3816
C8 C 0.1791(3) 0.66750(13) 0.3861(4)
C9 C 0.0804(3) 0.66883(14) 0.3254(6)
H9 H 0.0357 0.6932 0.3519
C10 C 0.0500(3) 0.63370(15) 0.2258(6)
H10 H -0.0162 0.6352 0.1862
C11 C 0.2153(4) 0.70734(14) 0.4893(5)
H11 H 0.2718 0.6963 0.5525
H12 H 0.1599 0.7168 0.5574
C12 C 0.2500 0.7500 0.3945(7)
H13 H 0.3061 0.7402 0.3285
Cu1D Cu -0.04656(3) 0.461231(15) -0.05074(5)
Cu1G Cu 0.45344(3) 0.538769(15) -0.44926(5)
Cu1C Cu 0.54656(3) 0.461231(15) -0.55074(5)
Cu1A Cu 0.45344(3) 0.961231(15) 0.05074(5)
Cu1C_2 Cu -0.45344(3) 0.461231(15) 0.44926(5)
Cu1G_2 Cu -0.54656(3) 0.538769(15) 0.55074(5)
O1D O -0.17531(18) 0.49426(10) 0.0058(3)
O2D O -0.09599(19) 0.55974(10) 0.0849(3)
O3D O -0.45968(19) 0.49924(10) 0.2577(3)
O3G O 0.04032(19) 0.50076(10) 0.2423(3)
O3C O -0.04032(19) 0.49924(10) -0.2423(3)
O4D O -0.5360(2) 0.56487(10) 0.3399(3)
O4C O 0.0360(2) 0.56487(10) -0.1601(3)
O4G O -0.0360(2) 0.43513(10) 0.1601(3)
N1A N 0.3903(2) 0.90253(10) 0.1822(4)
N1D N -0.1097(2) 0.40253(10) -0.1822(4)
C1D C -0.1748(3) 0.53484(13) 0.0620(4)
C2D C -0.2756(3) 0.55622(15) 0.1141(5)
H1D H -0.2670 0.5903 0.1216
H2D H -0.2906 0.5445 0.2168
C3D C -0.3672(3) 0.54630(15) 0.0125(5)
H3D H -0.3576 0.5618 -0.0862
H4D H -0.3721 0.5124 -0.0058
C4D C -0.4681(3) 0.56397(16) 0.0861(5)
H5D H -0.5245 0.5574 0.0164
H6D H -0.4642 0.5981 0.0999
C5D C -0.4896(3) 0.54100(14) 0.2394(4)
C6A C 0.2961(3) 0.90340(14) 0.2425(5)
H7A H 0.2530 0.9283 0.2151
C7A C 0.2589(3) 0.86956(14) 0.3433(5)
H8A H 0.1925 0.8719 0.3816
C8A C 0.3209(3) 0.83250(13) 0.3861(4)
C9A C 0.4196(3) 0.83117(14) 0.3254(6)
H9A H 0.4643 0.8068 0.3519
C10A C 0.4500(3) 0.86630(15) 0.2258(6)
H10A H 0.5162 0.8648 0.1862
C11A C 0.2847(4) 0.79266(14) 0.4893(5)
H11A H 0.2282 0.8037 0.5525
H12A H 0.3401 0.7832 0.5574
H13A H 0.1939 0.7598 0.3285
O5 O 0.9082(12) 0.7314(6) 1.0186(19)
C13 C 0.8923(10) 0.7021(5) 0.9222(15)
C14 C 0.9642(11) 0.6906(6) 0.820(2)
H14 H 1.0281 0.7048 0.8493
H15 H 0.9445 0.7019 0.7199
H16 H 0.9718 0.6567 0.8171
C15 C 0.7968(15) 0.6798(7) 0.917(2)
H17 H 0.7530 0.6930 0.9949
H18 H 0.8053 0.6465 0.9352
H19 H 0.7665 0.6846 0.8174
loop_
_geom_bond_atom_site_label_1
_geom_bond_atom_site_label_2
_geom_bond_site_symmetry_1
_geom_bond_site_symmetry_2
Cu1 O1 1_555 1_555
O1 C1 1_555 1_555
O2 C1 1_555 1_555
O3 C5 1_555 1_555
O4 C5 1_555 1_555
N1 Cu1 1_555 1_555
C1 C2 1_555 1_555
C2 H1 1_555 1_555
H2 C2 1_555 1_555
C3 C2 1_555 1_555
H3 C3 1_555 1_555
H4 C3 1_555 1_555
C4 C3 1_555 1_555
H5 C4 1_555 1_555
H6 C4 1_555 1_555
C5 C4 1_555 1_555
C6 N1 1_555 1_555
H7 C6 1_555 1_555
C7 C6 1_555 1_555
H8 C7 1_555 1_555
C8 C7 1_555 1_555
C9 C8 1_555 1_555
H9 C9 1_555 1_555
C10 N1 1_555 1_555
H10 C10 1_555 1_555
C11 C8 1_555 1_555
H11 C11 1_555 1_555
H12 C11 1_555 1_555
C12 C11 1_555 1_555
H13 C12 1_555 1_555
O5 C13 1_555 1_555
C13 C14 1_555 1_555
C14 H14 1_555 1_555
H15 C14 1_555 1_555
H16 C14 1_555 1_555
C15 C13 1_555 1_555
H17 C15 1_555 1_555
H18 C15 1_555 1_555
H19 C15 1_555 1_555
Cu1D O2 1_555 1_555
Cu1G O3 1_555 1_555
Cu1C O4 1_555 1_555
Cu1A N1A 1_555 1_555
Cu1C_2 O3D 1_555 1_555
Cu1G_2 O4D 1_555 1_555
O1D Cu1D 1_555 1_555
O2D Cu1 1_555 1_555
O3D C5D 1_555 1_555
O3G Cu1 1_555 1_555
O3C Cu1D 1_555 1_555
O4D C5D 1_555 1_555
O4C Cu1 1_555 1_555
O4G Cu1D 1_555 1_555
N1A C6A 1_555 1_555
N1D Cu1D 1_555 1_555
C1D O1D 1_555 1_555
C2D C1D 1_555 1_555
H1D C2D 1_555 1_555
H2D C2D 1_555 1_555
C3D C2D 1_555 1_555
H3D C3D 1_555 1_555
H4D C3D 1_555 1_555
C4D C3D 1_555 1_555
H5D C4D 1_555 1_555
H6D C4D 1_555 1_555
C5D C4D 1_555 1_555
C6A H7A 1_555 1_555
C7A C6A 1_555 1_555
H8A C7A 1_555 1_555
C8A C7A 1_555 1_555
C9A C8A 1_555 1_555
H9A C9A 1_555 1_555
C10A N1A 1_555 1_555
H10A C10A 1_555 1_555
C11A C12 1_555 1_555
H11A C11A 1_555 1_555
H12A C11A 1_555 1_555
H13A C12 1_555 1_555
C9 C10 1_555 1_555
O2D C1D 1_555 1_555
C8A C11A 1_555 1_555
C9A C10A 1_555 1_555

#END
