
#######################################################################
#
#                 Cambridge Crystallographic Data Centre
#                                CCDC 
#
#######################################################################
#
# If this CIF has been generated from an entry in the Cambridge 
# Structural Database, then it will include bibliographic, chemical, 
# crystal, experimental, refinement or atomic coordinate data resulting 
# from the CCDC's data processing and validation procedures.
#
#######################################################################

data_EMUNIL
_chemical_formula_moiety         '(C18 H18 Co2 N4 O12)n'
_chemical_name_systematic        
catena-[bis(\m-pyrazine-2-carboxylato)-(\m-terephthalato)-tetraaqua-di-cobalt]
_symmetry_cell_setting           orthorhombic
_symmetry_space_group_name_H-M   'P b c a'
_symmetry_Int_Tables_number      61
_space_group_name_Hall           '-P 2ac 2ab'
loop_
_symmetry_equiv_pos_site_id
_symmetry_equiv_pos_as_xyz
1 x,y,z
2 1/2+x,1/2-y,-z
3 -x,1/2+y,1/2-z
4 1/2-x,-y,1/2+z
5 -x,-y,-z
6 1/2-x,1/2+y,z
7 x,1/2-y,1/2+z
8 1/2+x,y,1/2-z
_cell_length_a                   11.8920(15)
_cell_length_b                   11.1027(14)
_cell_length_c                   15.673(2)
_cell_angle_alpha                90
_cell_angle_beta                 90
_cell_angle_gamma                90
_cell_volume                     2069.36
_exptl_crystal_colour            red
_exptl_crystal_description       Block
_cell_formula_units_Z            4
loop_
_atom_site_label
_atom_site_type_symbol
_atom_site_fract_x
_atom_site_fract_y
_atom_site_fract_z
_atom_site_U_iso_or_equiv
_atom_site_thermal_displace_type
C1 C 0.82694(15) 0.22472(16) 0.50853(11) 0.0141 Uani
C2 C 0.80307(15) 0.30049(16) 0.58677(11) 0.0134 Uani
C3 C 0.74141(16) 0.40618(16) 0.58295(11) 0.0157 Uani
H1 H 0.7146 0.4338 0.5293 0.0190 Uiso
C4 C 0.76221(17) 0.43039(17) 0.72664(12) 0.0177 Uani
H2 H 0.7511 0.4760 0.7772 0.0210 Uiso
C5 C 0.82347(16) 0.32359(17) 0.73100(11) 0.0167 Uani
H3 H 0.8521 0.2971 0.7844 0.0200 Uiso
O1 O 1.08996(13) 0.17997(15) 0.65203(9) 0.0265 Uani
C6 C 1.00070(16) 0.11483(16) 0.83344(11) 0.0144 Uani
C7 C 0.99957(15) 0.05605(16) 0.92022(11) 0.0135 Uani
C8 C 0.94212(16) -0.05222(17) 0.93257(12) 0.0171 Uani
H4 H 0.9023 -0.0880 0.8866 0.0210 Uiso
C9 C 1.05691(16) 0.10775(16) 0.98785(12) 0.0167 Uani
H5 H 1.0958 0.1816 0.9799 0.0200 Uiso
Co1 Co 0.93011(2) 0.09076(2) 0.649233(15) 0.0124 Uani
N1 N 0.84250(13) 0.25799(14) 0.66108(9) 0.0140 Uani
N2 N 0.71880(14) 0.47041(14) 0.65357(9) 0.0161 Uani
O2 O 0.78841(12) 0.25492(12) 0.43905(8) 0.0196 Uani
O3 O 0.88828(12) 0.13203(12) 0.52331(8) 0.0169 Uani
O4 O 0.94171(12) 0.06374(13) 0.77664(8) 0.0180 Uani
O5 O 1.05935(12) 0.20759(12) 0.82218(9) 0.0193 Uani
O6 O 1.01151(13) -0.06729(12) 0.62049(9) 0.0217 Uani
H6 H 0.9712 -0.1259 0.6350 0.0330 Uiso
C6D C 0.99930(16) -0.11483(16) 1.16656(11) 0.0144 Uani
C7D C 1.00043(15) -0.05605(16) 1.07978(11) 0.0135 Uani
C8D C 1.05788(16) 0.05222(17) 1.06743(12) 0.0171 Uani
H4D H 1.0977 0.0880 1.1134 0.0210 Uiso
C9D C 0.94309(16) -0.10775(16) 1.01215(12) 0.0167 Uani
H5D H 0.9042 -0.1816 1.0201 0.0200 Uiso
O4D O 1.05829(12) -0.06374(13) 1.22336(8) 0.0180 Uani
O5D O 0.94065(12) -0.20759(12) 1.17782(9) 0.0193 Uani
C1D C 1.17306(15) -0.22472(16) 1.49147(11) 0.0141 Uani
C2D C 1.19693(15) -0.30049(16) 1.41323(11) 0.0134 Uani
C3D C 1.25859(16) -0.40618(16) 1.41705(11) 0.0157 Uani
H1D H 1.2854 -0.4338 1.4707 0.0190 Uiso
C4D C 1.23779(17) -0.43039(17) 1.27336(12) 0.0177 Uani
H2D H 1.2489 -0.4760 1.2228 0.0210 Uiso
C5D C 1.17653(16) -0.32359(17) 1.26900(11) 0.0167 Uani
H3D H 1.1479 -0.2971 1.2156 0.0200 Uiso
O1D O 0.91004(13) -0.17997(15) 1.34797(9) 0.0265 Uani
Co1D Co 1.06989(2) -0.09076(2) 1.350767(15) 0.0124 Uani
N1D N 1.15750(13) -0.25799(14) 1.33892(9) 0.0140 Uani
N2D N 1.28120(14) -0.47041(14) 1.34643(9) 0.0161 Uani
O2D O 1.21159(12) -0.25492(12) 1.56095(8) 0.0196 Uani
O3D O 1.11172(12) -0.13203(12) 1.47669(8) 0.0169 Uani
O6D O 0.98849(13) 0.06729(12) 1.37951(9) 0.0217 Uani
H6D H 1.0288 0.1259 1.3650 0.0330 Uiso
Co1A Co 1.43011(2) -0.59076(2) 1.350767(15) 0.0124 Uani
Co1E Co 0.56989(2) 0.59076(2) 0.649233(15) 0.0124 Uani
N2A N 1.21880(14) 0.02959(14) 1.34643(9) 0.0161 Uani
N2E N 0.78120(14) -0.02959(14) 0.65357(9) 0.0161 Uani
loop_
_atom_site_aniso_label
_atom_site_aniso_U_11
_atom_site_aniso_U_22
_atom_site_aniso_U_33
_atom_site_aniso_U_23
_atom_site_aniso_U_13
_atom_site_aniso_U_12
C1 0.0123(8) 0.0142(8) 0.0158(7) -0.0003(6) 0.0019(7) -0.0017(6)
C2 0.0114(8) 0.0136(8) 0.0152(8) 0.0000(6) 0.0012(6) -0.0006(6)
C3 0.0161(9) 0.0148(8) 0.0161(8) 0.0010(6) -0.0005(7) 0.0018(6)
C4 0.0170(9) 0.0178(9) 0.0184(8) -0.0033(7) -0.0012(7) 0.0017(7)
C5 0.0167(9) 0.0179(9) 0.0155(8) -0.0007(7) -0.0026(7) 0.0027(7)
O1 0.0223(8) 0.0349(9) 0.0222(7) -0.0005(6) 0.0018(6) -0.0125(6)
C6 0.0142(9) 0.0138(8) 0.0151(7) 0.0001(6) 0.0009(7) 0.0020(6)
C7 0.0139(8) 0.0128(8) 0.0138(7) 0.0016(6) -0.0009(6) 0.0016(6)
C8 0.0210(9) 0.0145(8) 0.0159(8) -0.0009(7) -0.0043(7) -0.0032(7)
C9 0.0186(9) 0.0138(8) 0.0177(8) 0.0016(7) -0.0023(7) -0.0039(7)
Co1 0.01410(15) 0.01062(14) 0.01262(13) 0.00024(8) -0.00022(9) 0.00092(8)
N1 0.0125(7) 0.0138(7) 0.0158(7) -0.0006(5) -0.0004(6) 0.0004(6)
N2 0.0161(8) 0.0134(7) 0.0189(7) -0.0009(6) 0.0009(6) 0.0011(6)
O2 0.0199(7) 0.0234(7) 0.0154(6) 0.0004(5) -0.0016(5) 0.0048(5)
O3 0.0217(7) 0.0140(6) 0.0149(6) 0.0001(5) 0.0012(5) 0.0046(5)
O4 0.0210(7) 0.0188(6) 0.0141(6) 0.0016(5) -0.0027(5) -0.0039(5)
O5 0.0251(8) 0.0148(6) 0.0181(6) 0.0019(5) -0.0001(5) -0.0048(5)
O6 0.0265(8) 0.0134(6) 0.0253(7) 0.0012(5) 0.0075(6) 0.0048(5)
C6D 0.0142 0.0138 0.0151 0.0001 0.0009 0.002
C7D 0.0139 0.0128 0.0138 0.0016 -0.0009 0.0016
C8D 0.021 0.0145 0.0159 -0.0009 -0.0043 -0.0032
C9D 0.0186 0.0138 0.0177 0.0016 -0.0023 -0.0039
O4D 0.021 0.0188 0.0141 0.0016 -0.0027 -0.0039
O5D 0.0251 0.0148 0.0181 0.0019 -0.0001 -0.0048
C1D 0.0123 0.0142 0.0158 -0.0003 0.0019 -0.0017
C2D 0.0114 0.0136 0.0152 0 0.0012 -0.0006
C3D 0.0161 0.0148 0.0161 0.001 -0.0005 0.0018
C4D 0.017 0.0178 0.0184 -0.0033 -0.0012 0.0017
C5D 0.0167 0.0179 0.0155 -0.0007 -0.0026 0.0027
O1D 0.0223 0.0349 0.0222 -0.0005 0.0018 -0.0125
Co1D 0.0141 0.01062 0.01262 0.00024 -0.00022 0.00092
N1D 0.0125 0.0138 0.0158 -0.0006 -0.0004 0.0004
N2D 0.0161 0.0134 0.0189 -0.0009 0.0009 0.0011
O2D 0.0199 0.0234 0.0154 0.0004 -0.0016 0.0048
O3D 0.0217 0.014 0.0149 0.0001 0.0012 0.0046
O6D 0.0265 0.0134 0.0253 0.0012 0.0075 0.0048
Co1A 0.0141 0.01062 0.01262 0.00024 0.00022 -0.00092
Co1E 0.0141 0.01062 0.01262 0.00024 0.00022 -0.00092
N2A 0.0161 0.0134 0.0189 -0.0009 -0.0009 -0.0011
N2E 0.0161 0.0134 0.0189 -0.0009 -0.0009 -0.0011
loop_
_geom_bond_atom_site_label_1
_geom_bond_atom_site_label_2
_geom_bond_site_symmetry_1
_geom_bond_site_symmetry_2
C1 C2 1_555 1_555
C2 C3 1_555 1_555
C3 H1 1_555 1_555
C4 H2 1_555 1_555
C5 C4 1_555 1_555
H3 C5 1_555 1_555
O1 Co1 1_555 1_555
C6 C7 1_555 1_555
C7 C8 1_555 1_555
C8 H4 1_555 1_555
C9 C7 1_555 1_555
H5 C9 1_555 1_555
Co1 N1 1_555 1_555
N1 C2 1_555 1_555
N2 C3 1_555 1_555
O2 C1 1_555 1_555
O3 C1 1_555 1_555
O4 C6 1_555 1_555
O5 C6 1_555 1_555
O6 Co1 1_555 1_555
H6 O6 1_555 1_555
C6D C7D 1_555 1_555
C7D C8D 1_555 1_555
C8D C9 1_555 1_555
H4D C8D 1_555 1_555
C9D C8 1_555 1_555
H5D C9D 1_555 1_555
O4D C6D 1_555 1_555
O5D C6D 1_555 1_555
C1D C2D 1_555 1_555
C2D C3D 1_555 1_555
C3D H1D 1_555 1_555
C4D H2D 1_555 1_555
C5D C4D 1_555 1_555
H3D C5D 1_555 1_555
O1D Co1D 1_555 1_555
Co1D O4D 1_555 1_555
N1D C2D 1_555 1_555
N2D C3D 1_555 1_555
O2D C1D 1_555 1_555
O3D C1D 1_555 1_555
O6D Co1D 1_555 1_555
H6D O6D 1_555 1_555
Co1A N2D 1_555 1_555
Co1E N2 1_555 1_555
N2A Co1D 1_555 1_555
N2E Co1 1_555 1_555
C4 N2 1_555 1_555
C5 N1 1_555 1_555
Co1 O3 1_555 1_555
Co1 O4 1_555 1_555
C7D C9D 1_555 1_555
C4D N2D 1_555 1_555
C5D N1D 1_555 1_555
Co1D N1D 1_555 1_555
Co1D O3D 1_555 1_555

#END
