
#######################################################################
#
#                 Cambridge Crystallographic Data Centre
#                                CCDC 
#
#######################################################################
#
# If this CIF has been generated from an entry in the Cambridge 
# Structural Database, then it will include bibliographic, chemical, 
# crystal, experimental, refinement or atomic coordinate data resulting 
# from the CCDC's data processing and validation procedures.
#
#######################################################################

data_MUZKEZ
_chemical_formula_moiety         '(C138 H90 Al6 O32 2+)n,2n(Cl1 1-)'
_chemical_name_systematic        
"catena-[tris(\m-1,4-bis(4,4''-dicarboxylato-1,1':3',1''-terphenyl-5'-yl)benzene)-bis(\m-oxo)-hexaaqua-hexa-aluminium dichloride]"
_symmetry_cell_setting           cubic
_symmetry_space_group_name_H-M   'P m -3 n'
_symmetry_Int_Tables_number      223
_space_group_name_Hall           '-P 4n 2 3'
loop_
_symmetry_equiv_pos_site_id
_symmetry_equiv_pos_as_xyz
1 x,y,z
2 -x,-y,z
3 -x,y,-z
4 x,-y,-z
5 z,x,y
6 z,-x,-y
7 -z,-x,y
8 -z,x,-y
9 y,z,x
10 -y,z,-x
11 y,-z,-x
12 -y,-z,x
13 1/2+y,1/2+x,1/2-z
14 1/2-y,1/2-x,1/2-z
15 1/2+y,1/2-x,1/2+z
16 1/2-y,1/2+x,1/2+z
17 1/2+x,1/2+z,1/2-y
18 1/2-x,1/2+z,1/2+y
19 1/2-x,1/2-z,1/2-y
20 1/2+x,1/2-z,1/2+y
21 1/2+z,1/2+y,1/2-x
22 1/2+z,1/2-y,1/2+x
23 1/2-z,1/2+y,1/2+x
24 1/2-z,1/2-y,1/2-x
25 -x,-y,-z
26 x,y,-z
27 x,-y,z
28 -x,y,z
29 -z,-x,-y
30 -z,x,y
31 z,x,-y
32 z,-x,y
33 -y,-z,-x
34 y,-z,x
35 -y,z,x
36 y,z,-x
37 1/2-y,1/2-x,1/2+z
38 1/2+y,1/2+x,1/2+z
39 1/2-y,1/2+x,1/2-z
40 1/2+y,1/2-x,1/2-z
41 1/2-x,1/2-z,1/2+y
42 1/2+x,1/2-z,1/2-y
43 1/2+x,1/2+z,1/2+y
44 1/2-x,1/2+z,1/2-y
45 1/2-z,1/2-y,1/2+x
46 1/2-z,1/2+y,1/2-x
47 1/2+z,1/2-y,1/2-x
48 1/2+z,1/2+y,1/2+x
_cell_length_a                   35.9340(8)
_cell_length_b                   35.9340(8)
_cell_length_c                   35.9340(8)
_cell_angle_alpha                90
_cell_angle_beta                 90
_cell_angle_gamma                90
_cell_volume                     46399.9
_exptl_crystal_colour            yellow
_exptl_crystal_description       cube
_cell_formula_units_Z            4
loop_
_atom_site_label
_atom_site_type_symbol
_atom_site_fract_x
_atom_site_fract_y
_atom_site_fract_z
Cl1 Cl 0.2086(4) 0.3208(4) 0.1112(4)
Al1 Al 0.2500 0.28607(2) 0.21393(2)
O1 O 0.2500 0.2500 0.2500
O2 O 0.2500 0.32423(5) 0.17577(5)
H1 H 0.2541 0.3445 0.1853
O3 O 0.30226(6) 0.29288(5) 0.21259(5)
O4 O 0.32664(5) 0.24805(5) 0.24854(5)
C1 C 0.32856(7) 0.27876(8) 0.23172(8)
C2 C 0.36394(7) 0.29979(8) 0.23388(10)
C3 C 0.39411(9) 0.28566(9) 0.25262(12)
H2 H 0.3923 0.2624 0.2639
C4 C 0.36697(9) 0.33450(9) 0.21663(12)
H3 H 0.3468 0.3444 0.2039
C5 C 0.42707(9) 0.30531(9) 0.25503(14)
H4 H 0.4470 0.2955 0.2683
C6 C 0.40001(9) 0.35408(10) 0.21856(14)
H5 H 0.4018 0.3771 0.2070
C7 C 0.43067(8) 0.33999(9) 0.23752(14)
C8 C 0.46612(9) 0.36106(9) 0.23975(15)
C9 C 0.46655(9) 0.39955(10) 0.24043(16)
H6 H 0.4440 0.4123 0.2412
C10 C 0.5000 0.34185(13) 0.2389(2)
H7 H 0.5000 0.3160 0.2378
C11 C 0.5000 0.42007(13) 0.2400(2)
C12 C 0.5000 0.45999(12) 0.2411(2)
C13 C 0.5259(2) 0.4793(2) 0.2228(2)
H8 H 0.5461 0.4660 0.2102
H1R H 0.2459 0.3147 0.1555
O3Z O 0.30226(6) 0.70712(5) 0.21259(5)
O4Z O 0.32664(5) 0.75195(5) 0.24854(5)
C1Z C 0.32856(7) 0.72124(8) 0.23172(8)
C2Z C 0.36394(7) 0.70021(8) 0.23388(10)
C3Z C 0.39411(9) 0.71434(9) 0.25262(12)
H2Z H 0.3923 0.7376 0.2639
C4Z C 0.36697(9) 0.66550(9) 0.21663(12)
H3Z H 0.3468 0.6556 0.2039
C5Z C 0.42707(9) 0.69469(9) 0.25503(14)
H4Z H 0.4470 0.7045 0.2683
C6Z C 0.40001(9) 0.64592(10) 0.21856(14)
H5Z H 0.4018 0.6229 0.2070
C7Z C 0.43067(8) 0.66001(9) 0.23752(14)
C8Z C 0.46612(9) 0.63894(9) 0.23975(15)
C9Z C 0.46655(9) 0.60045(10) 0.24043(16)
H6Z H 0.4440 0.5877 0.2412
C10A C 0.5000 0.65815(13) 0.2389(2)
H7A H 0.5000 0.6840 0.2378
C11A C 0.5000 0.57993(13) 0.2400(2)
C12A C 0.5000 0.54001(12) 0.2411(2)
C13Z C 0.5259(2) 0.5207(2) 0.2228(2)
H8Z H 0.5461 0.5340 0.2102
O3AA O 0.69774(6) 0.29288(5) 0.21259(5)
O4AA O 0.67336(5) 0.24805(5) 0.24854(5)
C1AA C 0.67144(7) 0.27876(8) 0.23172(8)
C2AA C 0.63606(7) 0.29979(8) 0.23388(10)
C3AA C 0.60589(9) 0.28566(9) 0.25262(12)
H2AA H 0.6077 0.2624 0.2639
C4AA C 0.63303(9) 0.33450(9) 0.21663(12)
H3AA H 0.6532 0.3444 0.2039
C5AA C 0.57293(9) 0.30531(9) 0.25503(14)
H4AA H 0.5530 0.2955 0.2683
C6AA C 0.59999(9) 0.35408(10) 0.21856(14)
H5AA H 0.5982 0.3771 0.2070
C7AA C 0.56933(8) 0.33999(9) 0.23752(14)
C8AA C 0.53388(9) 0.36106(9) 0.23975(15)
C9AA C 0.53345(9) 0.39955(10) 0.24043(16)
H6AA H 0.5560 0.4123 0.2412
C13AA C 0.4741(2) 0.4793(2) 0.2228(2)
H8AA H 0.4539 0.4660 0.2102
O3A O 0.69774(6) 0.70712(5) 0.21259(5)
O4A O 0.67336(5) 0.75195(5) 0.24854(5)
C1A C 0.67144(7) 0.72124(8) 0.23172(8)
C2A C 0.63606(7) 0.70021(8) 0.23388(10)
C3A C 0.60589(9) 0.71434(9) 0.25262(12)
H2A H 0.6077 0.7376 0.2639
C4A C 0.63303(9) 0.66550(9) 0.21663(12)
H3A H 0.6532 0.6556 0.2039
C5A C 0.57293(9) 0.69469(9) 0.25503(14)
H4A H 0.5530 0.7045 0.2683
C6A C 0.59999(9) 0.64592(10) 0.21856(14)
H5A H 0.5982 0.6229 0.2070
C7A C 0.56933(8) 0.66001(9) 0.23752(14)
C8A C 0.53388(9) 0.63894(9) 0.23975(15)
C9A C 0.53345(9) 0.60045(10) 0.24043(16)
H6A H 0.5560 0.5877 0.2412
C13A C 0.4741(2) 0.5207(2) 0.2228(2)
H8A H 0.4539 0.5340 0.2102
Al1D Al 0.21393(2) 0.2500 0.28607(2)
O2D O 0.17577(5) 0.2500 0.32423(5)
H1D H 0.1853 0.2541 0.3445
O3D O 0.21259(5) 0.30226(6) 0.29288(5)
O4D O 0.24854(5) 0.32664(5) 0.24805(5)
C1D C 0.23172(8) 0.32856(7) 0.27876(8)
C2D C 0.23388(10) 0.36394(7) 0.29979(8)
C3D C 0.25262(12) 0.39411(9) 0.28566(9)
H2D H 0.2639 0.3923 0.2624
C4D C 0.21663(12) 0.36697(9) 0.33450(9)
H3D H 0.2039 0.3468 0.3444
C5D C 0.25503(14) 0.42707(9) 0.30531(9)
H4D H 0.2683 0.4470 0.2955
C6D C 0.21856(14) 0.40001(9) 0.35408(10)
H5D H 0.2070 0.4018 0.3771
C7D C 0.23752(14) 0.43067(8) 0.33999(9)
C8D C 0.23975(15) 0.46612(9) 0.36106(9)
C9D C 0.24043(16) 0.46655(9) 0.39955(10)
H6D H 0.2412 0.4440 0.4123
C10D C 0.2389(2) 0.5000 0.34185(13)
H7D H 0.2378 0.5000 0.3160
C11D C 0.2400(2) 0.5000 0.42007(13)
C12D C 0.2411(2) 0.5000 0.45999(12)
C13D C 0.2228(2) 0.5259(2) 0.4793(2)
H8D H 0.2102 0.5461 0.4660
H1M H 0.1555 0.2459 0.3147
O3DA O 0.21259(5) 0.30226(6) 0.70712(5)
O4DA O 0.24854(5) 0.32664(5) 0.75195(5)
C1DA C 0.23172(8) 0.32856(7) 0.72124(8)
C2DA C 0.23388(10) 0.36394(7) 0.70021(8)
C3DA C 0.25262(12) 0.39411(9) 0.71434(9)
H2DA H 0.2639 0.3923 0.7376
C4DA C 0.21663(12) 0.36697(9) 0.66550(9)
H3DA H 0.2039 0.3468 0.6556
C5DA C 0.25503(14) 0.42707(9) 0.69469(9)
H4DA H 0.2683 0.4470 0.7045
C6DA C 0.21856(14) 0.40001(9) 0.64592(10)
H5DA H 0.2070 0.4018 0.6229
C7DA C 0.23752(14) 0.43067(8) 0.66001(9)
C8DA C 0.23975(15) 0.46612(9) 0.63894(9)
C9DA C 0.24043(16) 0.46655(9) 0.60045(10)
H6DA H 0.2412 0.4440 0.5877
C10E C 0.2389(2) 0.5000 0.65815(13)
H7E H 0.2378 0.5000 0.6840
C11E C 0.2400(2) 0.5000 0.57993(13)
C12E C 0.2411(2) 0.5000 0.54001(12)
C13DA C 0.2228(2) 0.5259(2) 0.5207(2)
H8DA H 0.2102 0.5461 0.5340
O3EA O 0.21259(5) 0.69774(6) 0.29288(5)
O4EA O 0.24854(5) 0.67336(5) 0.24805(5)
C1EA C 0.23172(8) 0.67144(7) 0.27876(8)
C2EA C 0.23388(10) 0.63606(7) 0.29979(8)
C3EA C 0.25262(12) 0.60589(9) 0.28566(9)
H2EA H 0.2639 0.6077 0.2624
C4EA C 0.21663(12) 0.63303(9) 0.33450(9)
H3EA H 0.2039 0.6532 0.3444
C5EA C 0.25503(14) 0.57293(9) 0.30531(9)
H4EA H 0.2683 0.5530 0.2955
C6EA C 0.21856(14) 0.59999(9) 0.35408(10)
H5EA H 0.2070 0.5982 0.3771
C7EA C 0.23752(14) 0.56933(8) 0.33999(9)
C8EA C 0.23975(15) 0.53388(9) 0.36106(9)
C9EA C 0.24043(16) 0.53345(9) 0.39955(10)
H6EA H 0.2412 0.5560 0.4123
C13EA C 0.2228(2) 0.4741(2) 0.4793(2)
H8EA H 0.2102 0.4539 0.4660
O3E O 0.21259(5) 0.69774(6) 0.70712(5)
O4E O 0.24854(5) 0.67336(5) 0.75195(5)
C1E C 0.23172(8) 0.67144(7) 0.72124(8)
C2E C 0.23388(10) 0.63606(7) 0.70021(8)
C3E C 0.25262(12) 0.60589(9) 0.71434(9)
H2E H 0.2639 0.6077 0.7376
C4E C 0.21663(12) 0.63303(9) 0.66550(9)
H3E H 0.2039 0.6532 0.6556
C5E C 0.25503(14) 0.57293(9) 0.69469(9)
H4E H 0.2683 0.5530 0.7045
C6E C 0.21856(14) 0.59999(9) 0.64592(10)
H5E H 0.2070 0.5982 0.6229
C7E C 0.23752(14) 0.56933(8) 0.66001(9)
C8E C 0.23975(15) 0.53388(9) 0.63894(9)
C9E C 0.24043(16) 0.53345(9) 0.60045(10)
H6E H 0.2412 0.5560 0.5877
C13E C 0.2228(2) 0.4741(2) 0.5207(2)
H8E H 0.2102 0.4539 0.5340
Al1H Al 0.28607(2) 0.21393(2) 0.2500
O2H O 0.32423(5) 0.17577(5) 0.2500
H1H H 0.3445 0.1853 0.2541
H1W H 0.3147 0.1555 0.2459
Al1Z Al 0.2500 0.71393(2) 0.21393(2)
O2Z O 0.2500 0.67577(5) 0.17577(5)
H1Z H 0.2541 0.6555 0.1853
H1QA H 0.2459 0.6853 0.1555
Al1EA Al 0.21393(2) 0.7500 0.28607(2)
O2EA O 0.17577(5) 0.7500 0.32423(5)
H1EA H 0.1853 0.7459 0.3445
H1LA H 0.1555 0.7541 0.3147
O3R O 0.19774(6) 0.28741(5) 0.20712(5)
O4R O 0.17336(5) 0.25146(5) 0.25195(5)
C1R C 0.17144(7) 0.26828(8) 0.22124(8)
C2R C 0.13606(7) 0.26612(10) 0.20021(8)
C3R C 0.10589(9) 0.24738(12) 0.21434(9)
H2R H 0.1077 0.2361 0.2376
C4R C 0.13303(9) 0.28337(12) 0.16550(9)
H3R H 0.1532 0.2961 0.1556
C5R C 0.07293(9) 0.24497(14) 0.19469(9)
H4R H 0.0530 0.2317 0.2045
C6R C 0.09999(9) 0.28144(14) 0.14592(10)
H5R H 0.0982 0.2930 0.1229
C7R C 0.06933(8) 0.26248(14) 0.16001(9)
C8R C 0.03388(9) 0.26025(15) 0.13894(9)
C9R C 0.03345(9) 0.25957(16) 0.10045(10)
H6R H 0.0560 0.2588 0.0877
C10R C 0.0000 0.2611(2) 0.15815(13)
H7R H 0.0000 0.2622 0.1840
C11R C 0.0000 0.2600(2) 0.07993(13)
C12R C 0.0000 0.2589(2) 0.04001(12)
C13R C -0.0259(2) 0.2772(2) 0.0207(2)
H8R H -0.0461 0.2898 0.0340
O3NA O 0.19774(6) 0.28741(5) -0.20712(5)
O4NA O 0.17336(5) 0.25146(5) -0.25195(5)
C1NA C 0.17144(7) 0.26828(8) -0.22124(8)
C2NA C 0.13606(7) 0.26612(10) -0.20021(8)
C3NA C 0.10589(9) 0.24738(12) -0.21434(9)
H2NA H 0.1077 0.2361 -0.2376
C4NA C 0.13303(9) 0.28337(12) -0.16550(9)
H3NA H 0.1532 0.2961 -0.1556
C5NA C 0.07293(9) 0.24497(14) -0.19469(9)
H4NA H 0.0530 0.2317 -0.2045
C6NA C 0.09999(9) 0.28144(14) -0.14592(10)
H5NA H 0.0982 0.2930 -0.1229
C7NA C 0.06933(8) 0.26248(14) -0.16001(9)
C8NA C 0.03388(9) 0.26025(15) -0.13894(9)
C9NA C 0.03345(9) 0.25957(16) -0.10045(10)
H6NA H 0.0560 0.2588 -0.0877
C10S C 0.0000 0.2611(2) -0.15815(13)
H7S H 0.0000 0.2622 -0.1840
C11S C 0.0000 0.2600(2) -0.07993(13)
C12S C 0.0000 0.2589(2) -0.04001(12)
C13NA C -0.0259(2) 0.2772(2) -0.0207(2)
H8NA H -0.0461 0.2898 -0.0340
O3OA O -0.19774(6) 0.28741(5) 0.20712(5)
O4OA O -0.17336(5) 0.25146(5) 0.25195(5)
C1OA C -0.17144(7) 0.26828(8) 0.22124(8)
C2OA C -0.13606(7) 0.26612(10) 0.20021(8)
C3OA C -0.10589(9) 0.24738(12) 0.21434(9)
H2OA H -0.1077 0.2361 0.2376
C4OA C -0.13303(9) 0.28337(12) 0.16550(9)
H3OA H -0.1532 0.2961 0.1556
C5OA C -0.07293(9) 0.24497(14) 0.19469(9)
H4OA H -0.0530 0.2317 0.2045
C6OA C -0.09999(9) 0.28144(14) 0.14592(10)
H5OA H -0.0982 0.2930 0.1229
C7OA C -0.06933(8) 0.26248(14) 0.16001(9)
C8OA C -0.03388(9) 0.26025(15) 0.13894(9)
C9OA C -0.03345(9) 0.25957(16) 0.10045(10)
H6OA H -0.0560 0.2588 0.0877
C13OA C 0.0259(2) 0.2772(2) 0.0207(2)
H8OA H 0.0461 0.2898 0.0340
O3S O -0.19774(6) 0.28741(5) -0.20712(5)
O4S O -0.17336(5) 0.25146(5) -0.25195(5)
C1S C -0.17144(7) 0.26828(8) -0.22124(8)
C2S C -0.13606(7) 0.26612(10) -0.20021(8)
C3S C -0.10589(9) 0.24738(12) -0.21434(9)
H2S H -0.1077 0.2361 -0.2376
C4S C -0.13303(9) 0.28337(12) -0.16550(9)
H3S H -0.1532 0.2961 -0.1556
C5S C -0.07293(9) 0.24497(14) -0.19469(9)
H4S H -0.0530 0.2317 -0.2045
C6S C -0.09999(9) 0.28144(14) -0.14592(10)
H5S H -0.0982 0.2930 -0.1229
C7S C -0.06933(8) 0.26248(14) -0.16001(9)
C8S C -0.03388(9) 0.26025(15) -0.13894(9)
C9S C -0.03345(9) 0.25957(16) -0.10045(10)
H6S H -0.0560 0.2588 -0.0877
C13S C 0.0259(2) 0.2772(2) -0.0207(2)
H8S H 0.0461 0.2898 -0.0340
Al1AA Al -0.2500 0.28607(2) 0.21393(2)
O2AA O -0.2500 0.32423(5) 0.17577(5)
H1OA H -0.2459 0.3147 0.1555
H1AA H -0.2541 0.3445 0.1853
O1Z O 0.2500 0.7500 0.2500
Al1A Al 0.7500 0.71393(2) 0.21393(2)
Al1B Al -0.2500 0.28607(2) -0.21393(2)
Al1C Al 0.2500 0.71393(2) 0.78607(2)
Al1E Al 0.21393(2) 0.7500 0.71393(2)
Al1G Al -0.21393(2) 0.2500 -0.28607(2)
Al1K Al 0.71393(2) 0.78607(2) 0.2500
Al1Y Al 0.2500 0.28607(2) -0.21393(2)
Al1Y_2 Al 0.2500 0.28607(2) 0.78607(2)
Al1AA_2 Al 0.7500 0.28607(2) 0.21393(2)
Al1CA Al -0.21393(2) 0.2500 0.28607(2)
Al1DA Al 0.21393(2) 0.2500 -0.28607(2)
Al1DA_2 Al 0.21393(2) 0.2500 0.71393(2)
Al1GA Al 0.28607(2) 0.78607(2) 0.2500
Al1HA Al 0.71393(2) 0.21393(2) 0.2500
O1AA O -0.2500 0.2500 0.2500
O3H O 0.29288(5) 0.21259(5) 0.30226(6)
O3M O 0.20712(5) 0.19774(6) 0.28741(5)
O3W O 0.28741(5) 0.20712(5) 0.19774(6)
O3AA_2 O -0.30226(6) 0.29288(5) 0.21259(5)
O3LA O 0.20712(5) 0.80226(6) 0.28741(5)
O3QA O 0.19774(6) 0.71259(5) 0.20712(5)
O4H O 0.24805(5) 0.24854(5) 0.32664(5)
O4M O 0.25195(5) 0.17336(5) 0.25146(5)
O4W O 0.25146(5) 0.25195(5) 0.17336(5)
O4CA O -0.24854(5) 0.32664(5) 0.24805(5)
O4GA O 0.24805(5) 0.75146(5) 0.32664(5)
O4QA O 0.17336(5) 0.74854(5) 0.25195(5)
O4SA O 0.25146(5) 0.74805(5) 0.17336(5)
O4TA O -0.25146(5) 0.25195(5) 0.17336(5)
C14? C 0.5248(2) 0.47965(19) 0.2596(3)
H9? H 0.5443 0.4665 0.2735
loop_
_geom_bond_atom_site_label_1
_geom_bond_atom_site_label_2
_geom_bond_site_symmetry_1
_geom_bond_site_symmetry_2
Al1 O1 1_555 1_555
O1 Al1D 1_555 1_555
O2 Al1 1_555 1_555
H1 O2 1_555 1_555
O3 Al1 1_555 1_555
O4 C1 1_555 1_555
C1 O3 1_555 1_555
C2 C1 1_555 1_555
C3 C2 1_555 1_555
H2 C3 1_555 1_555
C4 C2 1_555 1_555
H3 C4 1_555 1_555
C5 C3 1_555 1_555
H4 C5 1_555 1_555
C6 C4 1_555 1_555
H5 C6 1_555 1_555
C7 C5 1_555 1_555
C8 C7 1_555 1_555
C9 C8 1_555 1_555
H6 C9 1_555 1_555
C10 C8 1_555 1_555
H7 C10 1_555 1_555
C11 C9 1_555 1_555
C12 C11 1_555 1_555
C13 C12 1_555 1_555
H8 C13 1_555 1_555
H1R O2 1_555 1_555
O3Z C1Z 1_555 1_555
O4Z C1Z 1_555 1_555
C1Z C2Z 1_555 1_555
C2Z C3Z 1_555 1_555
C3Z H2Z 1_555 1_555
C4Z C2Z 1_555 1_555
H3Z C4Z 1_555 1_555
C5Z C3Z 1_555 1_555
H4Z C5Z 1_555 1_555
C6Z C4Z 1_555 1_555
H5Z C6Z 1_555 1_555
C7Z C5Z 1_555 1_555
C8Z C7Z 1_555 1_555
C9Z C8Z 1_555 1_555
H6Z C9Z 1_555 1_555
C10A C8Z 1_555 1_555
H7A C10A 1_555 1_555
C11A C9Z 1_555 1_555
C12A C11A 1_555 1_555
C13Z C13 1_555 1_555
H8Z C13Z 1_555 1_555
O3AA C1AA 1_555 1_555
O4AA C1AA 1_555 1_555
C1AA C2AA 1_555 1_555
C2AA C3AA 1_555 1_555
C3AA H2AA 1_555 1_555
C4AA C2AA 1_555 1_555
H3AA C4AA 1_555 1_555
C5AA C3AA 1_555 1_555
H4AA C5AA 1_555 1_555
C6AA C4AA 1_555 1_555
H5AA C6AA 1_555 1_555
C7AA C5AA 1_555 1_555
C8AA C10 1_555 1_555
C9AA C11 1_555 1_555
H6AA C9AA 1_555 1_555
C13AA C12 1_555 1_555
H8AA C13AA 1_555 1_555
O3A C1A 1_555 1_555
O4A C1A 1_555 1_555
C1A C2A 1_555 1_555
C2A C3A 1_555 1_555
C3A H2A 1_555 1_555
C4A C2A 1_555 1_555
H3A C4A 1_555 1_555
C5A C3A 1_555 1_555
H4A C5A 1_555 1_555
C6A C4A 1_555 1_555
H5A C6A 1_555 1_555
C7A C5A 1_555 1_555
C8A C10A 1_555 1_555
C9A C11A 1_555 1_555
H6A C9A 1_555 1_555
C13A C12A 1_555 1_555
H8A C13A 1_555 1_555
Al1D O2D 1_555 1_555
O2D H1D 1_555 1_555
O3D Al1D 1_555 1_555
O4D Al1 1_555 1_555
C1D O3D 1_555 1_555
C2D C1D 1_555 1_555
C3D C2D 1_555 1_555
H2D C3D 1_555 1_555
C4D C2D 1_555 1_555
H3D C4D 1_555 1_555
C5D C3D 1_555 1_555
H4D C5D 1_555 1_555
C6D C4D 1_555 1_555
H5D C6D 1_555 1_555
C7D C5D 1_555 1_555
C8D C7D 1_555 1_555
C9D C8D 1_555 1_555
H6D C9D 1_555 1_555
C10D C8D 1_555 1_555
H7D C10D 1_555 1_555
C11D C9D 1_555 1_555
C12D C11D 1_555 1_555
C13D C12D 1_555 1_555
H8D C13D 1_555 1_555
H1M O2D 1_555 1_555
O3DA C1DA 1_555 1_555
O4DA C1DA 1_555 1_555
C1DA C2DA 1_555 1_555
C2DA C3DA 1_555 1_555
C3DA H2DA 1_555 1_555
C4DA C2DA 1_555 1_555
H3DA C4DA 1_555 1_555
C5DA C3DA 1_555 1_555
H4DA C5DA 1_555 1_555
C6DA C4DA 1_555 1_555
H5DA C6DA 1_555 1_555
C7DA C5DA 1_555 1_555
C8DA C7DA 1_555 1_555
C9DA C8DA 1_555 1_555
H6DA C9DA 1_555 1_555
C10E C8DA 1_555 1_555
H7E C10E 1_555 1_555
C11E C9DA 1_555 1_555
C12E C11E 1_555 1_555
C13DA C13D 1_555 1_555
H8DA C13DA 1_555 1_555
O3EA C1EA 1_555 1_555
O4EA C1EA 1_555 1_555
C1EA C2EA 1_555 1_555
C2EA C3EA 1_555 1_555
C3EA H2EA 1_555 1_555
C4EA C2EA 1_555 1_555
H3EA C4EA 1_555 1_555
C5EA C3EA 1_555 1_555
H4EA C5EA 1_555 1_555
C6EA C4EA 1_555 1_555
H5EA C6EA 1_555 1_555
C7EA C5EA 1_555 1_555
C8EA C10D 1_555 1_555
C9EA C11D 1_555 1_555
H6EA C9EA 1_555 1_555
C13EA C12D 1_555 1_555
H8EA C13EA 1_555 1_555
O3E C1E 1_555 1_555
O4E C1E 1_555 1_555
C1E C2E 1_555 1_555
C2E C3E 1_555 1_555
C3E H2E 1_555 1_555
C4E C2E 1_555 1_555
H3E C4E 1_555 1_555
C5E C3E 1_555 1_555
H4E C5E 1_555 1_555
C6E C4E 1_555 1_555
H5E C6E 1_555 1_555
C7E C5E 1_555 1_555
C8E C10E 1_555 1_555
C9E C11E 1_555 1_555
H6E C9E 1_555 1_555
C13E C12E 1_555 1_555
H8E C13E 1_555 1_555
Al1H O1 1_555 1_555
O2H Al1H 1_555 1_555
H1H O2H 1_555 1_555
H1W O2H 1_555 1_555
Al1Z O3Z 1_555 1_555
O2Z Al1Z 1_555 1_555
H1Z O2Z 1_555 1_555
H1QA O2Z 1_555 1_555
Al1EA O3EA 1_555 1_555
O2EA Al1EA 1_555 1_555
H1EA O2EA 1_555 1_555
H1LA O2EA 1_555 1_555
O3R Al1 1_555 1_555
O4R Al1D 1_555 1_555
C1R O3R 1_555 1_555
C2R C1R 1_555 1_555
C3R C2R 1_555 1_555
H2R C3R 1_555 1_555
C4R C2R 1_555 1_555
H3R C4R 1_555 1_555
C5R C3R 1_555 1_555
H4R C5R 1_555 1_555
C6R C4R 1_555 1_555
H5R C6R 1_555 1_555
C7R C5R 1_555 1_555
C8R C7R 1_555 1_555
C9R C8R 1_555 1_555
H6R C9R 1_555 1_555
C10R C8R 1_555 1_555
H7R C10R 1_555 1_555
C11R C9R 1_555 1_555
C12R C11R 1_555 1_555
C13R C12R 1_555 1_555
H8R C13R 1_555 1_555
O3NA C1NA 1_555 1_555
O4NA C1NA 1_555 1_555
C1NA C2NA 1_555 1_555
C2NA C3NA 1_555 1_555
C3NA H2NA 1_555 1_555
C4NA C2NA 1_555 1_555
H3NA C4NA 1_555 1_555
C5NA C3NA 1_555 1_555
H4NA C5NA 1_555 1_555
C6NA C4NA 1_555 1_555
H5NA C6NA 1_555 1_555
C7NA C5NA 1_555 1_555
C8NA C7NA 1_555 1_555
C9NA C8NA 1_555 1_555
H6NA C9NA 1_555 1_555
C10S C8NA 1_555 1_555
H7S C10S 1_555 1_555
C11S C9NA 1_555 1_555
C12S C11S 1_555 1_555
C13NA C13R 1_555 1_555
H8NA C13NA 1_555 1_555
O3OA C1OA 1_555 1_555
O4OA C1OA 1_555 1_555
C1OA C2OA 1_555 1_555
C2OA C3OA 1_555 1_555
C3OA H2OA 1_555 1_555
C4OA C2OA 1_555 1_555
H3OA C4OA 1_555 1_555
C5OA C3OA 1_555 1_555
H4OA C5OA 1_555 1_555
C6OA C4OA 1_555 1_555
H5OA C6OA 1_555 1_555
C7OA C5OA 1_555 1_555
C8OA C10R 1_555 1_555
C9OA C11R 1_555 1_555
H6OA C9OA 1_555 1_555
C13OA C12R 1_555 1_555
H8OA C13OA 1_555 1_555
O3S C1S 1_555 1_555
O4S C1S 1_555 1_555
C1S C2S 1_555 1_555
C2S C3S 1_555 1_555
C3S H2S 1_555 1_555
C4S C2S 1_555 1_555
H3S C4S 1_555 1_555
C5S C3S 1_555 1_555
H4S C5S 1_555 1_555
C6S C4S 1_555 1_555
H5S C6S 1_555 1_555
C7S C5S 1_555 1_555
C8S C10S 1_555 1_555
C9S C11S 1_555 1_555
H6S C9S 1_555 1_555
C13S C12S 1_555 1_555
H8S C13S 1_555 1_555
Al1AA O3OA 1_555 1_555
O2AA Al1AA 1_555 1_555
H1OA O2AA 1_555 1_555
H1AA O2AA 1_555 1_555
O1Z Al1Z 1_555 1_555
Al1A O3A 1_555 1_555
Al1B O3S 1_555 1_555
Al1C O4E 1_555 1_555
Al1E O3E 1_555 1_555
Al1G O4S 1_555 1_555
Al1K O4A 1_555 1_555
Al1Y O3NA 1_555 1_555
Al1Y_2 O4DA 1_555 1_555
Al1AA_2 O3AA 1_555 1_555
Al1CA O4OA 1_555 1_555
Al1DA O4NA 1_555 1_555
Al1DA_2 O3DA 1_555 1_555
Al1GA O4Z 1_555 1_555
Al1HA O4AA 1_555 1_555
O1AA Al1AA 1_555 1_555
O3H Al1H 1_555 1_555
O3M Al1D 1_555 1_555
O3W Al1H 1_555 1_555
O3AA_2 Al1AA 1_555 1_555
O3LA Al1EA 1_555 1_555
O3QA Al1Z 1_555 1_555
O4H Al1D 1_555 1_555
O4M Al1H 1_555 1_555
O4W Al1 1_555 1_555
O4CA Al1AA 1_555 1_555
O4GA Al1EA 1_555 1_555
O4QA Al1EA 1_555 1_555
O4SA Al1Z 1_555 1_555
O4TA Al1AA 1_555 1_555
O4 Al1H 1_555 1_555
C6 C7 1_555 1_555
C6Z C7Z 1_555 1_555
C12A C13Z 1_555 1_555
C6AA C7AA 1_555 1_555
C7AA C8AA 1_555 1_555
C8AA C9AA 1_555 1_555
C13AA C13A 1_555 1_555
C6A C7A 1_555 1_555
C7A C8A 1_555 1_555
C8A C9A 1_555 1_555
O4D C1D 1_555 1_555
C6D C7D 1_555 1_555
C6DA C7DA 1_555 1_555
C12E C13DA 1_555 1_555
O4EA Al1Z 1_555 1_555
C6EA C7EA 1_555 1_555
C7EA C8EA 1_555 1_555
C8EA C9EA 1_555 1_555
C13EA C13E 1_555 1_555
C6E C7E 1_555 1_555
C7E C8E 1_555 1_555
C8E C9E 1_555 1_555
Al1EA O1Z 1_555 1_555
O4R C1R 1_555 1_555
C6R C7R 1_555 1_555
C6NA C7NA 1_555 1_555
C12S C13NA 1_555 1_555
C6OA C7OA 1_555 1_555
C7OA C8OA 1_555 1_555
C8OA C9OA 1_555 1_555
C13OA C13S 1_555 1_555
C6S C7S 1_555 1_555
C7S C8S 1_555 1_555
C8S C9S 1_555 1_555
O1Z Al1GA 1_555 1_555
Al1CA O1AA 1_555 1_555

#END
