
#######################################################################
#
#                 Cambridge Crystallographic Data Centre
#                                CCDC 
#
#######################################################################
#
# If this CIF has been generated from an entry in the Cambridge 
# Structural Database, then it will include bibliographic, chemical, 
# crystal, experimental, refinement or atomic coordinate data resulting 
# from the CCDC's data processing and validation procedures.
#
#######################################################################

data_IGOCOX
_chemical_name_common            MFU-4
_chemical_formula_moiety         '(C18 H6 Cl4 N18 Zn5)n,3n(C3 H7 N1 O1)'
_chemical_name_systematic        
"catena-(tris(\m~6~-benzo(1,2-d:4,5-d')bis(triazolato))-tetrachloro-penta-zinc N,N-dimethylformamide solvate)"
_symmetry_cell_setting           cubic
_symmetry_space_group_name_H-M   'F m -3 m'
_symmetry_Int_Tables_number      225
_space_group_name_Hall           '-F 4 2 3'
loop_
_symmetry_equiv_pos_site_id
_symmetry_equiv_pos_as_xyz
1 x,y,z
2 -x,-y,z
3 -x,y,-z
4 x,-y,-z
5 z,x,y
6 z,-x,-y
7 -z,-x,y
8 -z,x,-y
9 y,z,x
10 -y,z,-x
11 y,-z,-x
12 -y,-z,x
13 y,x,-z
14 -y,-x,-z
15 y,-x,z
16 -y,x,z
17 x,z,-y
18 -x,z,y
19 -x,-z,-y
20 x,-z,y
21 z,y,-x
22 z,-y,x
23 -z,y,x
24 -z,-y,-x
25 x,1/2+y,1/2+z
26 -x,1/2-y,1/2+z
27 -x,1/2+y,1/2-z
28 x,1/2-y,1/2-z
29 z,1/2+x,1/2+y
30 z,1/2-x,1/2-y
31 -z,1/2-x,1/2+y
32 -z,1/2+x,1/2-y
33 y,1/2+z,1/2+x
34 -y,1/2+z,1/2-x
35 y,1/2-z,1/2-x
36 -y,1/2-z,1/2+x
37 y,1/2+x,1/2-z
38 -y,1/2-x,1/2-z
39 y,1/2-x,1/2+z
40 -y,1/2+x,1/2+z
41 x,1/2+z,1/2-y
42 -x,1/2+z,1/2+y
43 -x,1/2-z,1/2-y
44 x,1/2-z,1/2+y
45 z,1/2+y,1/2-x
46 z,1/2-y,1/2+x
47 -z,1/2+y,1/2+x
48 -z,1/2-y,1/2-x
49 1/2+x,y,1/2+z
50 1/2-x,-y,1/2+z
51 1/2-x,y,1/2-z
52 1/2+x,-y,1/2-z
53 1/2+z,x,1/2+y
54 1/2+z,-x,1/2-y
55 1/2-z,-x,1/2+y
56 1/2-z,x,1/2-y
57 1/2+y,z,1/2+x
58 1/2-y,z,1/2-x
59 1/2+y,-z,1/2-x
60 1/2-y,-z,1/2+x
61 1/2+y,x,1/2-z
62 1/2-y,-x,1/2-z
63 1/2+y,-x,1/2+z
64 1/2-y,x,1/2+z
65 1/2+x,z,1/2-y
66 1/2-x,z,1/2+y
67 1/2-x,-z,1/2-y
68 1/2+x,-z,1/2+y
69 1/2+z,y,1/2-x
70 1/2+z,-y,1/2+x
71 1/2-z,y,1/2+x
72 1/2-z,-y,1/2-x
73 1/2+x,1/2+y,z
74 1/2-x,1/2-y,z
75 1/2-x,1/2+y,-z
76 1/2+x,1/2-y,-z
77 1/2+z,1/2+x,y
78 1/2+z,1/2-x,-y
79 1/2-z,1/2-x,y
80 1/2-z,1/2+x,-y
81 1/2+y,1/2+z,x
82 1/2-y,1/2+z,-x
83 1/2+y,1/2-z,-x
84 1/2-y,1/2-z,x
85 1/2+y,1/2+x,-z
86 1/2-y,1/2-x,-z
87 1/2+y,1/2-x,z
88 1/2-y,1/2+x,z
89 1/2+x,1/2+z,-y
90 1/2-x,1/2+z,y
91 1/2-x,1/2-z,-y
92 1/2+x,1/2-z,y
93 1/2+z,1/2+y,-x
94 1/2+z,1/2-y,x
95 1/2-z,1/2+y,x
96 1/2-z,1/2-y,-x
97 -x,-y,-z
98 x,y,-z
99 x,-y,z
100 -x,y,z
101 -z,-x,-y
102 -z,x,y
103 z,x,-y
104 z,-x,y
105 -y,-z,-x
106 y,-z,x
107 -y,z,x
108 y,z,-x
109 -y,-x,z
110 y,x,z
111 -y,x,-z
112 y,-x,-z
113 -x,-z,y
114 x,-z,-y
115 x,z,y
116 -x,z,-y
117 -z,-y,x
118 -z,y,-x
119 z,-y,-x
120 z,y,x
121 -x,1/2-y,1/2-z
122 x,1/2+y,1/2-z
123 x,1/2-y,1/2+z
124 -x,1/2+y,1/2+z
125 -z,1/2-x,1/2-y
126 -z,1/2+x,1/2+y
127 z,1/2+x,1/2-y
128 z,1/2-x,1/2+y
129 -y,1/2-z,1/2-x
130 y,1/2-z,1/2+x
131 -y,1/2+z,1/2+x
132 y,1/2+z,1/2-x
133 -y,1/2-x,1/2+z
134 y,1/2+x,1/2+z
135 -y,1/2+x,1/2-z
136 y,1/2-x,1/2-z
137 -x,1/2-z,1/2+y
138 x,1/2-z,1/2-y
139 x,1/2+z,1/2+y
140 -x,1/2+z,1/2-y
141 -z,1/2-y,1/2+x
142 -z,1/2+y,1/2-x
143 z,1/2-y,1/2-x
144 z,1/2+y,1/2+x
145 1/2-x,-y,1/2-z
146 1/2+x,y,1/2-z
147 1/2+x,-y,1/2+z
148 1/2-x,y,1/2+z
149 1/2-z,-x,1/2-y
150 1/2-z,x,1/2+y
151 1/2+z,x,1/2-y
152 1/2+z,-x,1/2+y
153 1/2-y,-z,1/2-x
154 1/2+y,-z,1/2+x
155 1/2-y,z,1/2+x
156 1/2+y,z,1/2-x
157 1/2-y,-x,1/2+z
158 1/2+y,x,1/2+z
159 1/2-y,x,1/2-z
160 1/2+y,-x,1/2-z
161 1/2-x,-z,1/2+y
162 1/2+x,-z,1/2-y
163 1/2+x,z,1/2+y
164 1/2-x,z,1/2-y
165 1/2-z,-y,1/2+x
166 1/2-z,y,1/2-x
167 1/2+z,-y,1/2-x
168 1/2+z,y,1/2+x
169 1/2-x,1/2-y,-z
170 1/2+x,1/2+y,-z
171 1/2+x,1/2-y,z
172 1/2-x,1/2+y,z
173 1/2-z,1/2-x,-y
174 1/2-z,1/2+x,y
175 1/2+z,1/2+x,-y
176 1/2+z,1/2-x,y
177 1/2-y,1/2-z,-x
178 1/2+y,1/2-z,x
179 1/2-y,1/2+z,x
180 1/2+y,1/2+z,-x
181 1/2-y,1/2-x,z
182 1/2+y,1/2+x,z
183 1/2-y,1/2+x,-z
184 1/2+y,1/2-x,-z
185 1/2-x,1/2-z,y
186 1/2+x,1/2-z,-y
187 1/2+x,1/2+z,y
188 1/2-x,1/2+z,-y
189 1/2-z,1/2-y,x
190 1/2-z,1/2+y,-x
191 1/2+z,1/2-y,-x
192 1/2+z,1/2+y,x
_cell_length_a                   21.697(3)
_cell_length_b                   21.697(3)
_cell_length_c                   21.697(3)
_cell_angle_alpha                90
_cell_angle_beta                 90
_cell_angle_gamma                90
_cell_volume                     10214.1
_exptl_crystal_colour            'light yellow'
_exptl_crystal_description       octahedral
_cell_formula_units_Z            8
loop_
_atom_site_label
_atom_site_type_symbol
_atom_site_fract_x
_atom_site_fract_y
_atom_site_fract_z
_atom_site_U_iso_or_equiv
_atom_site_thermal_displace_type
Zn1 Zn 0.34584(4) 0.15416(4) 0.34584(4) 0.0259 Uani
Zn2 Zn 0.2500 0.2500 0.2500 0.0225 Uani
Cl1 Cl 0.40188(12) 0.09812(12) 0.40188(12) 0.0660 Uani
N1 N 0.3858(2) 0.21452(17) 0.28548(17) 0.0193 Uani
N2 N 0.3519(3) 0.2500 0.2500 0.0203 Uani
C1 C 0.4464(3) 0.2273(2) 0.2727(2) 0.0181 Uani
C2 C 0.5000 0.2007(3) 0.2993(3) 0.0267 Uani
H1 H 0.5000 0.1704 0.3296 0.0320 Uiso
Zn1V Zn 0.65416(4) 0.15416(4) 0.34584(4) 0.0259 Uani
Zn1Q Zn 0.65416(4) 0.34584(4) 0.15416(4) 0.0259 Uani
Zn1D Zn 0.34584(4) 0.34584(4) 0.15416(4) 0.0259 Uani
Zn1S Zn 0.34584(4) 0.65416(4) 0.15416(4) 0.0259 Uani
Zn1N Zn 0.15416(4) 0.65416(4) 0.34584(4) 0.0259 Uani
Zn1H Zn 0.15416(4) 0.34584(4) 0.34584(4) 0.0259 Uani
Zn1L Zn 0.15416(4) 0.34584(4) 0.65416(4) 0.0259 Uani
Zn1T Zn 0.34584(4) 0.15416(4) 0.65416(4) 0.0259 Uani
Zn2O Zn 0.7500 0.2500 0.2500 0.0225 Uani
Zn2N Zn 0.2500 0.7500 0.2500 0.0225 Uani
Zn2L Zn 0.2500 0.2500 0.7500 0.0225 Uani
Cl1V Cl 0.59812(12) 0.09812(12) 0.40188(12) 0.0660 Uani
Cl1Q Cl 0.59812(12) 0.40188(12) 0.09812(12) 0.0660 Uani
Cl1D Cl 0.40188(12) 0.40188(12) 0.09812(12) 0.0660 Uani
N1PA N 0.6142(2) 0.21452(17) 0.28548(17) 0.0193 Uani
N1Q N 0.6142(2) 0.28548(17) 0.21452(17) 0.0193 Uani
N1AA N 0.3858(2) 0.28548(17) 0.21452(17) 0.0193 Uani
N1D N 0.28548(17) 0.3858(2) 0.21452(17) 0.0193 Uani
N1IB N 0.28548(17) 0.6142(2) 0.21452(17) 0.0193 Uani
N1N N 0.21452(17) 0.6142(2) 0.28548(17) 0.0193 Uani
N1CB N 0.21452(17) 0.3858(2) 0.28548(17) 0.0193 Uani
N1H N 0.21452(17) 0.28548(17) 0.3858(2) 0.0193 Uani
N1QC N 0.21452(17) 0.28548(17) 0.6142(2) 0.0193 Uani
N1T N 0.28548(17) 0.21452(17) 0.6142(2) 0.0193 Uani
N1EC N 0.28548(17) 0.21452(17) 0.3858(2) 0.0193 Uani
N1CA N 0.28548(17) 0.1142(2) 0.28548(17) 0.0193 Uani
N1HC N 0.71452(17) 0.1142(2) 0.28548(17) 0.0193 Uani
N1V N 0.71452(17) 0.21452(17) 0.3858(2) 0.0193 Uani
N1HB N 0.71452(17) 0.3858(2) 0.21452(17) 0.0193 Uani
N1UA N 0.71452(17) 0.28548(17) 0.1142(2) 0.0193 Uani
N1EB N 0.28548(17) 0.28548(17) 0.1142(2) 0.0193 Uani
N2Q N 0.6481(3) 0.2500 0.2500 0.0203 Uani
N2D N 0.2500 0.3519(3) 0.2500 0.0203 Uani
N2N N 0.2500 0.6481(3) 0.2500 0.0203 Uani
N2H N 0.2500 0.2500 0.3519(3) 0.0203 Uani
N2T N 0.2500 0.2500 0.6481(3) 0.0203 Uani
N2CA N 0.2500 0.1481(3) 0.2500 0.0203 Uani
N2HA N 0.2500 0.2500 0.1481(3) 0.0203 Uani
N2XA N 0.1481(3) 0.2500 0.2500 0.0203 Uani
C1PA C 0.5536(3) 0.2273(2) 0.2727(2) 0.0181 Uani
C1Q C 0.5536(3) 0.2727(2) 0.2273(2) 0.0181 Uani
C1AA C 0.4464(3) 0.2727(2) 0.2273(2) 0.0181 Uani
C1D C 0.2727(2) 0.4464(3) 0.2273(2) 0.0181 Uani
C1IB C 0.2727(2) 0.5536(3) 0.2273(2) 0.0181 Uani
C1N C 0.2273(2) 0.5536(3) 0.2727(2) 0.0181 Uani
C1CB C 0.2273(2) 0.4464(3) 0.2727(2) 0.0181 Uani
C1H C 0.2273(2) 0.2727(2) 0.4464(3) 0.0181 Uani
C1QC C 0.2273(2) 0.2727(2) 0.5536(3) 0.0181 Uani
C1T C 0.2727(2) 0.2273(2) 0.5536(3) 0.0181 Uani
C1EC C 0.2727(2) 0.2273(2) 0.4464(3) 0.0181 Uani
C2Q C 0.5000 0.2993(3) 0.2007(3) 0.0267 Uani
C2D C 0.2993(3) 0.5000 0.2007(3) 0.0267 Uani
C2N C 0.2007(3) 0.5000 0.2993(3) 0.0267 Uani
C2H C 0.2007(3) 0.2993(3) 0.5000 0.0267 Uani
C2T C 0.2993(3) 0.2007(3) 0.5000 0.0267 Uani
H1Q H 0.5000 0.3296 0.1704 0.0320 Uiso
H1D H 0.3296 0.5000 0.1704 0.0320 Uiso
H1N H 0.1704 0.5000 0.3296 0.0320 Uiso
H1H H 0.1704 0.3296 0.5000 0.0320 Uiso
H1T H 0.3296 0.1704 0.5000 0.0320 Uiso
C3? C 0.0000 0.4389(3) 0.0000(3) 0.0800 Uiso
C4? C 0.0812 0.4189(3) -0.0291(3) 0.0900 Uiso
C5? C 0.1121 0.3376(3) 0.1121(3) 0.0700 Uiso
C6? C 0.0641 0.2839(3) 0.0641(3) 0.0900 Uiso
C7? C 0.0760 0.3497(3) 0.0000(3) 0.0800 Uiso
C8? C 0.0000 0.2134(3) 0.0000(3) 0.0600 Uiso
C9? C 0.1468 0.3532(3) 0.0000(3) 0.1000 Uiso
C10? C 0.0865 0.4135(3) 0.0000(3) 0.0800 Uiso
C11? C 0.0000 0.1687(3) 0.0000(3) 0.0700 Uiso
C12? C 0.0000 0.2090(3) 0.0884(3) 0.0900 Uiso
C13? C 0.1113 0.2457(3) 0.0000(3) 0.0700 Uiso
C14? C 0.1484 0.2970(3) 0.1484(3) 0.1000 Uiso
O1? O 0.0852 0.3199(3) 0.0852(3) 0.0860 Uiso
O2? O 0.0000 0.3733(3) 0.0000(3) 0.0100 Uiso
O3? O 0.0000 0.1609(3) -0.0790(3) 0.1100 Uiso
O4? O 0.1129 0.3067(3) 0.0000(3) 0.1100 Uiso
N3? N 0.0324 0.4676(3) -0.0324(3) 0.0900 Uiso
N4? N 0.1364 0.3636(3) 0.1364(3) 0.0800 Uiso
N5? N 0.0447 0.2352(3) 0.0447(3) 0.1100 Uiso
N6? N 0.0437 0.2583(3) 0.0000(3) 0.0800 Uiso
loop_
_atom_site_aniso_label
_atom_site_aniso_U_11
_atom_site_aniso_U_22
_atom_site_aniso_U_33
_atom_site_aniso_U_23
_atom_site_aniso_U_13
_atom_site_aniso_U_12
Zn1 0.0259 0.0259 0.0259 -0.0042 0.0042 -0.0042
Zn2 0.0225(7) 0.0225(7) 0.0225(7) 0.000 0.000 0.000
Cl1 0.066 0.066 0.066 0.0143 -0.0143 0.0143
N1 0.016 0.0209 0.0209 0.005 -0.0021 0.0021
N2 0.023 0.019 0.019 -0.003 0 0
C1 0.015(3) 0.0197(17) 0.0197(17) 0.005(2) 0.0017(16) -0.0017(16)
C2 0.022(5) 0.029(3) 0.029(3) 0.008(4) 0.000 0.000
Zn1V 0.0259 0.0259 0.0259 -0.0042 -0.0042 0.0042
Zn1Q 0.0259 0.0259 0.0259 -0.0042 0.0042 -0.0042
Zn1D 0.0259(5) 0.0259(5) 0.0259(5) -0.0042(3) -0.0042(3) 0.0042(3)
Zn1S 0.0259 0.0259 0.0259 0.0042 -0.0042 -0.0042
Zn1N 0.0259 0.0259 0.0259 -0.0042 -0.0042 0.0042
Zn1H 0.0259 0.0259 0.0259 0.0042 -0.0042 -0.0042
Zn1L 0.0259 0.0259 0.0259 -0.0042 0.0042 -0.0042
Zn1T 0.0259 0.0259 0.0259 0.0042 -0.0042 -0.0042
Zn2O 0.0225 0.0225 0.0225 0 0 0
Zn2N 0.0225 0.0225 0.0225 0 0 0
Zn2L 0.0225 0.0225 0.0225 0 0 0
Cl1V 0.066 0.066 0.066 0.0143 0.0143 -0.0143
Cl1Q 0.066 0.066 0.066 0.0143 -0.0143 0.0143
Cl1D 0.0660(14) 0.0660(14) 0.0660(14) 0.0143(11) 0.0143(11) -0.0143(11)
N1PA 0.016 0.0209 0.0209 0.005 0.0021 -0.0021
N1Q 0.016 0.0209 0.0209 0.005 -0.0021 0.0021
N1AA 0.016 0.0209 0.0209 0.005 0.0021 -0.0021
N1D 0.0209 0.016 0.0209 0.0021 0.005 -0.0021
N1IB 0.0209 0.016 0.0209 -0.0021 0.005 0.0021
N1N 0.0209 0.016 0.0209 0.0021 0.005 -0.0021
N1CB 0.0209 0.016 0.0209 -0.0021 0.005 0.0021
N1H 0.0209 0.0209 0.016 -0.0021 0.0021 0.005
N1QC 0.0209 0.0209 0.016 0.0021 -0.0021 0.005
N1T 0.0209 0.0209 0.016 -0.0021 0.0021 0.005
N1EC 0.0209 0.0209 0.016 0.0021 -0.0021 0.005
N1CA 0.0209 0.016 0.0209 0.0021 -0.005 0.0021
N1HC 0.0209 0.016 0.0209 0.0021 0.005 -0.0021
N1V 0.0209 0.0209 0.016 0.0021 0.0021 -0.005
N1HB 0.0209 0.016 0.0209 0.0021 -0.005 0.0021
N1UA 0.0209 0.0209 0.016 0.0021 -0.0021 0.005
N1EB 0.0209 0.0209 0.016 0.0021 0.0021 -0.005
N2Q 0.023 0.019 0.019 -0.003 0 0
N2D 0.019 0.023 0.019 0 -0.003 0
N2N 0.019 0.023 0.019 0 -0.003 0
N2H 0.019 0.019 0.023 0 0 -0.003
N2T 0.019 0.019 0.023 0 0 -0.003
N2CA 0.019 0.023 0.019 0 0.003 0
N2HA 0.019 0.019 0.023 0 0 0.003
N2XA 0.023 0.019 0.019 0.003 0 0
C1PA 0.015 0.0197 0.0197 0.005 -0.0017 0.0017
C1Q 0.015 0.0197 0.0197 0.005 0.0017 -0.0017
C1AA 0.015 0.0197 0.0197 0.005 -0.0017 0.0017
C1D 0.0197 0.015 0.0197 -0.0017 0.005 0.0017
C1IB 0.0197 0.015 0.0197 0.0017 0.005 -0.0017
C1N 0.0197 0.015 0.0197 -0.0017 0.005 0.0017
C1CB 0.0197 0.015 0.0197 0.0017 0.005 -0.0017
C1H 0.0197 0.0197 0.015 0.0017 -0.0017 0.005
C1QC 0.0197 0.0197 0.015 -0.0017 0.0017 0.005
C1T 0.0197 0.0197 0.015 0.0017 -0.0017 0.005
C1EC 0.0197 0.0197 0.015 -0.0017 0.0017 0.005
C2Q 0.022 0.029 0.029 0.008 0 0
C2D 0.029 0.022 0.029 0 0.008 0
C2N 0.029 0.022 0.029 0 0.008 0
C2H 0.029 0.029 0.022 0 0 0.008
C2T 0.029 0.029 0.022 0 0 0.008
loop_
_geom_bond_atom_site_label_1
_geom_bond_atom_site_label_2
_geom_bond_site_symmetry_1
_geom_bond_site_symmetry_2
Zn1 Cl1 1_555 1_555
Zn2 N2 1_555 1_555
N1 Zn1 1_555 1_555
N2 N1 1_555 1_555
C1 N1 1_555 1_555
C2 C1 1_555 1_555
H1 C2 1_555 1_555
Zn1V Cl1V 1_555 1_555
Zn1Q Cl1Q 1_555 1_555
Zn1D Cl1D 1_555 1_555
Zn1S N1IB 1_555 1_555
Zn1N N1N 1_555 1_555
Zn1H N1CB 1_555 1_555
Zn1L N1QC 1_555 1_555
Zn1T N1T 1_555 1_555
Zn2O N2Q 1_555 1_555
Zn2N N2N 1_555 1_555
Zn2L N2T 1_555 1_555
N1PA Zn1V 1_555 1_555
N1Q Zn1Q 1_555 1_555
N1AA N2 1_555 1_555
N1D Zn1D 1_555 1_555
N1IB N2N 1_555 1_555
N1N N2N 1_555 1_555
N1CB N2D 1_555 1_555
N1H Zn1H 1_555 1_555
N1QC N2T 1_555 1_555
N1T N2T 1_555 1_555
N1EC Zn1 1_555 1_555
N1CA Zn1 1_555 1_555
N1HC Zn1V 1_555 1_555
N1V Zn1V 1_555 1_555
N1HB Zn1Q 1_555 1_555
N1UA Zn1Q 1_555 1_555
N1EB Zn1D 1_555 1_555
N2Q N1PA 1_555 1_555
N2D Zn2 1_555 1_555
N2H Zn2 1_555 1_555
N2CA Zn2 1_555 1_555
N2HA Zn2 1_555 1_555
N2XA Zn2 1_555 1_555
C1PA C2 1_555 1_555
C1Q N1Q 1_555 1_555
C1AA C1 1_555 1_555
C1D N1D 1_555 1_555
C1IB N1IB 1_555 1_555
C1N N1N 1_555 1_555
C1CB N1CB 1_555 1_555
C1H N1H 1_555 1_555
C1QC N1QC 1_555 1_555
C1T N1T 1_555 1_555
C1EC N1EC 1_555 1_555
C2Q C1Q 1_555 1_555
C2D C1D 1_555 1_555
C2N C1N 1_555 1_555
C2H C1H 1_555 1_555
C2T C1T 1_555 1_555
H1Q C2Q 1_555 1_555
H1D C2D 1_555 1_555
H1N C2N 1_555 1_555
H1H C2H 1_555 1_555
H1T C2T 1_555 1_555
Zn1D N1AA 1_555 1_555
N1PA C1PA 1_555 1_555
N1Q N2Q 1_555 1_555
N1AA C1AA 1_555 1_555
N1D N2D 1_555 1_555
N1H N2H 1_555 1_555
N1EC N2H 1_555 1_555
N1CA N2CA 1_555 1_555
N1EB N2HA 1_555 1_555
C1PA C1Q 1_555 1_555
C1AA C2Q 1_555 1_555
C1D C1CB 1_555 1_555
C1IB C1N 1_555 1_555
C1IB C2D 1_555 1_555
C1CB C2N 1_555 1_555
C1H C1EC 1_555 1_555
C1QC C1T 1_555 1_555
C1QC C2H 1_555 1_555
C1EC C2T 1_555 1_555

#END
