
#######################################################################
#
#                 Cambridge Crystallographic Data Centre
#                                CCDC 
#
#######################################################################
#
# If this CIF has been generated from an entry in the Cambridge 
# Structural Database, then it will include bibliographic, chemical, 
# crystal, experimental, refinement or atomic coordinate data resulting 
# from the CCDC's data processing and validation procedures.
#
#######################################################################

data_ZEXHER
_chemical_formula_moiety         '(C16 H15 N6 Ni1 O6 P2)n,7n(H2 O1)'
_chemical_name_systematic        
'catena-[bis(\m~2~-Hydrogen (4-(4H-1,2,4-triazol-4-yl)phenyl)phosphonato)-nickel(ii) heptahydrate]'
_symmetry_cell_setting           monoclinic
_symmetry_space_group_name_H-M   'P 21/m'
_symmetry_Int_Tables_number      11
_space_group_name_Hall           '-P 2yb'
loop_
_symmetry_equiv_pos_site_id
_symmetry_equiv_pos_as_xyz
1 x,y,z
2 -x,1/2+y,-z
3 -x,-y,-z
4 x,1/2-y,z
_cell_length_a                   11.4102(9)
_cell_length_b                   7.9586(6)
_cell_length_c                   14.2631(11)
_cell_angle_alpha                90
_cell_angle_beta                 95.5480(10)
_cell_angle_gamma                90
_cell_volume                     1289.15
_exptl_crystal_colour            green
_exptl_crystal_description       block
_cell_formula_units_Z            2
loop_
_atom_site_label
_atom_site_type_symbol
_atom_site_fract_x
_atom_site_fract_y
_atom_site_fract_z
Ni1 Ni 0.5000 0.0000 1.0000
O1 O -0.3235(5) 0.2500 1.2378(4)
H1 H -0.389(6) 0.2500 1.262(9)
O2 O -0.3551(3) 0.0895(5) 1.0838(3)
O3 O 0.4645(5) 0.2500 0.2733(4)
O4 O 0.2883(6) 0.0919(10) 0.3080(4)
N1 N 0.3815(4) 0.1633(6) 1.0553(3)
N2 N 0.2118(6) 0.2500 1.0967(5)
N3 N 0.5240(4) 0.1640(6) 0.8896(3)
N4 N 0.5077(6) 0.2500 0.7449(5)
P1 P -0.30826(17) 0.2500 1.12884(14)
P2 P 0.36022(18) 0.2500 0.32877(14)
C1 C -0.1509(7) 0.2500 1.1281(6)
C2 C -0.0808(10) 0.1227(16) 1.1670(9)
H2 H -0.1144 0.0356 1.1987
C3 C 0.0414(10) 0.1228(17) 1.1594(9)
H3 H 0.0885 0.0368 1.1862
C4 C 0.0898(7) 0.2500 1.1123(6)
C5 C 0.2799(5) 0.1142(7) 1.0804(4)
H4 H 0.2573 0.0027 1.0864
C6 C 0.4092(8) 0.2500 0.4530(6)
C7 C 0.3287(14) 0.2500 0.5183(11)
H5 H 0.2489 0.2500 0.4978
C8 C 0.3626(15) 0.2500 0.6126(11)
H6 H 0.3061 0.2500 0.6554
C9 C 0.4761(8) 0.2500 0.6433(6)
C10 C 0.5594(13) 0.2500 0.5834(9)
H7 H 0.6389 0.2500 0.6051
C11 C 0.5220(11) 0.2500 0.4862(8)
H8 H 0.5787 0.2500 0.4436
C12 C 0.5151(5) 0.1158(8) 0.8023(4)
H9 H 0.5140 0.0045 0.7824
O2C O -0.3551(3) 0.4105(5) 1.0838(3)
N1C N 0.3815(4) 0.3367(6) 1.0553(3)
C2C C -0.0808(10) 0.3773(16) 1.1670(9)
H2C H -0.1144 0.4644 1.1987
C3C C 0.0414(10) 0.3772(17) 1.1594(9)
H3C H 0.0885 0.4632 1.1862
C5C C 0.2799(5) 0.3858(7) 1.0804(4)
H4C H 0.2573 0.4973 1.0864
O4C O 0.2883(6) 0.4081(10) 0.3080(4)
N3C N 0.5240(4) 0.3360(6) 0.8896(3)
C12C C 0.5151(5) 0.3842(8) 0.8023(4)
H9C H 0.5140 0.4955 0.7824
Ni1_2 Ni -0.5000 0.0000 1.0000
Ni1A Ni -0.5000 0.5000 1.0000
Ni1A_2 Ni 0.5000 0.5000 1.0000
O2_2 O 0.6449(3) 0.0895(5) 1.0838(3)
O2B O 0.3551(3) -0.0895(5) 0.9162(3)
N1B N 0.6185(4) -0.1633(6) 0.9447(3)
N3B N 0.4760(4) -0.1640(6) 1.1104(3)
O5 O 0.7557(6) 0.7500 0.1522(5)
O6 O 0.9644(7) 0.7500 0.2815(6)
O7 O 0.8446(7) 0.2500 0.3949(6)
O8 O 0.0667(9) 0.0380(15) 0.5702(8)
O9 O 0.0551(9) 0.0640(14) 0.3719(7)
C13? C -0.0979(10) 0.1137(18) 1.0867(10)
H10? H -0.1439 0.0226 1.0650
C14? C 0.0237(10) 0.1121(18) 1.0773(11)
H11? H 0.0587 0.0225 1.0489
O10? O 0.1742(11) -0.062(3) 0.4276(10)
O11? O 0.1968(10) 0.8157(16) 0.2014(8)
H12? H 0.2593 0.0620 0.3556
loop_
_geom_bond_atom_site_label_1
_geom_bond_atom_site_label_2
_geom_bond_site_symmetry_1
_geom_bond_site_symmetry_2
Ni1 N1 1_555 1_555
O1 H1 1_555 1_555
O2 P1 1_555 1_555
O3 P2 1_555 1_555
O4 P2 1_555 1_555
N1 C5 1_555 1_555
N2 C4 1_555 1_555
N3 Ni1 1_555 1_555
N4 C9 1_555 1_555
P1 O1 1_555 1_555
P2 C6 1_555 1_555
C1 P1 1_555 1_555
C2 C1 1_555 1_555
H2 C2 1_555 1_555
C3 C2 1_555 1_555
H3 C3 1_555 1_555
C4 C3 1_555 1_555
C5 N2 1_555 1_555
H4 C5 1_555 1_555
C6 C7 1_555 1_555
C7 H5 1_555 1_555
C8 C7 1_555 1_555
H6 C8 1_555 1_555
C9 C8 1_555 1_555
C10 C9 1_555 1_555
H7 C10 1_555 1_555
C11 C6 1_555 1_555
H8 C11 1_555 1_555
C12 N3 1_555 1_555
H9 C12 1_555 1_555
O2C P1 1_555 1_555
N1C N1 1_555 1_555
C2C C1 1_555 1_555
H2C C2C 1_555 1_555
C3C C4 1_555 1_555
H3C C3C 1_555 1_555
C5C N2 1_555 1_555
H4C C5C 1_555 1_555
O4C P2 1_555 1_555
N3C N3 1_555 1_555
C12C N4 1_555 1_555
H9C C12C 1_555 1_555
Ni1_2 O2 1_555 1_555
Ni1A O2C 1_555 1_555
Ni1A_2 N1C 1_555 1_555
O2_2 Ni1 1_555 1_555
O2B Ni1 1_555 1_555
N1B Ni1 1_555 1_555
N3B Ni1 1_555 1_555
N4 C12 1_555 1_555
C10 C11 1_555 1_555
N1C C5C 1_555 1_555
C2C C3C 1_555 1_555
N3C C12C 1_555 1_555
N3C Ni1A_2 1_555 1_555

#END
