
#######################################################################
#
#                 Cambridge Crystallographic Data Centre
#                                CCDC 
#
#######################################################################
#
# If this CIF has been generated from an entry in the Cambridge 
# Structural Database, then it will include bibliographic, chemical, 
# crystal, experimental, refinement or atomic coordinate data resulting 
# from the CCDC's data processing and validation procedures.
#
#######################################################################

data_BOQQEF
_chemical_name_common            MOF-649
_chemical_formula_moiety         
'(C30 H24 N2 O8 Zn2)n,5n(C3 H7 N1 O1),2n(H2 O1)'
_chemical_name_systematic        
'catena-(bis(\m~4~-2,6-Azulenedicarboxylato)-(\m~2~-1,4-diazabicyclo(2.2.2)octane)-di-zinc dimethylformamide solvate dihydrate)'
_symmetry_cell_setting           orthorhombic
_symmetry_space_group_name_H-M   'C m m m'
_symmetry_Int_Tables_number      65
_space_group_name_Hall           '-C 2 2'
loop_
_symmetry_equiv_pos_site_id
_symmetry_equiv_pos_as_xyz
1 x,y,z
2 -x,-y,z
3 x,-y,-z
4 -x,y,-z
5 1/2+x,1/2+y,z
6 1/2-x,1/2-y,z
7 1/2+x,1/2-y,-z
8 1/2-x,1/2+y,-z
9 -x,-y,-z
10 x,y,-z
11 -x,y,z
12 x,-y,z
13 1/2-x,1/2-y,-z
14 1/2+x,1/2+y,-z
15 1/2-x,1/2+y,z
16 1/2+x,1/2-y,z
_cell_length_a                   16.052(5)
_cell_length_b                   21.172(5)
_cell_length_c                   9.625(5)
_cell_angle_alpha                90
_cell_angle_beta                 90
_cell_angle_gamma                90
_cell_volume                     3271.08
_exptl_crystal_colour            violet
_exptl_crystal_description       needle
_cell_formula_units_Z            2
loop_
_atom_site_label
_atom_site_type_symbol
_atom_site_fract_x
_atom_site_fract_y
_atom_site_fract_z
Zn1 Zn 0.5000 0.0000 0.34666(10)
O1 O 0.5867(3) -0.06762(19) 0.3854(4)
C1 C 0.6087(5) -0.0890(3) 0.5000
C2 C 0.6619(5) -0.1462(4) 0.5000
C3 C 0.6862(5) -0.1742(3) 0.3763(5)
H1 H 0.6648 -0.1525 0.3002
C4 C 0.7330(9) -0.2252(5) 0.3350(12)
H2 H 0.7427 -0.2309 0.2405
C5 C 0.7665(9) -0.2684(5) 0.4273(5)
N1 N 0.5000 0.0000 0.1333(7)
C6 C 0.5747(7) 0.0316(5) 0.0800(10)
H3 H 0.6240 0.0100 0.1137
H4 H 0.5763 0.0748 0.1137
C7 C 0.5000 -0.0637(7) 0.0802(13)
H5 H 0.4511 -0.0858 0.1138
O1E O 0.9133(3) -0.43238(19) 0.3854(4)
C1E C 0.8913(5) -0.4110(3) 0.5000
C2E C 0.8381(5) -0.3538(4) 0.5000
C3E C 0.8138(5) -0.3258(3) 0.3763(5)
H1E H 0.8352 -0.3475 0.3002
C4E C 0.7670(9) -0.2748(5) 0.3350(12)
H2E H 0.7573 -0.2691 0.2405
C5E C 0.7335(9) -0.2316(5) 0.4273(5)
O1I O 0.5867(3) -0.06762(19) 0.6146(4)
C3I C 0.6862(5) -0.1742(3) 0.6237(5)
H1I H 0.6648 -0.1525 0.6998
C4I C 0.7330(9) -0.2252(5) 0.6650(12)
H2I H 0.7427 -0.2309 0.7595
C5I C 0.7665(9) -0.2684(5) 0.5727(5)
O1L O 0.9133(3) -0.43238(19) 0.6146(4)
C3L C 0.8138(5) -0.3258(3) 0.6237(5)
H1L H 0.8352 -0.3475 0.6998
C4L C 0.7670(9) -0.2748(5) 0.6650(12)
H2L H 0.7573 -0.2691 0.7595
C5L C 0.7335(9) -0.2316(5) 0.5727(5)
C6A C 0.4253(7) -0.0316(5) 0.0800(10)
H3A H 0.3760 -0.0100 0.1137
H4A H 0.4237 -0.0748 0.1137
C7A C 0.5000 0.0637(7) 0.0802(13)
H5A H 0.5489 0.0858 0.1138
N1B N 0.5000 0.0000 -0.1333(7)
C6B C 0.5747(7) -0.0316(5) -0.0800(10)
H3B H 0.6240 -0.0100 -0.1137
H4B H 0.5763 -0.0748 -0.1137
C7B C 0.5000 0.0637(7) -0.0802(13)
H5B H 0.4511 0.0858 -0.1138
C6C C 0.4253(7) 0.0316(5) -0.0800(10)
H3C H 0.3760 0.0100 -0.1137
H4C H 0.4237 0.0748 -0.1137
C7C C 0.5000 -0.0637(7) -0.0802(13)
H5C H 0.5489 -0.0858 -0.1138
C6H C 0.4253(7) -0.0316(5) -0.0800(10)
H3H H 0.3760 -0.0100 -0.1137
H4H H 0.4237 -0.0748 -0.1137
H5H H 0.5489 0.0858 -0.1138
C6I C 0.5747(7) 0.0316(5) -0.0800(10)
H3I H 0.6240 0.0100 -0.1137
H4I H 0.5763 0.0748 -0.1137
H5I H 0.4511 -0.0858 -0.1138
C6J C 0.4253(7) 0.0316(5) 0.0800(10)
H3J H 0.3760 0.0100 0.1137
H4J H 0.4237 0.0748 0.1137
H5J H 0.5489 -0.0858 0.1138
C6K C 0.5747(7) -0.0316(5) 0.0800(10)
H3K H 0.6240 -0.0100 0.1137
H4K H 0.5763 -0.0748 0.1137
H5K H 0.4511 0.0858 0.1138
O1A O 0.4133(3) 0.06762(19) 0.3854(4)
C1A C 0.3913(5) 0.0890(3) 0.5000
C2A C 0.3381(5) 0.1462(4) 0.5000
C3A C 0.3138(5) 0.1742(3) 0.3763(5)
H1A H 0.3352 0.1525 0.3002
C4A C 0.2670(9) 0.2252(5) 0.3350(12)
H2A H 0.2573 0.2309 0.2405
C5A C 0.2335(9) 0.2684(5) 0.4273(5)
O1D O 0.0867(3) 0.43238(19) 0.3854(4)
C1D C 0.1087(5) 0.4110(3) 0.5000
C2D C 0.1619(5) 0.3538(4) 0.5000
C3D C 0.1862(5) 0.3258(3) 0.3763(5)
H1D H 0.1648 0.3475 0.3002
C4D C 0.2330(9) 0.2748(5) 0.3350(12)
H2D H 0.2427 0.2691 0.2405
C5D C 0.2665(9) 0.2316(5) 0.4273(5)
O1H O 0.4133(3) 0.06762(19) 0.6146(4)
C3H C 0.3138(5) 0.1742(3) 0.6237(5)
H1H H 0.3352 0.1525 0.6998
C4H C 0.2670(9) 0.2252(5) 0.6650(12)
H2H H 0.2573 0.2309 0.7595
C5H C 0.2335(9) 0.2684(5) 0.5727(5)
O1M O 0.0867(3) 0.43238(19) 0.6146(4)
C3M C 0.1862(5) 0.3258(3) 0.6237(5)
H1M H 0.1648 0.3475 0.6998
C4M C 0.2330(9) 0.2748(5) 0.6650(12)
H2M H 0.2427 0.2691 0.7595
C5M C 0.2665(9) 0.2316(5) 0.5727(5)
Zn1B Zn 0.5000 0.0000 -0.34666(10)
Zn1B_2 Zn 0.5000 0.0000 0.65334(10)
Zn1D Zn 0.0000 0.5000 0.34666(10)
Zn1D_2 Zn 1.0000 -0.5000 0.34666(10)
Zn1F Zn 0.0000 0.5000 0.65334(10)
Zn1F_2 Zn 1.0000 -0.5000 0.65334(10)
O1B O 0.5867(3) 0.06762(19) -0.3854(4)
O1C O 0.4133(3) -0.06762(19) -0.3854(4)
O1H_2 O 0.4133(3) 0.06762(19) -0.3854(4)
O1I_2 O 0.5867(3) -0.06762(19) -0.3854(4)
O1J O 0.4133(3) -0.06762(19) 0.3854(4)
O1K O 0.5867(3) 0.06762(19) 0.3854(4)
loop_
_geom_bond_atom_site_label_1
_geom_bond_atom_site_label_2
_geom_bond_site_symmetry_1
_geom_bond_site_symmetry_2
Zn1 O1 1_555 1_555
O1 C1 1_555 1_555
C1 C2 1_555 1_555
C2 C3 1_555 1_555
C3 H1 1_555 1_555
C4 C3 1_555 1_555
H2 C4 1_555 1_555
C5 C4 1_555 1_555
N1 Zn1 1_555 1_555
C6 N1 1_555 1_555
H3 C6 1_555 1_555
H4 C6 1_555 1_555
C7 N1 1_555 1_555
H5 C7 1_555 1_555
O1E C1E 1_555 1_555
C1E C2E 1_555 1_555
C2E C3E 1_555 1_555
C3E C5 1_555 1_555
H1E C3E 1_555 1_555
C4E C4 1_555 1_555
H2E C4 1_555 1_555
C5E C3 1_555 1_555
O1I C1 1_555 1_555
C3I C2 1_555 1_555
H1I C3I 1_555 1_555
C4I C3I 1_555 1_555
H2I C4I 1_555 1_555
C5I C5 1_555 1_555
O1L C1E 1_555 1_555
C3L C2E 1_555 1_555
H1L C3L 1_555 1_555
C4L C4I 1_555 1_555
H2L C4I 1_555 1_555
C5L C5 1_555 1_555
C6A N1 1_555 1_555
H3A C6A 1_555 1_555
H4A C7 1_555 1_555
C7A N1 1_555 1_555
H5A C6 1_555 1_555
N1B C6B 1_555 1_555
C6B H3B 1_555 1_555
H3B C6I 1_555 1_555
H4B C6B 1_555 1_555
C7B C7A 1_555 1_555
H5B C7B 1_555 1_555
C6C N1B 1_555 1_555
H3C C6C 1_555 1_555
H4C C7B 1_555 1_555
C7C C7 1_555 1_555
H5C C6B 1_555 1_555
C6H C6A 1_555 1_555
H3H C6C 1_555 1_555
H4H C7C 1_555 1_555
H5H C7B 1_555 1_555
C6I C6 1_555 1_555
H3I C6B 1_555 1_555
H4I C7B 1_555 1_555
H5I C7C 1_555 1_555
C6J N1 1_555 1_555
H3J C6A 1_555 1_555
H4J C7A 1_555 1_555
H5J C7 1_555 1_555
C6K N1 1_555 1_555
H3K C6 1_555 1_555
H4K C7 1_555 1_555
H5K C7A 1_555 1_555
O1A Zn1 1_555 1_555
C1A O1A 1_555 1_555
C2A C1A 1_555 1_555
C3A C2A 1_555 1_555
H1A C3A 1_555 1_555
C4A C3A 1_555 1_555
H2A C4A 1_555 1_555
C5A C4A 1_555 1_555
O1D C1D 1_555 1_555
C1D C2D 1_555 1_555
C2D C3D 1_555 1_555
C3D C5A 1_555 1_555
H1D C3D 1_555 1_555
C4D C4A 1_555 1_555
H2D C4A 1_555 1_555
C5D C3A 1_555 1_555
O1H C1A 1_555 1_555
C3H C2A 1_555 1_555
H1H C3H 1_555 1_555
C4H C3H 1_555 1_555
H2H C4H 1_555 1_555
C5H C5A 1_555 1_555
O1M C1D 1_555 1_555
C3M C2D 1_555 1_555
H1M C3M 1_555 1_555
C4M C4H 1_555 1_555
H2M C4H 1_555 1_555
C5M C5A 1_555 1_555
Zn1B N1B 1_555 1_555
Zn1B_2 O1I 1_555 1_555
Zn1D O1D 1_555 1_555
Zn1D_2 O1E 1_555 1_555
Zn1F O1M 1_555 1_555
Zn1F_2 O1L 1_555 1_555
O1B Zn1B 1_555 1_555
O1C Zn1B 1_555 1_555
O1H_2 Zn1B 1_555 1_555
O1I_2 Zn1B 1_555 1_555
O1J Zn1 1_555 1_555
O1K Zn1 1_555 1_555
C4 C5E 1_555 1_555
H2 C4E 1_555 1_555
C5 C4E 1_555 1_555
C5 C5E 1_555 1_555
C6 C7A 1_555 1_555
C6 C6K 1_555 1_555
H3 C6K 1_555 1_555
H4 C7A 1_555 1_555
C7 C6A 1_555 1_555
C7 C6K 1_555 1_555
H5 C6A 1_555 1_555
C3E C4E 1_555 1_555
C4E H2E 1_555 1_555
C4E C5E 1_555 1_555
C5E C5I 1_555 1_555
C5E C5L 1_555 1_555
C3I C5L 1_555 1_555
C4I C5I 1_555 1_555
C4I C5L 1_555 1_555
H2I C4L 1_555 1_555
C5I C3L 1_555 1_555
C5I C4L 1_555 1_555
C5I C5L 1_555 1_555
C3L C4L 1_555 1_555
C4L H2L 1_555 1_555
C4L C5L 1_555 1_555
C6A H4A 1_555 1_555
C6A C6J 1_555 1_555
H3A C6J 1_555 1_555
C7A H5A 1_555 1_555
C7A C6J 1_555 1_555
N1B C7B 1_555 1_555
N1B C7C 1_555 1_555
N1B C6H 1_555 1_555
N1B C6I 1_555 1_555
C6B C7C 1_555 1_555
C6B C6I 1_555 1_555
C6B C6K 1_555 1_555
H4B C7C 1_555 1_555
C7B C6C 1_555 1_555
C7B C6I 1_555 1_555
H5B C6C 1_555 1_555
C6C H4C 1_555 1_555
C6C C6H 1_555 1_555
C6C C6J 1_555 1_555
H3C C6H 1_555 1_555
C7C H5C 1_555 1_555
C7C C6H 1_555 1_555
C6H H3H 1_555 1_555
C6H H4H 1_555 1_555
C6H H5I 1_555 1_555
H5H C6I 1_555 1_555
C6I H3I 1_555 1_555
C6I H4I 1_555 1_555
C6J H3J 1_555 1_555
C6J H4J 1_555 1_555
C6J H5K 1_555 1_555
H5J C6K 1_555 1_555
C6K H3K 1_555 1_555
C6K H4K 1_555 1_555
C4A C5D 1_555 1_555
H2A C4D 1_555 1_555
C5A C4D 1_555 1_555
C5A C5D 1_555 1_555
C3D C4D 1_555 1_555
C4D H2D 1_555 1_555
C4D C5D 1_555 1_555
C5D C5H 1_555 1_555
C5D C5M 1_555 1_555
O1H Zn1B_2 1_555 1_555
C3H C5M 1_555 1_555
C4H C5H 1_555 1_555
C4H C5M 1_555 1_555
H2H C4M 1_555 1_555
C5H C3M 1_555 1_555
C5H C4M 1_555 1_555
C5H C5M 1_555 1_555
C3M C4M 1_555 1_555
C4M H2M 1_555 1_555
C4M C5M 1_555 1_555

#END
