
#######################################################################
#
#                 Cambridge Crystallographic Data Centre
#                                CCDC 
#
#######################################################################
#
# If this CIF has been generated from an entry in the Cambridge 
# Structural Database, then it will include bibliographic, chemical, 
# crystal, experimental, refinement or atomic coordinate data resulting 
# from the CCDC's data processing and validation procedures.
#
#######################################################################

data_TADWEC
_chemical_formula_moiety         
'(C55 H43 N1 O12 Zn2)n,4.3n(C3 H7 N1 O1),2n(C2 H6 O1),n(H2 O1)'
_chemical_name_systematic        
"catena-[(\m~7~-(R)-2,2'-Diethoxy-1,1'-binaphthyl-4,4',6,6'-tetrabenzoato)- aqua-(dimethylformamide-O)-di-zinc dimethylformamide ethanol solvate monohydrate]"
_symmetry_cell_setting           orthorhombic
_symmetry_space_group_name_H-M   'I 21 21 21'
_symmetry_Int_Tables_number      24
_space_group_name_Hall           'I 2b 2c'
loop_
_symmetry_equiv_pos_site_id
_symmetry_equiv_pos_as_xyz
1 x,y,z
2 1/2-x,-y,1/2+z
3 -x,1/2+y,1/2-z
4 1/2+x,1/2-y,-z
5 1/2+x,1/2+y,1/2+z
6 -x,1/2-y,z
7 1/2-x,y,-z
8 x,-y,1/2-z
_cell_length_a                   13.0884(3)
_cell_length_b                   28.7131(7)
_cell_length_c                   42.8771(11)
_cell_angle_alpha                90
_cell_angle_beta                 90
_cell_angle_gamma                90
_cell_volume                     16113.6
_exptl_crystal_colour            colorless
_exptl_crystal_description       block
_cell_formula_units_Z            8
loop_
_atom_site_label
_atom_site_type_symbol
_atom_site_fract_x
_atom_site_fract_y
_atom_site_fract_z
Zn1 Zn -0.08472(7) -0.56306(3) 0.074100(16)
Zn2 Zn 0.08951(7) -0.64453(3) 0.068090(17)
O1 O 0.4102(5) -0.30030(18) 0.24727(9)
O2 O 0.6674(4) -0.3448(2) 0.27942(12)
O3 O 0.0191(4) -0.18017(17) 0.41325(11)
O4 O 0.1385(4) -0.1242(2) 0.40919(12)
O5 O 0.1525(5) -0.6067(2) 0.10192(12)
O6 O 0.0282(5) -0.5550(3) 0.10416(15)
O7 O 0.6120(6) -0.4209(2) 0.52900(12)
O8 O 0.4485(5) -0.3962(2) 0.53492(12)
O9 O 0.8062(5) -0.5305(2) 0.09650(14)
O10 O 0.8707(13) -0.4592(5) 0.0891(3)
O11 O 0.1974(4) -0.6865(2) 0.05375(14)
O12 O -0.0263(6) -0.4985(3) 0.05329(19)
H1 H -0.0283 -0.5006 0.0338
H2 H -0.0052 -0.4747 0.0654
C1 C 0.2751(6) -0.4936(3) 0.18253(18)
C2 C 0.1839(7) -0.4796(3) 0.1720(2)
H3 H 0.1539 -0.4524 0.1807
C3 C 0.1311(7) -0.5038(3) 0.1486(2)
H4 H 0.0687 -0.4917 0.1406
C4 C 0.1699(6) -0.5449(3) 0.13698(17)
C5 C 0.2620(6) -0.5612(3) 0.14875(18)
H5 H 0.2893 -0.5902 0.1421
C6 C 0.3135(7) -0.5341(3) 0.17061(17)
H6 H 0.3787 -0.5442 0.1776
C7 C 0.3353(7) -0.4652(3) 0.20491(18)
C8 C 0.2926(6) -0.4395(3) 0.22857(16)
H7 H 0.2205 -0.4409 0.2310
C9 C 0.4362(8) -0.4619(3) 0.20107(16)
H8 H 0.4678 -0.4795 0.1850
C10 C 0.4986(7) -0.4327(3) 0.22033(19)
C11 C 0.3472(6) -0.4116(3) 0.24912(16)
H9 H 0.3139 -0.3958 0.2657
C12 C 0.4537(6) -0.4073(3) 0.24466(15)
C13 C 0.6119(6) -0.4234(3) 0.21552(17)
C14 C 0.6629(5) -0.4432(3) 0.18746(14)
C15 C 0.6770(5) -0.4903(2) 0.18109(15)
H10 H 0.6532 -0.5131 0.1954
C16 C 0.7259(5) -0.5039(2) 0.15380(17)
H11 H 0.7356 -0.5360 0.1494
C17 C 0.7607(7) -0.4705(3) 0.13288(14)
C18 C 0.7466(8) -0.4234(3) 0.13925(18)
H12 H 0.7704 -0.4006 0.1250
C19 C 0.6977(7) -0.4098(2) 0.1665(2)
H13 H 0.6880 -0.3777 0.1709
C20 C 0.6635(7) -0.3970(3) 0.2347(2)
H14 H 0.7346 -0.3927 0.2313
C21 C 0.6149(6) -0.3740(3) 0.26106(16)
C22 C 0.5118(5) -0.3780(3) 0.26501(16)
C23 C 0.6035(7) -0.4033(2) 0.46433(15)
H15 H 0.6668 -0.4135 0.4727
C24 C 0.5202(8) -0.3948(2) 0.48366(16)
C25 C 0.5918(6) -0.3964(2) 0.43213(14)
H16 H 0.6477 -0.4021 0.4185
C26 C 0.4997(6) -0.3813(2) 0.41998(14)
C27 C 0.4184(7) -0.3727(2) 0.44037(16)
H17 H 0.3557 -0.3618 0.4320
C28 C 0.4256(7) -0.3794(3) 0.47155(15)
H18 H 0.3688 -0.3739 0.4849
C29 C 0.4871(5) -0.3715(3) 0.38557(14)
C30 C 0.5384(5) -0.4000(2) 0.36370(15)
H19 H 0.5814 -0.4244 0.3708
C31 C 0.5271(5) -0.3927(2) 0.33253(14)
H20 H 0.5590 -0.4134 0.3183
C32 C 0.4305(5) -0.3356(2) 0.37550(13)
H21 H 0.3996 -0.3156 0.3904
C33 C 0.4152(5) -0.3264(2) 0.34271(13)
C34 C 0.4703(4) -0.3558(3) 0.32100(14)
C35 C 0.4638(5) -0.3463(2) 0.28864(14)
C36 C 0.4053(6) -0.3075(3) 0.27903(15)
C37 C 0.3596(5) -0.2792(3) 0.30082(15)
H22 H 0.3263 -0.2518 0.2938
C38 C 0.3597(5) -0.2886(2) 0.33181(14)
C39 C 0.2993(5) -0.2573(3) 0.35259(14)
C40 C 0.2172(6) -0.2728(2) 0.36899(17)
H23 H 0.2014 -0.3051 0.3688
C41 C 0.3181(5) -0.2092(3) 0.35378(15)
H24 H 0.3738 -0.1965 0.3424
C42 C 0.1555(6) -0.2426(3) 0.38606(17)
H25 H 0.0988 -0.2549 0.3972
C43 C 0.2590(6) -0.1812(3) 0.37066(17)
H26 H 0.2748 -0.1490 0.3716
C44 C 0.1731(6) -0.1981(3) 0.38723(15)
C45 C 0.7787(7) -0.3480(4) 0.2810(3)
H27 H 0.8065 -0.3196 0.2910
H28 H 0.8070 -0.3500 0.2596
C46 C 0.8105(9) -0.3905(4) 0.2995(3)
H29 H 0.8852 -0.3921 0.3004
H30 H 0.7838 -0.4186 0.2894
H31 H 0.7831 -0.3883 0.3207
C47 C 0.3584(8) -0.2590(4) 0.23579(19)
H32 H 0.3693 -0.2321 0.2499
H33 H 0.3823 -0.2506 0.2146
C48 C 0.2588(16) -0.2721(6) 0.2355(4)
H34 H 0.2165 -0.2460 0.2284
H35 H 0.2379 -0.2813 0.2565
H36 H 0.2500 -0.2985 0.2212
C49 C 0.1044(7) -0.1643(3) 0.40482(15)
C50 C 0.5298(9) -0.4054(3) 0.5191(2)
C51 C 0.1116(7) -0.5713(3) 0.11273(17)
C52 C 0.8004(15) -0.4911(8) 0.1011(4)
N1 N 0.2377(12) -0.7607(5) 0.0375(3)
C53 C 0.1591(10) -0.7265(4) 0.0385(3)
H37 H 0.0921 -0.7299 0.0302
C54 C 0.1998(11) -0.8084(5) 0.0226(3)
H38 H 0.1255 -0.8074 0.0198
H39 H 0.2179 -0.8343 0.0364
H40 H 0.2328 -0.8128 0.0022
C55 C 0.3477(11) -0.7572(5) 0.0488(3)
H41 H 0.3573 -0.7277 0.0599
H42 H 0.3940 -0.7584 0.0309
H43 H 0.3626 -0.7832 0.0629
Zn1B Zn 0.08472(7) -0.06306(3) 0.425900(16)
Zn1A Zn 0.58472(7) -0.43694(3) 0.574100(16)
Zn1_2 Zn 0.91528(7) -0.56306(3) 0.074100(16)
Zn2B Zn -0.08951(7) -0.14453(3) 0.431910(17)
Zn2A Zn 0.41049(7) -0.35547(3) 0.568090(17)
O3B O -0.0191(4) -0.68017(17) 0.08675(11)
O4B O -0.1385(4) -0.6242(2) 0.09081(12)
O7A O -0.1120(6) -0.5791(2) 0.02900(12)
O8A O 0.0515(5) -0.6038(2) 0.03492(12)
O9_2 O -0.1938(5) -0.5305(2) 0.09650(14)
loop_
_geom_bond_atom_site_label_1
_geom_bond_atom_site_label_2
_geom_bond_site_symmetry_1
_geom_bond_site_symmetry_2
Zn1 O6 1_555 1_555
Zn2 O5 1_555 1_555
O1 C36 1_555 1_555
O2 C21 1_555 1_555
O3 C49 1_555 1_555
O4 C49 1_555 1_555
O5 C51 1_555 1_555
O6 C51 1_555 1_555
O7 C50 1_555 1_555
O8 C50 1_555 1_555
O9 C52 1_555 1_555
O10 C52 1_555 1_555
O11 Zn2 1_555 1_555
O12 Zn1 1_555 1_555
H1 O12 1_555 1_555
H2 O12 1_555 1_555
C1 C2 1_555 1_555
C2 H3 1_555 1_555
C3 C2 1_555 1_555
H4 C3 1_555 1_555
C4 C3 1_555 1_555
C5 C4 1_555 1_555
H5 C5 1_555 1_555
C6 C1 1_555 1_555
H6 C6 1_555 1_555
C7 C1 1_555 1_555
C8 C7 1_555 1_555
H7 C8 1_555 1_555
C9 C7 1_555 1_555
H8 C9 1_555 1_555
C10 C9 1_555 1_555
C11 C8 1_555 1_555
H9 C11 1_555 1_555
C12 C10 1_555 1_555
C13 C10 1_555 1_555
C14 C13 1_555 1_555
C15 C14 1_555 1_555
H10 C15 1_555 1_555
C16 C15 1_555 1_555
H11 C16 1_555 1_555
C17 C16 1_555 1_555
C18 C17 1_555 1_555
H12 C18 1_555 1_555
C19 C14 1_555 1_555
H13 C19 1_555 1_555
C20 C13 1_555 1_555
H14 C20 1_555 1_555
C21 C20 1_555 1_555
C22 C12 1_555 1_555
C23 H15 1_555 1_555
C24 C23 1_555 1_555
C25 C23 1_555 1_555
H16 C25 1_555 1_555
C26 C25 1_555 1_555
C27 C26 1_555 1_555
H17 C27 1_555 1_555
C28 C24 1_555 1_555
H18 C28 1_555 1_555
C29 C26 1_555 1_555
C30 C29 1_555 1_555
H19 C30 1_555 1_555
C31 C30 1_555 1_555
H20 C31 1_555 1_555
C32 C29 1_555 1_555
H21 C32 1_555 1_555
C33 C32 1_555 1_555
C34 C31 1_555 1_555
C35 C22 1_555 1_555
C36 C35 1_555 1_555
C37 C36 1_555 1_555
H22 C37 1_555 1_555
C38 C33 1_555 1_555
C39 C38 1_555 1_555
C40 C39 1_555 1_555
H23 C40 1_555 1_555
C41 C39 1_555 1_555
H24 C41 1_555 1_555
C42 C40 1_555 1_555
H25 C42 1_555 1_555
C43 C41 1_555 1_555
H26 C43 1_555 1_555
C44 C42 1_555 1_555
C45 O2 1_555 1_555
H27 C45 1_555 1_555
H28 C45 1_555 1_555
C46 C45 1_555 1_555
H29 C46 1_555 1_555
H30 C46 1_555 1_555
H31 C46 1_555 1_555
C47 O1 1_555 1_555
H32 C47 1_555 1_555
H33 C47 1_555 1_555
C48 C47 1_555 1_555
H34 C48 1_555 1_555
H35 C48 1_555 1_555
H36 C48 1_555 1_555
C49 C44 1_555 1_555
C50 C24 1_555 1_555
C51 C4 1_555 1_555
C52 C17 1_555 1_555
N1 C53 1_555 1_555
C53 O11 1_555 1_555
H37 C53 1_555 1_555
C54 N1 1_555 1_555
H38 C54 1_555 1_555
H39 C54 1_555 1_555
H40 C54 1_555 1_555
C55 N1 1_555 1_555
H41 C55 1_555 1_555
H42 C55 1_555 1_555
H43 C55 1_555 1_555
Zn1B O4 1_555 1_555
Zn1A O7 1_555 1_555
Zn1_2 O9 1_555 1_555
Zn2B O3 1_555 1_555
Zn2A O8 1_555 1_555
O3B Zn2 1_555 1_555
O4B Zn1 1_555 1_555
O7A Zn1 1_555 1_555
O8A Zn2 1_555 1_555
O9_2 Zn1 1_555 1_555
C5 C6 1_555 1_555
C11 C12 1_555 1_555
C18 C19 1_555 1_555
C21 C22 1_555 1_555
C27 C28 1_555 1_555
C33 C34 1_555 1_555
C34 C35 1_555 1_555
C37 C38 1_555 1_555
C43 C44 1_555 1_555

#END
