
#######################################################################
#
#                 Cambridge Crystallographic Data Centre
#                                CCDC 
#
#######################################################################
#
# If this CIF has been generated from an entry in the Cambridge 
# Structural Database, then it will include bibliographic, chemical, 
# crystal, experimental, refinement or atomic coordinate data resulting 
# from the CCDC's data processing and validation procedures.
#
#######################################################################

data_TADWIG
_chemical_formula_moiety         
'(C51 H35 N1 O12 Zn2)n,4.3n(C3 H7 N1 O1),2n(C2 H6 O1),4n(H2 O1)'
_chemical_name_systematic        
"catena-[(\m~7~-(R)-2,2'-Hydroxy-1,1'-binaphthyl-4,4',6,6'-tetrabenzoato)- aqua-(dimethylformamide-O)-di-zinc dimethylformamide ethanol solvate tetrahydrate]"
_symmetry_cell_setting           orthorhombic
_symmetry_space_group_name_H-M   'I 21 21 21'
_symmetry_Int_Tables_number      24
_space_group_name_Hall           'I 2b 2c'
loop_
_symmetry_equiv_pos_site_id
_symmetry_equiv_pos_as_xyz
1 x,y,z
2 1/2-x,-y,1/2+z
3 -x,1/2+y,1/2-z
4 1/2+x,1/2-y,-z
5 1/2+x,1/2+y,1/2+z
6 -x,1/2-y,z
7 1/2-x,y,-z
8 x,-y,1/2-z
_cell_length_a                   12.7526(10)
_cell_length_b                   26.9066(19)
_cell_length_c                   44.199(3)
_cell_angle_alpha                90
_cell_angle_beta                 90
_cell_angle_gamma                90
_cell_volume                     15166
_exptl_crystal_colour            colorless
_exptl_crystal_description       block
_cell_formula_units_Z            8
loop_
_atom_site_label
_atom_site_type_symbol
_atom_site_fract_x
_atom_site_fract_y
_atom_site_fract_z
Zn1 Zn 0.57996(5) 0.54605(3) 0.927513(12)
Zn2 Zn 0.40281(5) 0.63291(2) 0.935190(12)
O1 O -0.1840(3) 0.35087(15) 0.70980(8)
H1 H -0.1438 0.3406 0.6961
O2 O 0.1010(3) 0.30034(14) 0.74346(6)
H2 H 0.1399 0.2755 0.7459
O3 O 0.3360(3) 0.59702(17) 0.90172(8)
O4 O 0.4610(3) 0.54001(19) 0.89839(10)
O5 O -0.3828(7) 0.4376(2) 0.90286(15)
O6 O -0.3114(3) 0.51549(17) 0.90165(9)
O7 O 0.3745(3) 0.1120(2) 0.58884(9)
O8 O 0.4850(3) 0.17369(15) 0.57986(9)
O9 O 0.0492(4) 0.41339(16) 0.46573(8)
O10 O -0.1155(4) 0.43315(16) 0.47101(8)
O11 O 0.5281(4) 0.47601(17) 0.94625(11)
C1 C 0.3783(5) 0.5588(3) 0.88980(12)
C2 C 0.3249(4) 0.5347(2) 0.86419(12)
C3 C 0.2293(5) 0.5549(2) 0.85329(13)
H3 H 0.2011 0.5845 0.8617
C4 C 0.1775(5) 0.5299(2) 0.82988(13)
H4 H 0.1121 0.5427 0.8232
C5 C 0.2160(5) 0.4879(3) 0.81606(11)
C6 C 0.3116(5) 0.4700(3) 0.82709(13)
H5 H 0.3408 0.4407 0.8184
C7 C 0.3639(5) 0.4933(3) 0.84989(14)
H6 H 0.4298 0.4804 0.8562
C8 C 0.1549(5) 0.4611(2) 0.79321(12)
C9 C 0.0489(5) 0.4577(2) 0.79444(12)
H7 H 0.0145 0.4740 0.8107
C10 C -0.0141(5) 0.4320(2) 0.77372(12)
C11 C -0.1242(5) 0.4239(3) 0.77644(13)
C12 C -0.1794(5) 0.3991(2) 0.75485(12)
H8 H -0.2535 0.3967 0.7566
C13 C -0.1287(5) 0.3769(2) 0.73011(11)
C14 C -0.0223(5) 0.3804(2) 0.72678(11)
C15 C 0.0361(4) 0.4087(2) 0.74837(11)
C16 C 0.1456(5) 0.4141(2) 0.74641(13)
H9 H 0.1808 0.3995 0.7297
C17 C 0.2054(5) 0.4399(2) 0.76787(12)
H10 H 0.2791 0.4431 0.7654
C18 C -0.1799(5) 0.4401(4) 0.80481(16)
C19 C -0.2205(8) 0.3995(4) 0.82354(19)
H11 H -0.2102 0.3659 0.8176
C20 C -0.2747(8) 0.4106(4) 0.85031(18)
H12 H -0.3096 0.3854 0.8615
C21 C -0.2755(6) 0.4617(3) 0.86019(16)
C22 C -0.2418(5) 0.4990(3) 0.84277(14)
H13 H -0.2495 0.5326 0.8491
C23 C -0.1937(5) 0.4871(3) 0.81419(16)
H14 H -0.1708 0.5135 0.8015
C24 C 0.0354(4) 0.3499(2) 0.70401(11)
C25 C 0.0916(5) 0.3101(2) 0.71336(11)
C26 C 0.1481(4) 0.2798(2) 0.69200(11)
H15 H 0.1889 0.2526 0.6990
C27 C 0.1436(4) 0.2897(2) 0.66224(11)
C28 C 0.0814(4) 0.3287(2) 0.65072(10)
C29 C 0.0675(4) 0.3386(2) 0.61990(10)
H16 H 0.1024 0.3181 0.6056
C30 C 0.0049(4) 0.3772(2) 0.60926(10)
C31 C -0.0467(4) 0.4076(2) 0.63081(11)
H17 H -0.0880 0.4349 0.6242
C32 C -0.3239(8) 0.4743(4) 0.8913(2)
C33 C -0.0375(4) 0.3979(2) 0.66095(11)
H18 H -0.0758 0.4178 0.6749
C34 C 0.0266(4) 0.3596(2) 0.67219(11)
C35 C 0.2065(4) 0.2560(3) 0.64185(11)
C36 C 0.2870(5) 0.2755(2) 0.62274(13)
H19 H 0.2974 0.3103 0.6212
C37 C 0.3498(5) 0.2430(3) 0.60643(12)
H20 H 0.4051 0.2558 0.5943
C38 C 0.3327(5) 0.1913(3) 0.60755(12)
C39 C 0.2547(4) 0.1731(2) 0.62654(11)
H21 H 0.2445 0.1382 0.6281
C40 C 0.1921(4) 0.2047(3) 0.64307(11)
H22 H 0.1382 0.1913 0.6555
C41 C 0.4028(6) 0.1573(3) 0.59130(12)
C42 C 0.0775(5) 0.3795(2) 0.55766(11)
H23 H 0.1410 0.3666 0.5657
C43 C -0.0070(4) 0.3880(2) 0.57653(11)
C44 C 0.0697(5) 0.3900(2) 0.52610(12)
H24 H 0.1291 0.3861 0.5133
C45 C -0.0264(5) 0.4060(2) 0.51404(11)
C46 C -0.1102(4) 0.4136(2) 0.53330(11)
H25 H -0.1742 0.4263 0.5255
C47 C -0.1018(4) 0.40264(19) 0.56427(10)
H26 H -0.1617 0.4053 0.5769
C48 C -0.0325(6) 0.4177(3) 0.48242(13)
O12 O 0.3012(4) 0.68016(18) 0.95180(11)
N1 N 0.2780(7) 0.7570(4) 0.96334(19)
C49 C 0.1525(8) 0.7605(4) 0.9521(2)
H27 H 0.1332 0.7299 0.9415
H28 H 0.1438 0.7890 0.9385
H29 H 0.1072 0.7648 0.9699
C50 C 0.2960(10) 0.8047(4) 0.9767(2)
H30 H 0.2578 0.8302 0.9653
H31 H 0.3712 0.8122 0.9764
H32 H 0.2712 0.8045 0.9977
C51 C 0.3199(4) 0.7031(2) 0.96948(12)
H33 H 0.3572 0.6931 0.9871
Zn1_2 Zn -0.42004(5) 0.54605(3) 0.927513(12)
Zn1B Zn 0.42004(5) 0.04605(3) 0.572487(12)
Zn1A Zn -0.07996(5) 0.45395(3) 0.427513(12)
Zn2B Zn 0.59719(5) 0.13291(2) 0.564810(12)
Zn2A Zn 0.09719(5) 0.36709(2) 0.435190(12)
O6_2 O 0.6886(3) 0.51549(17) 0.90165(9)
O7B O 0.6255(3) 0.6120(2) 0.91116(9)
O8B O 0.5150(3) 0.67369(15) 0.92014(9)
O9A O 0.4508(4) 0.58661(16) 0.96573(8)
O10A O 0.6155(4) 0.56685(16) 0.97101(8)
loop_
_geom_bond_atom_site_label_1
_geom_bond_atom_site_label_2
_geom_bond_site_symmetry_1
_geom_bond_site_symmetry_2
Zn1 O4 1_555 1_555
Zn2 O3 1_555 1_555
O1 H1 1_555 1_555
O2 H2 1_555 1_555
O3 C1 1_555 1_555
O4 C1 1_555 1_555
O5 C32 1_555 1_555
O6 C32 1_555 1_555
O7 C41 1_555 1_555
O8 C41 1_555 1_555
O9 C48 1_555 1_555
O10 C48 1_555 1_555
O11 Zn1 1_555 1_555
C1 C2 1_555 1_555
C2 C3 1_555 1_555
C3 H3 1_555 1_555
C4 C3 1_555 1_555
H4 C4 1_555 1_555
C5 C4 1_555 1_555
C6 C5 1_555 1_555
H5 C6 1_555 1_555
C7 C2 1_555 1_555
H6 C7 1_555 1_555
C8 C5 1_555 1_555
C9 C8 1_555 1_555
H7 C9 1_555 1_555
C10 C9 1_555 1_555
C11 C10 1_555 1_555
C12 C11 1_555 1_555
H8 C12 1_555 1_555
C13 O1 1_555 1_555
C14 C13 1_555 1_555
C15 C10 1_555 1_555
C16 C15 1_555 1_555
H9 C16 1_555 1_555
C17 C8 1_555 1_555
H10 C17 1_555 1_555
C18 C11 1_555 1_555
C19 C18 1_555 1_555
H11 C19 1_555 1_555
C20 C19 1_555 1_555
H12 C20 1_555 1_555
C21 C20 1_555 1_555
C22 C21 1_555 1_555
H13 C22 1_555 1_555
C23 C18 1_555 1_555
H14 C23 1_555 1_555
C24 C14 1_555 1_555
C25 O2 1_555 1_555
C26 C25 1_555 1_555
H15 C26 1_555 1_555
C27 C26 1_555 1_555
C28 C27 1_555 1_555
C29 C28 1_555 1_555
H16 C29 1_555 1_555
C30 C29 1_555 1_555
C31 C30 1_555 1_555
H17 C31 1_555 1_555
C32 C21 1_555 1_555
C33 C31 1_555 1_555
H18 C33 1_555 1_555
C34 C24 1_555 1_555
C35 C27 1_555 1_555
C36 C35 1_555 1_555
H19 C36 1_555 1_555
C37 C36 1_555 1_555
H20 C37 1_555 1_555
C38 C37 1_555 1_555
C39 C38 1_555 1_555
H21 C39 1_555 1_555
C40 C35 1_555 1_555
H22 C40 1_555 1_555
C41 C38 1_555 1_555
C42 H23 1_555 1_555
C43 C30 1_555 1_555
C44 C42 1_555 1_555
H24 C44 1_555 1_555
C45 C44 1_555 1_555
C46 C45 1_555 1_555
H25 C46 1_555 1_555
C47 C43 1_555 1_555
H26 C47 1_555 1_555
C48 C45 1_555 1_555
O12 Zn2 1_555 1_555
N1 C49 1_555 1_555
C49 H27 1_555 1_555
H28 C49 1_555 1_555
H29 C49 1_555 1_555
C50 N1 1_555 1_555
H30 C50 1_555 1_555
H31 C50 1_555 1_555
H32 C50 1_555 1_555
C51 O12 1_555 1_555
H33 C51 1_555 1_555
Zn1_2 O6 1_555 1_555
Zn1B O7 1_555 1_555
Zn1A O10 1_555 1_555
Zn2B O8 1_555 1_555
Zn2A O9 1_555 1_555
O6_2 Zn1 1_555 1_555
O7B Zn1 1_555 1_555
O8B Zn2 1_555 1_555
O9A Zn2 1_555 1_555
O10A Zn1 1_555 1_555
C6 C7 1_555 1_555
C12 C13 1_555 1_555
C14 C15 1_555 1_555
C16 C17 1_555 1_555
C22 C23 1_555 1_555
C24 C25 1_555 1_555
C28 C34 1_555 1_555
C33 C34 1_555 1_555
C39 C40 1_555 1_555
C42 C43 1_555 1_555
C46 C47 1_555 1_555
N1 C51 1_555 1_555

#END
