
#######################################################################
#
#                 Cambridge Crystallographic Data Centre
#                                CCDC 
#
#######################################################################
#
# If this CIF has been generated from an entry in the Cambridge 
# Structural Database, then it will include bibliographic, chemical, 
# crystal, experimental, refinement or atomic coordinate data resulting 
# from the CCDC's data processing and validation procedures.
#
#######################################################################

data_TADWOM
_chemical_formula_moiety         '(C102 H66 O24 Ti1 Zn4)n'
_chemical_name_systematic        
catena-[bis(\m~8~-(R)-2,2'-Oxido-1,1'-binaphthyl-4,4',6,6'-tetrabenzoato)-diaqua-bis(isopropanolato-O)-titanium-tetra-zinc]
_symmetry_cell_setting           orthorhombic
_symmetry_space_group_name_H-M   'I 21 21 21'
_symmetry_Int_Tables_number      24
_space_group_name_Hall           'I 2b 2c'
loop_
_symmetry_equiv_pos_site_id
_symmetry_equiv_pos_as_xyz
1 x,y,z
2 1/2-x,-y,1/2+z
3 -x,1/2+y,1/2-z
4 1/2+x,1/2-y,-z
5 1/2+x,1/2+y,1/2+z
6 -x,1/2-y,z
7 1/2-x,y,-z
8 x,-y,1/2-z
_cell_length_a                   13.1451(4)
_cell_length_b                   31.9683(10)
_cell_length_c                   38.8933(12)
_cell_angle_alpha                90
_cell_angle_beta                 90
_cell_angle_gamma                90
_cell_volume                     16344
_exptl_crystal_colour            orange
_exptl_crystal_description       block
_cell_formula_units_Z            4
loop_
_atom_site_label
_atom_site_type_symbol
_atom_site_fract_x
_atom_site_fract_y
_atom_site_fract_z
Zn1 Zn 0.40127(9) 0.40996(4) 0.92564(3)
Zn2 Zn 0.58418(11) 0.34137(5) 0.92783(4)
C1 C 0.0121(7) 0.1385(2) 0.7313(2)
C2 C -0.0807(7) 0.1492(3) 0.7166(3)
C3 C -0.1238(6) 0.1237(3) 0.6916(3)
H1 H -0.1859 0.1309 0.6818
C4 C -0.0741(6) 0.0874(3) 0.6813(2)
C5 C 0.0187(6) 0.0767(2) 0.6960(2)
C6 C 0.0618(5) 0.1022(2) 0.7210(2)
C7 C 0.1564(9) 0.0921(4) 0.7348(3)
H2 H 0.1828 0.1086 0.7524
C8 C 0.2137(13) 0.0574(4) 0.7230(4)
H3 H 0.2768 0.0512 0.7325
C9 C 0.1718(10) 0.0315(4) 0.6955(3)
C10 C 0.0758(10) 0.0421(3) 0.6833(4)
H4 H 0.0475 0.0258 0.6660
C11 C 0.0516(6) 0.1674(2) 0.76165(16)
C12 C 0.1038(7) 0.2033(2) 0.75183(13)
C13 C 0.1507(6) 0.2281(2) 0.77653(18)
H5 H 0.1857 0.2521 0.7700
C14 C 0.1454(5) 0.2170(2) 0.81105(16)
C15 C 0.0932(5) 0.1811(2) 0.82086(13)
C16 C 0.0463(5) 0.15631(17) 0.79617(18)
C17 C -0.0062(8) 0.1213(3) 0.8075(3)
H6 H -0.0356 0.1040 0.7911
C18 C -0.0172(8) 0.1110(3) 0.8404(3)
H7 H -0.0537 0.0871 0.8462
C19 C 0.0261(7) 0.1361(3) 0.8668(2)
C20 C 0.0819(6) 0.1710(3) 0.8562(2)
H8 H 0.1125 0.1879 0.8727
C21 C 0.2059(5) 0.2440(2) 0.83514(18)
C22 C 0.1771(4) 0.2854(2) 0.83999(19)
H9 H 0.1194 0.2958 0.8291
C23 C 0.2347(5) 0.31132(17) 0.8611(2)
H10 H 0.2154 0.3390 0.8643
C24 C 0.3210(5) 0.2958(2) 0.87734(17)
C25 C 0.3498(5) 0.2544(2) 0.87249(19)
H11 H 0.4075 0.2440 0.8834
C26 C 0.2923(5) 0.22848(17) 0.8514(2)
H12 H 0.3115 0.2008 0.8481
O1 O 0.4755(6) 0.3120(2) 0.9058(2)
O2 O 0.3467(6) 0.3585(3) 0.9058(2)
C27 C 0.0134(5) 0.1275(2) 0.90392(14)
C28 C 0.0940(4) 0.1350(3) 0.92618(19)
H13 H 0.1560 0.1444 0.9176
C29 C 0.0822(5) 0.1285(3) 0.96128(18)
H14 H 0.1361 0.1336 0.9762
C30 C -0.0104(6) 0.1145(2) 0.97414(14)
C31 C -0.0911(5) 0.1069(2) 0.95188(19)
H15 H -0.1530 0.0975 0.9605
C32 C -0.0792(4) 0.1134(2) 0.91677(18)
H16 H -0.1332 0.1084 0.9019
O3 O 0.0467(9) 0.1292(4) 1.0304(2)
O4 O -0.0906(9) 0.0936(3) 1.0243(2)
C33 C -0.1248(8) 0.0594(3) 0.6552(2)
C34 C -0.1450(10) 0.0739(2) 0.6222(3)
H17 H -0.1249 0.1007 0.6159
C35 C -0.1952(10) 0.0484(3) 0.5988(2)
H18 H -0.2087 0.0582 0.5767
C36 C -0.2252(8) 0.0084(3) 0.6083(3)
C37 C -0.2051(8) -0.0062(2) 0.6412(3)
H19 H -0.2251 -0.0330 0.6476
C38 C -0.1549(9) 0.0193(3) 0.6647(2)
H20 H -0.1414 0.0096 0.6868
O5 O 0.3598(7) -0.1212(3) 0.6074(3)
O6 O 0.4798(6) -0.0736(3) 0.6027(3)
C39 C 0.2331(6) -0.0012(3) 0.6788(3)
C40 C 0.1919(5) -0.0397(3) 0.6698(3)
H21 H 0.1278 -0.0473 0.6778
C41 C 0.2465(6) -0.0669(2) 0.6489(2)
H22 H 0.2189 -0.0927 0.6429
C42 C 0.3422(6) -0.0556(3) 0.6370(2)
C43 C 0.3834(5) -0.0171(3) 0.6460(3)
H23 H 0.4475 -0.0095 0.6380
C44 C 0.3288(6) 0.0101(3) 0.6669(3)
H24 H 0.3564 0.0359 0.6729
C45 C -0.2783(11) -0.0189(4) 0.5828(4)
C46 C 0.4014(11) -0.0855(5) 0.6125(4)
C47 C 0.3851(9) 0.3247(4) 0.8969(3)
C48 C -0.0267(13) 0.1102(5) 1.0114(3)
O7 O -0.2769(16) -0.0082(7) 0.5517(5)
O8 O -0.3023(6) -0.0526(3) 0.5931(2)
O9 O -0.1260(10) 0.1880(4) 0.7232(3)
O10 O 0.1072(8) 0.2169(3) 0.7180(3)
O11 O 0.6892(5) 0.2976(2) 0.9478(3)
Ti1 Ti 0.0000 0.2500 0.6909(4)
O13 O 0.1355 0.2628 0.6500
C52 C 0.1645 0.2255 0.6364
H32 H 0.2169 0.2157 0.6524
C53 C 0.2222 0.2306 0.6025
H33 H 0.1776 0.2421 0.5854
H34 H 0.2465 0.2038 0.5949
H35 H 0.2791 0.2490 0.6059
C54 C 0.0846 0.1905 0.6373
H36 H 0.0956 0.1734 0.6572
H37 H 0.0906 0.1737 0.6169
H38 H 0.0179 0.2027 0.6382
Zn1E Zn -0.40127(9) 0.09004(4) 0.92564(3)
Zn1C Zn -0.09873(9) 0.09004(4) 1.07436(3)
Zn1B Zn 0.59873(9) -0.09004(4) 0.57436(3)
Zn1B_2 Zn -0.40127(9) -0.09004(4) 0.57436(3)
Zn1F Zn 0.09873(9) 0.40996(4) 1.07436(3)
Zn1G Zn -0.59873(9) 0.59004(4) 0.57436(3)
Zn1G_2 Zn 0.40127(9) 0.59004(4) 0.57436(3)
Zn2E Zn -0.58418(11) 0.15863(5) 0.92783(4)
Zn2C Zn 0.08418(11) 0.15863(5) 1.07217(4)
Zn2B Zn 0.41582(11) -0.15863(5) 0.57217(4)
Zn2F Zn -0.08418(11) 0.34137(5) 1.07217(4)
Zn2G Zn -0.41582(11) 0.65863(5) 0.57217(4)
C1E C -0.0121(7) 0.3615(2) 0.7313(2)
C2E C 0.0807(7) 0.3508(3) 0.7166(3)
C3E C 0.1238(6) 0.3763(3) 0.6916(3)
H1E H 0.1859 0.3691 0.6818
C4E C 0.0741(6) 0.4126(3) 0.6813(2)
C5E C -0.0187(6) 0.4233(2) 0.6960(2)
C6E C -0.0618(5) 0.3978(2) 0.7210(2)
C7E C -0.1564(9) 0.4079(4) 0.7348(3)
H2E H -0.1828 0.3914 0.7524
C8E C -0.2137(13) 0.4426(4) 0.7230(4)
H3E H -0.2768 0.4488 0.7325
C9E C -0.1718(10) 0.4685(4) 0.6955(3)
C10E C -0.0758(10) 0.4579(3) 0.6833(4)
H4E H -0.0475 0.4742 0.6660
C11E C -0.0516(6) 0.3326(2) 0.76165(16)
C12E C -0.1038(7) 0.2967(2) 0.75183(13)
C13E C -0.1507(6) 0.2719(2) 0.77653(18)
H5E H -0.1857 0.2479 0.7700
C14E C -0.1454(5) 0.2830(2) 0.81105(16)
C15E C -0.0932(5) 0.3189(2) 0.82086(13)
C16E C -0.0463(5) 0.34369(17) 0.79617(18)
C17E C 0.0062(8) 0.3787(3) 0.8075(3)
H6E H 0.0356 0.3960 0.7911
C18E C 0.0172(8) 0.3890(3) 0.8404(3)
H7E H 0.0537 0.4129 0.8462
C19E C -0.0261(7) 0.3639(3) 0.8668(2)
C20E C -0.0819(6) 0.3290(3) 0.8562(2)
H8E H -0.1125 0.3121 0.8727
C21E C -0.2059(5) 0.2560(2) 0.83514(18)
C22E C -0.1771(4) 0.2146(2) 0.83999(19)
H9E H -0.1194 0.2042 0.8291
C23E C -0.2347(5) 0.18868(17) 0.8611(2)
H10E H -0.2154 0.1610 0.8643
C24E C -0.3210(5) 0.2042(2) 0.87734(17)
C25E C -0.3498(5) 0.2456(2) 0.87249(19)
H11E H -0.4075 0.2560 0.8834
C26E C -0.2923(5) 0.27152(17) 0.8514(2)
H12E H -0.3115 0.2992 0.8481
O1E O -0.4755(6) 0.1880(2) 0.9058(2)
O2E O -0.3467(6) 0.1415(3) 0.9058(2)
C27E C -0.0134(5) 0.3725(2) 0.90392(14)
C28E C -0.0940(4) 0.3650(3) 0.92618(19)
H13E H -0.1560 0.3556 0.9176
C29E C -0.0822(5) 0.3715(3) 0.96128(18)
H14E H -0.1361 0.3664 0.9762
C30E C 0.0104(6) 0.3855(2) 0.97414(14)
C31E C 0.0911(5) 0.3931(2) 0.95188(19)
H15E H 0.1530 0.4025 0.9605
C32E C 0.0792(4) 0.3866(2) 0.91677(18)
H16E H 0.1332 0.3916 0.9019
O3E O -0.0467(9) 0.3708(4) 1.0304(2)
O3C O 0.5467(9) 0.3708(4) 0.9696(2)
O3F O -0.5467(9) 0.1292(4) 0.9696(2)
O4E O 0.0906(9) 0.4064(3) 1.0243(2)
O4C O 0.4094(9) 0.4064(3) 0.9757(2)
O4F O -0.4094(9) 0.0936(3) 0.9757(2)
C33E C 0.1248(8) 0.4406(3) 0.6552(2)
C34E C 0.1450(10) 0.4261(2) 0.6222(3)
H17E H 0.1249 0.3993 0.6159
C35E C 0.1952(10) 0.4516(3) 0.5988(2)
H18E H 0.2087 0.4418 0.5767
C36E C 0.2252(8) 0.4916(3) 0.6083(3)
C37E C 0.2051(8) 0.5062(2) 0.6412(3)
H19E H 0.2251 0.5330 0.6476
C38E C 0.1549(9) 0.4807(3) 0.6647(2)
H20E H 0.1414 0.4904 0.6868
O5E O -0.3598(7) 0.6212(3) 0.6074(3)
O5B O 0.6402(7) 0.3788(3) 0.8926(3)
O5G O -0.6402(7) 0.1212(3) 0.8926(3)
O6E O -0.4798(6) 0.5736(3) 0.6027(3)
O6B O 0.5202(6) 0.4264(3) 0.8973(3)
O6G O -0.5202(6) 0.0736(3) 0.8973(3)
C39E C -0.2331(6) 0.5012(3) 0.6788(3)
C40E C -0.1919(5) 0.5397(3) 0.6698(3)
H21E H -0.1278 0.5473 0.6778
C41E C -0.2465(6) 0.5669(2) 0.6489(2)
H22E H -0.2189 0.5927 0.6429
C42E C -0.3422(6) 0.5556(3) 0.6370(2)
C43E C -0.3834(5) 0.5171(3) 0.6460(3)
H23E H -0.4475 0.5095 0.6380
C44E C -0.3288(6) 0.4899(3) 0.6669(3)
H24E H -0.3564 0.4641 0.6729
C45E C 0.2783(11) 0.5189(4) 0.5828(4)
C46E C -0.4014(11) 0.5855(5) 0.6125(4)
C47E C -0.3851(9) 0.1753(4) 0.8969(3)
C48E C 0.0267(13) 0.3898(5) 1.0114(3)
O7E O 0.2769(16) 0.5082(7) 0.5517(5)
O8E O 0.3023(6) 0.5526(3) 0.5931(2)
O8B O 0.3023(6) 0.4474(3) 0.9069(2)
O8G O -0.3023(6) 0.0526(3) 0.9069(2)
O9E O 0.1260(10) 0.3120(4) 0.7232(3)
O10E O -0.1072(8) 0.2831(3) 0.7180(3)
O11E O -0.6892(5) 0.2024(2) 0.9478(3)
O13E O -0.1355 0.2372 0.6500
C52E C -0.1645 0.2745 0.6364
H32E H -0.2169 0.2843 0.6524
C53E C -0.2222 0.2694 0.6025
H33E H -0.1776 0.2579 0.5854
H34E H -0.2465 0.2962 0.5949
H35E H -0.2791 0.2510 0.6059
C54E C -0.0846 0.3095 0.6373
H36E H -0.0956 0.3266 0.6572
H37E H -0.0906 0.3263 0.6169
H38E H -0.0179 0.2973 0.6382
Ti2? Ti 0.1833(15) 0.2681(6) 0.6971(5)
O12? O 0.0000 0.2950 0.6550
C49? C 0.0903 0.2941 0.6380
H25? H 0.1210 0.2677 0.6456
C50? C 0.1646 0.3273 0.6511
H26? H 0.1978 0.3172 0.6715
H27? H 0.1281 0.3525 0.6564
H28? H 0.2146 0.3329 0.6337
C51? C 0.0841 0.2892 0.5988
H29? H 0.1129 0.2628 0.5923
H30? H 0.1212 0.3115 0.5880
H31? H 0.0142 0.2903 0.5917
O14? O 0.3270 0.2769 0.7030
C55? C 0.3736 0.3104 0.6884
H39? H 0.3329 0.3156 0.6677
C56? C 0.4788 0.2995 0.6742
H40? H 0.5231 0.2919 0.6927
H41? H 0.5063 0.3233 0.6623
H42? H 0.4729 0.2765 0.6584
C57? C 0.3662 0.3517 0.7083
H43? H 0.3104 0.3678 0.6995
H44? H 0.4283 0.3671 0.7057
H45? H 0.3551 0.3459 0.7323
loop_
_geom_bond_atom_site_label_1
_geom_bond_atom_site_label_2
_geom_bond_site_symmetry_1
_geom_bond_site_symmetry_2
Zn1 O2 1_555 1_555
Zn2 O1 1_555 1_555
C1 C2 1_555 1_555
C2 C3 1_555 1_555
C3 H1 1_555 1_555
C4 C3 1_555 1_555
C5 C4 1_555 1_555
C6 C1 1_555 1_555
C7 C6 1_555 1_555
H2 C7 1_555 1_555
C8 C7 1_555 1_555
H3 C8 1_555 1_555
C9 C8 1_555 1_555
C10 C5 1_555 1_555
H4 C10 1_555 1_555
C11 C1 1_555 1_555
C12 C11 1_555 1_555
C13 C12 1_555 1_555
H5 C13 1_555 1_555
C14 C13 1_555 1_555
C15 C14 1_555 1_555
C16 C11 1_555 1_555
C17 C16 1_555 1_555
H6 C17 1_555 1_555
C18 C17 1_555 1_555
H7 C18 1_555 1_555
C19 C18 1_555 1_555
C20 C15 1_555 1_555
H8 C20 1_555 1_555
C21 C14 1_555 1_555
C22 C21 1_555 1_555
H9 C22 1_555 1_555
C23 C22 1_555 1_555
H10 C23 1_555 1_555
C24 C23 1_555 1_555
C25 C24 1_555 1_555
H11 C25 1_555 1_555
C26 C21 1_555 1_555
H12 C26 1_555 1_555
O1 C47 1_555 1_555
O2 C47 1_555 1_555
C27 C19 1_555 1_555
C28 C27 1_555 1_555
H13 C28 1_555 1_555
C29 C28 1_555 1_555
H14 C29 1_555 1_555
C30 C29 1_555 1_555
C31 C30 1_555 1_555
H15 C31 1_555 1_555
C32 C27 1_555 1_555
H16 C32 1_555 1_555
O3 C48 1_555 1_555
O4 C48 1_555 1_555
C33 C4 1_555 1_555
C34 C33 1_555 1_555
H17 C34 1_555 1_555
C35 C34 1_555 1_555
H18 C35 1_555 1_555
C36 C35 1_555 1_555
C37 C36 1_555 1_555
H19 C37 1_555 1_555
C38 C33 1_555 1_555
H20 C38 1_555 1_555
O5 C46 1_555 1_555
O6 C46 1_555 1_555
C39 C9 1_555 1_555
C40 C39 1_555 1_555
H21 C40 1_555 1_555
C41 C40 1_555 1_555
H22 C41 1_555 1_555
C42 C41 1_555 1_555
C43 C42 1_555 1_555
H23 C43 1_555 1_555
C44 C39 1_555 1_555
H24 C44 1_555 1_555
C45 C36 1_555 1_555
C46 C42 1_555 1_555
C47 C24 1_555 1_555
C48 C30 1_555 1_555
O7 C45 1_555 1_555
O8 C45 1_555 1_555
O9 C2 1_555 1_555
O10 C12 1_555 1_555
O11 Zn2 1_555 1_555
Ti1 O10 1_555 1_555
O13 Ti1 1_555 1_555
C52 O13 1_555 1_555
H32 C52 1_555 1_555
C53 C52 1_555 1_555
H33 C53 1_555 1_555
H34 C53 1_555 1_555
H35 C53 1_555 1_555
C54 C52 1_555 1_555
H36 C54 1_555 1_555
H37 C54 1_555 1_555
H38 C54 1_555 1_555
Zn1E O2E 1_555 1_555
Zn1C O4 1_555 1_555
Zn1B O6 1_555 1_555
Zn1B_2 O8 1_555 1_555
Zn1F O4E 1_555 1_555
Zn1G O6E 1_555 1_555
Zn1G_2 O8E 1_555 1_555
Zn2E O1E 1_555 1_555
Zn2C O3 1_555 1_555
Zn2B O5 1_555 1_555
Zn2F O3E 1_555 1_555
Zn2G O5E 1_555 1_555
C1E C2E 1_555 1_555
C2E C3E 1_555 1_555
C3E H1E 1_555 1_555
C4E C3E 1_555 1_555
C5E C4E 1_555 1_555
C6E C1E 1_555 1_555
C7E C6E 1_555 1_555
H2E C7E 1_555 1_555
C8E C7E 1_555 1_555
H3E C8E 1_555 1_555
C9E C8E 1_555 1_555
C10E C5E 1_555 1_555
H4E C10E 1_555 1_555
C11E C1E 1_555 1_555
C12E C11E 1_555 1_555
C13E C12E 1_555 1_555
H5E C13E 1_555 1_555
C14E C13E 1_555 1_555
C15E C14E 1_555 1_555
C16E C11E 1_555 1_555
C17E C16E 1_555 1_555
H6E C17E 1_555 1_555
C18E C17E 1_555 1_555
H7E C18E 1_555 1_555
C19E C18E 1_555 1_555
C20E C15E 1_555 1_555
H8E C20E 1_555 1_555
C21E C14E 1_555 1_555
C22E C21E 1_555 1_555
H9E C22E 1_555 1_555
C23E C22E 1_555 1_555
H10E C23E 1_555 1_555
C24E C23E 1_555 1_555
C25E C24E 1_555 1_555
H11E C25E 1_555 1_555
C26E C21E 1_555 1_555
H12E C26E 1_555 1_555
O1E C47E 1_555 1_555
O2E C47E 1_555 1_555
C27E C19E 1_555 1_555
C28E C27E 1_555 1_555
H13E C28E 1_555 1_555
C29E C28E 1_555 1_555
H14E C29E 1_555 1_555
C30E C29E 1_555 1_555
C31E C30E 1_555 1_555
H15E C31E 1_555 1_555
C32E C27E 1_555 1_555
H16E C32E 1_555 1_555
O3E C48E 1_555 1_555
O3C Zn2 1_555 1_555
O3F Zn2E 1_555 1_555
O4E C48E 1_555 1_555
O4C Zn1 1_555 1_555
O4F Zn1E 1_555 1_555
C33E C4E 1_555 1_555
C34E C33E 1_555 1_555
H17E C34E 1_555 1_555
C35E C34E 1_555 1_555
H18E C35E 1_555 1_555
C36E C35E 1_555 1_555
C37E C36E 1_555 1_555
H19E C37E 1_555 1_555
C38E C33E 1_555 1_555
H20E C38E 1_555 1_555
O5E C46E 1_555 1_555
O5B Zn2 1_555 1_555
O5G Zn2E 1_555 1_555
O6E C46E 1_555 1_555
O6B Zn1 1_555 1_555
O6G Zn1E 1_555 1_555
C39E C9E 1_555 1_555
C40E C39E 1_555 1_555
H21E C40E 1_555 1_555
C41E C40E 1_555 1_555
H22E C41E 1_555 1_555
C42E C41E 1_555 1_555
C43E C42E 1_555 1_555
H23E C43E 1_555 1_555
C44E C39E 1_555 1_555
H24E C44E 1_555 1_555
C45E C36E 1_555 1_555
C46E C42E 1_555 1_555
C47E C24E 1_555 1_555
C48E C30E 1_555 1_555
O7E C45E 1_555 1_555
O8E C45E 1_555 1_555
O8B Zn1 1_555 1_555
O8G Zn1E 1_555 1_555
O9E C2E 1_555 1_555
O10E Ti1 1_555 1_555
O11E Zn2E 1_555 1_555
O13E Ti1 1_555 1_555
C52E O13E 1_555 1_555
H32E C52E 1_555 1_555
C53E C52E 1_555 1_555
H33E C53E 1_555 1_555
H34E C53E 1_555 1_555
H35E C53E 1_555 1_555
C54E C52E 1_555 1_555
H36E C54E 1_555 1_555
H37E C54E 1_555 1_555
H38E C54E 1_555 1_555
C5 C6 1_555 1_555
C9 C10 1_555 1_555
C15 C16 1_555 1_555
C19 C20 1_555 1_555
C25 C26 1_555 1_555
C31 C32 1_555 1_555
C37 C38 1_555 1_555
C43 C44 1_555 1_555
C5E C6E 1_555 1_555
C9E C10E 1_555 1_555
C12E O10E 1_555 1_555
C15E C16E 1_555 1_555
C19E C20E 1_555 1_555
C25E C26E 1_555 1_555
C31E C32E 1_555 1_555
C37E C38E 1_555 1_555
C43E C44E 1_555 1_555

#END
