
#######################################################################
#
#                 Cambridge Crystallographic Data Centre
#                                CCDC 
#
#######################################################################
#
# If this CIF has been generated from an entry in the Cambridge 
# Structural Database, then it will include bibliographic, chemical, 
# crystal, experimental, refinement or atomic coordinate data resulting 
# from the CCDC's data processing and validation procedures.
#
#######################################################################

data_LUPYAX
_chemical_formula_moiety         '(C64 H68 Cl10 N8 O30 Zn6)n'
_chemical_name_systematic        
catena-[tetrakis(\m~4~-2,5-Dichloro-1,4-benzenedicarboxylato)-bis(\m~3~-hydroxo)-(\m~2~-2,5-dichloro-1,4-benzenedicarboxylato)-octakis(dimethylformamide)-hexa-zinc(ii)]
_symmetry_cell_setting           monoclinic
_symmetry_space_group_name_H-M   'C 2/c'
_symmetry_Int_Tables_number      15
_space_group_name_Hall           '-C 2yc'
loop_
_symmetry_equiv_pos_site_id
_symmetry_equiv_pos_as_xyz
1 x,y,z
2 -x,y,1/2-z
3 1/2+x,1/2+y,z
4 1/2-x,1/2+y,1/2-z
5 -x,-y,-z
6 x,-y,1/2+z
7 1/2-x,1/2-y,-z
8 1/2+x,1/2-y,1/2+z
_cell_length_a                   44.792(3)
_cell_length_b                   12.3416(7)
_cell_length_c                   20.7246(10)
_cell_angle_alpha                90
_cell_angle_beta                 114.539(2)
_cell_angle_gamma                90
_cell_volume                     10421.9
_exptl_crystal_colour            colorless
_exptl_crystal_description       block
_cell_formula_units_Z            4
loop_
_atom_site_label
_atom_site_type_symbol
_atom_site_fract_x
_atom_site_fract_y
_atom_site_fract_z
Zn1 Zn 0.11487(2) 0.37409(7) 0.19349(4)
Zn2 Zn 0.12733(2) 0.13618(7) 0.14001(4)
Zn3 Zn 0.16227(2) 0.81558(7) -0.18475(4)
Cl1 Cl 0.1150(6) 0.7031(8) -0.0311(7)
Cl2 Cl 0.1387(6) 0.2199(8) -0.0670(7)
Cl3 Cl 0.31555(16) 0.2994(5) 0.3537(4)
Cl4 Cl 0.18970(14) 0.5104(5) 0.1229(4)
Cl5 Cl 0.01437(6) -0.0849(2) 0.15178(12)
C1 C 0.1200(2) 0.3133(7) 0.0552(4)
C2 C 0.1254(2) 0.3888(6) 0.0032(4)
C3 C 0.1188(2) 0.4964(7) 0.0077(4)
H1 H 0.1121 0.5213 0.0425
C4 C 0.1223(2) 0.5686(6) -0.0417(4)
C5 C 0.13227(19) 0.5343(6) -0.0932(4)
C6 C 0.1385(2) 0.4254(6) -0.0952(4)
H2 H 0.1450 0.3997 -0.1301
C7 C 0.1356(2) 0.3558(6) -0.0495(5)
C8 C 0.13555(19) 0.6100(7) -0.1482(4)
C9 C 0.3150(2) 0.5241(7) 0.2755(5)
C10 C 0.2828(2) 0.4729(7) 0.2684(4)
C11 C 0.2790(2) 0.3909(8) 0.3093(5)
C12 C 0.2482(2) 0.3503(7) 0.2977(5)
H3 H 0.2469 0.2887 0.3231
C13 C 0.2209(2) 0.3952(7) 0.2523(5)
C14 C 0.2252(2) 0.4852(8) 0.2154(5)
C15 C 0.2558(2) 0.5158(7) 0.2211(6)
H4 H 0.2574 0.5689 0.1901
C16 C 0.1900(2) 0.3544(8) 0.2502(6)
C17 C 0.0648(2) 0.0541(7) 0.1119(5)
C18 C 0.03122(18) 0.0234(6) 0.0545(4)
C19 C -0.02300(19) -0.0578(6) 0.0129(4)
H5 H -0.0382 -0.0991 0.0227
C20 C 0.0072(2) -0.0340(7) 0.0679(4)
O1 O 0.10193(13) 0.3452(4) 0.0834(3)
O2 O 0.13577(14) 0.2247(4) 0.0708(3)
O3 O 0.12181(13) 0.5752(4) -0.2084(3)
O4 O 0.14949(15) 0.6985(5) -0.1293(3)
O5 O 0.33628(13) 0.5356(4) 0.3397(3)
O6 O 0.31858(14) 0.5469(5) 0.2212(3)
O7 O 0.16298(14) 0.3957(4) 0.2087(3)
O8 O 0.19270(15) 0.2756(6) 0.2933(4)
O9 O 0.06819(13) 0.0750(5) 0.1716(3)
O10 O 0.08591(13) 0.0586(4) 0.0873(3)
O11 O 0.12363(10) 0.2094(3) 0.2199(2)
H6 H 0.1038 0.1803 0.2238
O12 O 0.10542(13) 0.5404(5) 0.1604(3)
O13 O 0.13228(14) 0.9257(5) -0.1612(3)
O15 O 0.06508(15) 0.3501(5) 0.1709(3)
O17 O 0.2004(2) 0.8600(7) -0.0839(4)
Zn1E Zn 0.11487(2) 0.62591(7) 0.69349(4)
Zn1E_2 Zn 0.11487(2) 0.62591(7) -0.30651(4)
Zn1C Zn 0.38513(2) -0.12591(7) 0.30651(4)
Zn2E Zn 0.12733(2) 0.86382(7) 0.64001(4)
Zn2C Zn 0.37267(2) 0.63618(7) 0.35999(4)
Zn2D Zn -0.12733(2) -0.13618(7) -0.14001(4)
Zn2E_2 Zn 0.12733(2) 0.86382(7) -0.35999(4)
Zn3E Zn 0.16227(2) 0.18442(7) 0.31525(4)
Zn3F Zn 0.33773(2) 0.68442(7) 0.18475(4)
Zn3F_2 Zn 0.33773(2) -0.31558(7) 0.18475(4)
Cl1E Cl 0.1150(6) 0.2969(8) 0.4689(7)
Cl2E Cl 0.1387(6) 0.7801(8) 0.4330(7)
Cl3C Cl 0.18445(16) -0.2006(5) 0.1463(4)
Cl4C Cl 0.31030(14) 0.0104(5) 0.3771(4)
Cl5D Cl -0.01437(6) 0.0849(2) -0.15178(12)
C1E C 0.1200(2) 0.6867(7) 0.5552(4)
C2E C 0.1254(2) 0.6112(6) 0.5032(4)
C3E C 0.1188(2) 0.5036(7) 0.5077(4)
H1E H 0.1121 0.4787 0.5425
C4E C 0.1223(2) 0.4314(6) 0.4583(4)
C5E C 0.13227(19) 0.4657(6) 0.4068(4)
C6E C 0.1385(2) 0.5746(6) 0.4048(4)
H2E H 0.1450 0.6003 0.3699
C7E C 0.1356(2) 0.6442(6) 0.4505(5)
C8E C 0.13555(19) 0.3900(7) 0.3518(4)
C9C C 0.1850(2) 0.0241(7) 0.2245(5)
C10C C 0.2172(2) -0.0271(7) 0.2316(4)
C11C C 0.2210(2) -0.1091(8) 0.1907(5)
C12C C 0.2518(2) -0.1497(7) 0.2023(5)
H3C H 0.2531 -0.2113 0.1769
C13C C 0.2791(2) -0.1048(7) 0.2477(5)
C14C C 0.2748(2) -0.0148(8) 0.2846(5)
C15C C 0.2442(2) 0.0158(7) 0.2789(6)
H4C H 0.2426 0.0689 0.3099
C16C C 0.3100(2) -0.1456(8) 0.2498(6)
C17D C -0.0648(2) -0.0541(7) -0.1119(5)
C18D C -0.03122(18) -0.0234(6) -0.0545(4)
C19D C 0.02300(19) 0.0578(6) -0.0129(4)
H5D H 0.0382 0.0991 -0.0227
C20D C -0.0072(2) 0.0340(7) -0.0679(4)
O1E O 0.10193(13) 0.6548(4) 0.5834(3)
O2E O 0.13577(14) 0.7753(4) 0.5708(3)
O3E O 0.12181(13) 0.4248(4) 0.2916(3)
O3_2 O 0.12181(13) 0.5752(4) 0.7916(3)
O4E O 0.14949(15) 0.3015(5) 0.3707(3)
O5C O 0.16372(13) 0.0356(4) 0.1603(3)
O5F O 0.16372(13) 0.9644(4) 0.6603(3)
O6C O 0.18142(14) 0.0469(5) 0.2788(3)
O6F O 0.18142(14) 0.9531(5) -0.2212(3)
O7C O 0.33702(14) -0.1043(4) 0.2913(3)
O7E O 0.16298(14) 0.6043(4) 0.7087(3)
O8C O 0.30730(15) -0.2244(6) 0.2067(4)
O8E O 0.19270(15) 0.7244(6) -0.2067(4)
O9D O -0.06819(13) -0.0750(5) -0.1716(3)
O10D O -0.08591(13) -0.0586(4) -0.0873(3)
O10E O 0.08591(13) 0.9414(4) 0.5873(3)
O11E O 0.12363(10) 0.7906(3) -0.2801(2)
O11E_2 O 0.12363(10) 0.7906(3) 0.7199(2)
H6E H 0.1038 0.8197 -0.2762
H6E_2 H 0.1038 0.8197 0.7238
O12E O 0.10542(13) 0.4596(5) 0.6604(3)
O13E O 0.13228(14) 0.0743(5) 0.3388(3)
O15E O 0.06508(15) 0.6499(5) 0.6709(3)
O17E O 0.2004(2) 0.1400(7) 0.4161(4)
O14? O 0.1297(3) 0.0656(10) 0.3878(7)
O16? O 0.0463(4) 0.3495(12) 0.1207(9)
Cl6? Cl 0.1060(12) 0.707(3) -0.041(2)
Cl7? Cl 0.1530(18) 0.216(3) -0.049(4)
Cl8? Cl -0.18819(14) 0.1492(5) -0.1108(3)
Cl9? Cl -0.30653(12) -0.0779(5) -0.3284(3)
O18? O 0.1204(3) 0.6063(10) 0.1973(6)
O19? O 0.2195(4) 0.1377(13) 0.4182(8)
loop_
_geom_bond_atom_site_label_1
_geom_bond_atom_site_label_2
_geom_bond_site_symmetry_1
_geom_bond_site_symmetry_2
Zn1 O1 1_555 1_555
Zn2 O2 1_555 1_555
Zn3 O4 1_555 1_555
Cl1 C4 1_555 1_555
Cl2 C7 1_555 1_555
Cl3 C11 1_555 1_555
Cl4 C14 1_555 1_555
Cl5 C20 1_555 1_555
C1 C2 1_555 1_555
C2 C3 1_555 1_555
C3 H1 1_555 1_555
C4 C3 1_555 1_555
C5 C4 1_555 1_555
C6 C5 1_555 1_555
H2 C6 1_555 1_555
C7 C2 1_555 1_555
C8 C5 1_555 1_555
C9 C10 1_555 1_555
C10 C11 1_555 1_555
C11 C12 1_555 1_555
C12 H3 1_555 1_555
C13 C12 1_555 1_555
C14 C13 1_555 1_555
C15 C10 1_555 1_555
H4 C15 1_555 1_555
C16 C13 1_555 1_555
C17 C18 1_555 1_555
C18 C20 1_555 1_555
C19 H5 1_555 1_555
C20 C19 1_555 1_555
O1 C1 1_555 1_555
O2 C1 1_555 1_555
O3 C8 1_555 1_555
O4 C8 1_555 1_555
O5 C9 1_555 1_555
O6 C9 1_555 1_555
O7 Zn1 1_555 1_555
O8 C16 1_555 1_555
O9 C17 1_555 1_555
O10 Zn2 1_555 1_555
O11 Zn1 1_555 1_555
H6 O11 1_555 1_555
O12 Zn1 1_555 1_555
O13 Zn3 1_555 1_555
O15 Zn1 1_555 1_555
O17 Zn3 1_555 1_555
Zn1E O1E 1_555 1_555
Zn1E_2 O3 1_555 1_555
Zn1C O7C 1_555 1_555
Zn2E O2E 1_555 1_555
Zn2C O5 1_555 1_555
Zn2D O10D 1_555 1_555
Zn2E_2 O11E 1_555 1_555
Zn3E O8 1_555 1_555
Zn3F O6 1_555 1_555
Zn3F_2 O8C 1_555 1_555
Cl1E C4E 1_555 1_555
Cl2E C7E 1_555 1_555
Cl3C C11C 1_555 1_555
Cl4C C14C 1_555 1_555
Cl5D C20D 1_555 1_555
C1E C2E 1_555 1_555
C2E C3E 1_555 1_555
C3E H1E 1_555 1_555
C4E C3E 1_555 1_555
C5E C4E 1_555 1_555
C6E C5E 1_555 1_555
H2E C6E 1_555 1_555
C7E C2E 1_555 1_555
C8E C5E 1_555 1_555
C9C C10C 1_555 1_555
C10C C11C 1_555 1_555
C11C C12C 1_555 1_555
C12C H3C 1_555 1_555
C13C C12C 1_555 1_555
C14C C13C 1_555 1_555
C15C C10C 1_555 1_555
H4C C15C 1_555 1_555
C16C C13C 1_555 1_555
C17D C18D 1_555 1_555
C18D C19 1_555 1_555
C19D C18 1_555 1_555
H5D C19D 1_555 1_555
C20D C18D 1_555 1_555
O1E C1E 1_555 1_555
O2E C1E 1_555 1_555
O3E Zn1 1_555 1_555
O3_2 Zn1E 1_555 1_555
O4E Zn3E 1_555 1_555
O5C Zn2 1_555 1_555
O5F Zn2E 1_555 1_555
O6C Zn3E 1_555 1_555
O6F Zn3 1_555 1_555
O7C C16C 1_555 1_555
O7E Zn1E 1_555 1_555
O8C C16C 1_555 1_555
O8E Zn3 1_555 1_555
O9D C17D 1_555 1_555
O10D C17D 1_555 1_555
O10E Zn2E 1_555 1_555
O11E Zn3 1_555 1_555
O11E_2 Zn1E 1_555 1_555
H6E O11E 1_555 1_555
H6E_2 O11E_2 1_555 1_555
O12E Zn1E 1_555 1_555
O13E Zn3E 1_555 1_555
O15E Zn1E 1_555 1_555
O17E Zn3E 1_555 1_555
Zn2 O11 1_555 1_555
C6 C7 1_555 1_555
C14 C15 1_555 1_555
C16 O7 1_555 1_555
C17 O10 1_555 1_555
O11 Zn3E 1_555 1_555
Zn1E_2 O11E 1_555 1_555
Zn2E O11E_2 1_555 1_555
C6E C7E 1_555 1_555
C8E O3E 1_555 1_555
C8E O4E 1_555 1_555
C9C O5C 1_555 1_555
C9C O6C 1_555 1_555
C14C C15C 1_555 1_555
C19D C20D 1_555 1_555

#END
