
#######################################################################
#
#                 Cambridge Crystallographic Data Centre
#                                CCDC 
#
#######################################################################
#
# If this CIF has been generated from an entry in the Cambridge 
# Structural Database, then it will include bibliographic, chemical, 
# crystal, experimental, refinement or atomic coordinate data resulting 
# from the CCDC's data processing and validation procedures.
#
#######################################################################

data_CUVWOG
_chemical_name_common            F-MOF-8
_chemical_formula_moiety         '(C43 H26 F6 N4 O8 Zn2)n'
_chemical_name_systematic        
catena-((\m~2~-4,4'-(1,1,1,3,3,3-hexafluoropropane-2,2-diyl)dibenzoato)-bis(\m~2~-formato)-bis(1,10-phenanthroline)-di-zinc(ii))
_symmetry_cell_setting           monoclinic
_symmetry_space_group_name_H-M   'C 2/c'
_symmetry_Int_Tables_number      15
_space_group_name_Hall           '-C 2yc'
loop_
_symmetry_equiv_pos_site_id
_symmetry_equiv_pos_as_xyz
1 x,y,z
2 -x,y,1/2-z
3 1/2+x,1/2+y,z
4 1/2-x,1/2+y,1/2-z
5 -x,-y,-z
6 x,-y,1/2+z
7 1/2-x,1/2-y,-z
8 1/2+x,1/2-y,1/2+z
_cell_length_a                   41.929(8)
_cell_length_b                   9.9010(15)
_cell_length_c                   42.941(8)
_cell_angle_alpha                90
_cell_angle_beta                 166.939(3)
_cell_angle_gamma                90
_cell_volume                     4028.58
_exptl_crystal_colour            colorless
_exptl_crystal_description       prism
_cell_formula_units_Z            4
loop_
_atom_site_label
_atom_site_type_symbol
_atom_site_fract_x
_atom_site_fract_y
_atom_site_fract_z
Zn1 Zn 0.22997(2) 0.09860(2) 0.15673(2)
F1 F 0.7362(3) 0.5177(4) 0.4906(3)
F2 F 0.5887(5) 0.6438(3) 0.3732(5)
F3 F 0.6494(5) 0.6866(2) 0.3840(5)
O1 O 0.25224(17) 0.22350(16) 0.14157(17)
O2 O 0.4333(2) 0.08730(17) 0.3056(2)
O3 O 0.03980(15) 0.16171(15) -0.00836(15)
O4 O -0.14870(16) 0.28666(16) -0.19731(16)
N1 N 0.28786(19) -0.07872(18) 0.23628(19)
N2 N 0.1441(2) -0.06236(19) 0.04593(19)
C1 C 0.1705(2) -0.1873(2) 0.0823(2)
C2 C 0.4533(3) 0.4097(2) 0.2338(3)
C3 C 0.5275(3) 0.2937(3) 0.3117(3)
H1 H 0.5992 0.2645 0.3667
C4 C 0.3888(2) 0.2600(2) 0.2261(2)
C5 C 0.3133(3) 0.3740(3) 0.1467(3)
H2 H 0.2396 0.4016 0.0894
C6 C 0.4967(3) 0.2204(3) 0.3090(3)
H3 H 0.5492 0.1436 0.3635
C7 C 0.3453(3) 0.4484(3) 0.1509(3)
H4 H 0.2934 0.5257 0.0970
C8 C 0.3579(2) 0.1829(2) 0.2260(2)
C9 C 0.5000 0.4957(4) 0.2500
C10 C 0.3610(3) -0.0854(3) 0.3323(3)
H5 H 0.3874 -0.0053 0.3671
C11 C 0.2489(2) -0.1963(2) 0.1857(2)
C12 C 0.2813(2) -0.3237(2) 0.2287(2)
C13 C 0.1265(2) -0.3064(2) 0.0254(2)
C14 C 0.2330(3) -0.4424(3) 0.1671(3)
H6 H 0.2530 -0.5269 0.1945
C15 C 0.3997(3) -0.2076(3) 0.3829(3)
H7 H 0.4521 -0.2080 0.4511
C16 C 0.3600(3) -0.3263(3) 0.3316(3)
H8 H 0.3846 -0.4083 0.3640
C17 C 0.0736(3) -0.0524(3) -0.0478(3)
H9 H 0.0550 0.0331 -0.0734
C18 C 0.0511(3) -0.2904(3) -0.0745(3)
H10 H 0.0187 -0.3657 -0.1161
C19 C 0.0263(3) -0.1648(3) -0.1093(3)
H11 H -0.0223 -0.1535 -0.1741
C20 C 0.1587(3) -0.4341(3) 0.0695(3)
H12 H 0.1284 -0.5128 0.0309
C21 C -0.0352(2) 0.2331(2) -0.0968(2)
H13 H -0.0035 0.2476 -0.0869
C22 C 0.6223(7) 0.5839(4) 0.3784(8)
Zn1A Zn 0.77003(2) 0.09860(2) 0.34327(2)
Zn1G Zn -0.27003(2) 0.40140(2) -0.34327(2)
Zn1G_2 Zn 0.72997(2) 0.40140(2) 0.65673(2)
F1A F 0.2638(3) 0.5177(4) 0.0094(3)
F2A F 0.4113(5) 0.6438(3) 0.1268(5)
F3A F 0.3506(5) 0.6866(2) 0.1160(5)
O1A O 0.74776(17) 0.22350(16) 0.35843(17)
O2A O 0.5667(2) 0.08730(17) 0.1944(2)
O3G O 0.53980(15) 0.33829(15) 0.49164(15)
O3A O 0.96020(15) 0.16171(15) 0.50836(15)
O4G O 0.35130(16) 0.21334(16) 0.30269(16)
O4F O 0.64870(16) 0.21334(16) 0.19731(16)
N1A N 0.71214(19) -0.07872(18) 0.26372(19)
N2A N 0.8559(2) -0.06236(19) 0.45407(19)
C1A C 0.8295(2) -0.1873(2) 0.4177(2)
C2A C 0.5467(3) 0.4097(2) 0.2662(3)
C3A C 0.4725(3) 0.2937(3) 0.1883(3)
H1A H 0.4008 0.2645 0.1333
C4A C 0.6112(2) 0.2600(2) 0.2739(2)
C5A C 0.6867(3) 0.3740(3) 0.3533(3)
H2A H 0.7604 0.4016 0.4106
C6A C 0.5033(3) 0.2204(3) 0.1910(3)
H3A H 0.4508 0.1436 0.1365
C7A C 0.6547(3) 0.4484(3) 0.3491(3)
H4A H 0.7066 0.5257 0.4030
C8A C 0.6421(2) 0.1829(2) 0.2740(2)
C10A C 0.6390(3) -0.0854(3) 0.1677(3)
H5A H 0.6126 -0.0053 0.1329
C11A C 0.7511(2) -0.1963(2) 0.3143(2)
C12A C 0.7187(2) -0.3237(2) 0.2713(2)
C13A C 0.8735(2) -0.3064(2) 0.4746(2)
C14A C 0.7670(3) -0.4424(3) 0.3329(3)
H6A H 0.7470 -0.5269 0.3055
C15A C 0.6003(3) -0.2076(3) 0.1171(3)
H7A H 0.5479 -0.2080 0.0489
C16A C 0.6400(3) -0.3263(3) 0.1684(3)
H8A H 0.6154 -0.4083 0.1360
C17A C 0.9264(3) -0.0524(3) 0.5478(3)
H9A H 0.9450 0.0331 0.5734
C18A C 0.9489(3) -0.2904(3) 0.5745(3)
H10A H 0.9813 -0.3657 0.6161
C19A C 0.9737(3) -0.1648(3) 0.6093(3)
H11A H 1.0223 -0.1535 0.6741
C20A C 0.8413(3) -0.4341(3) 0.4305(3)
H12A H 0.8716 -0.5128 0.4691
C21G C 0.4648(2) 0.2669(2) 0.4032(2)
H13G H 0.4965 0.2524 0.4131
C22A C 0.3777(7) 0.5839(4) 0.1216(8)
loop_
_geom_bond_atom_site_label_1
_geom_bond_atom_site_label_2
_geom_bond_site_symmetry_1
_geom_bond_site_symmetry_2
Zn1 O1 1_555 1_555
F1 C22 1_555 1_555
F2 C22 1_555 1_555
F3 C22 1_555 1_555
O1 C8 1_555 1_555
O2 C8 1_555 1_555
O3 Zn1 1_555 1_555
O4 C21 1_555 1_555
N1 Zn1 1_555 1_555
N2 Zn1 1_555 1_555
C1 N2 1_555 1_555
C2 C3 1_555 1_555
C3 H1 1_555 1_555
C4 C5 1_555 1_555
C5 H2 1_555 1_555
C6 C3 1_555 1_555
H3 C6 1_555 1_555
C7 C2 1_555 1_555
H4 C7 1_555 1_555
C8 C4 1_555 1_555
C9 C2 1_555 1_555
C10 N1 1_555 1_555
H5 C10 1_555 1_555
C11 N1 1_555 1_555
C12 C11 1_555 1_555
C13 C1 1_555 1_555
C14 C12 1_555 1_555
H6 C14 1_555 1_555
C15 C10 1_555 1_555
H7 C15 1_555 1_555
C16 C12 1_555 1_555
H8 C16 1_555 1_555
C17 N2 1_555 1_555
H9 C17 1_555 1_555
C18 C13 1_555 1_555
H10 C18 1_555 1_555
C19 C17 1_555 1_555
H11 C19 1_555 1_555
C20 C13 1_555 1_555
H12 C20 1_555 1_555
C21 O3 1_555 1_555
H13 C21 1_555 1_555
C22 C9 1_555 1_555
Zn1A O1A 1_555 1_555
Zn1G O4 1_555 1_555
Zn1G_2 O3G 1_555 1_555
F1A C22A 1_555 1_555
F2A C22A 1_555 1_555
F3A C22A 1_555 1_555
O1A C8A 1_555 1_555
O2A C8A 1_555 1_555
O3G C21G 1_555 1_555
O3A Zn1A 1_555 1_555
O4G Zn1 1_555 1_555
O4F Zn1A 1_555 1_555
N1A Zn1A 1_555 1_555
N2A Zn1A 1_555 1_555
C1A N2A 1_555 1_555
C2A C9 1_555 1_555
C3A C2A 1_555 1_555
H1A C3A 1_555 1_555
C4A C5A 1_555 1_555
C5A H2A 1_555 1_555
C6A C3A 1_555 1_555
H3A C6A 1_555 1_555
C7A C2A 1_555 1_555
H4A C7A 1_555 1_555
C8A C4A 1_555 1_555
C10A N1A 1_555 1_555
H5A C10A 1_555 1_555
C11A N1A 1_555 1_555
C12A C11A 1_555 1_555
C13A C1A 1_555 1_555
C14A C12A 1_555 1_555
H6A C14A 1_555 1_555
C15A C10A 1_555 1_555
H7A C15A 1_555 1_555
C16A C12A 1_555 1_555
H8A C16A 1_555 1_555
C17A N2A 1_555 1_555
H9A C17A 1_555 1_555
C18A C13A 1_555 1_555
H10A C18A 1_555 1_555
C19A C17A 1_555 1_555
H11A C19A 1_555 1_555
C20A C13A 1_555 1_555
H12A C20A 1_555 1_555
C21G O4G 1_555 1_555
H13G C21G 1_555 1_555
C22A C9 1_555 1_555
C1 C11 1_555 1_555
C4 C6 1_555 1_555
C5 C7 1_555 1_555
C14 C20 1_555 1_555
C15 C16 1_555 1_555
C18 C19 1_555 1_555
C1A C11A 1_555 1_555
C4A C6A 1_555 1_555
C5A C7A 1_555 1_555
C14A C20A 1_555 1_555
C15A C16A 1_555 1_555
C18A C19A 1_555 1_555

#END
