
#######################################################################
#
#                 Cambridge Crystallographic Data Centre
#                                CCDC 
#
#######################################################################
#
# If this CIF has been generated from an entry in the Cambridge 
# Structural Database, then it will include bibliographic, chemical, 
# crystal, experimental, refinement or atomic coordinate data resulting 
# from the CCDC's data processing and validation procedures.
#
#######################################################################

data_CUVXEX
_chemical_name_common            F-MOF-11
_chemical_formula_moiety         '(C46 H26 F12 Mn1 N2 O8)n'
_chemical_name_systematic        
catena-(bis(\m~2~-4,4'-(1,1,1,3,3,3-hexafluoropropane-2,2-diyl)dibenzoato)-(1,10-phenanthroline)-manganese(ii))
_symmetry_cell_setting           monoclinic
_symmetry_space_group_name_H-M   'C 2/c'
_symmetry_Int_Tables_number      15
_space_group_name_Hall           '-C 2yc'
loop_
_symmetry_equiv_pos_site_id
_symmetry_equiv_pos_as_xyz
1 x,y,z
2 -x,y,1/2-z
3 1/2+x,1/2+y,z
4 1/2-x,1/2+y,1/2-z
5 -x,-y,-z
6 x,-y,1/2+z
7 1/2-x,1/2-y,-z
8 1/2+x,1/2-y,1/2+z
_cell_length_a                   45.75(4)
_cell_length_b                   10.703(9)
_cell_length_c                   8.848(7)
_cell_angle_alpha                90
_cell_angle_beta                 90.348(15)
_cell_angle_gamma                90
_cell_volume                     4332.45
_exptl_crystal_colour            colorless
_exptl_crystal_description       prism
_cell_formula_units_Z            4
loop_
_atom_site_label
_atom_site_type_symbol
_atom_site_fract_x
_atom_site_fract_y
_atom_site_fract_z
C1 C 0.04198(8) -0.0829(4) 0.0424(5)
C2 C 0.07250(7) -0.1281(3) 0.0854(4)
C3 C 0.08415(8) -0.1008(4) 0.2258(5)
H1 H 0.0737 -0.0507 0.2923
C4 C 0.11140(8) -0.1476(4) 0.2691(4)
H2 H 0.1188 -0.1291 0.3646
C5 C 0.12762(7) -0.2218(3) 0.1707(4)
C6 C 0.11618(8) -0.2440(4) 0.0273(4)
H3 H 0.1269 -0.2905 -0.0415
C7 C 0.08895(8) -0.1978(4) -0.0150(4)
H4 H 0.0817 -0.2138 -0.1115
C8 C 0.15610(7) -0.2912(3) 0.2157(4)
C9 C 0.17990(7) -0.2795(3) 0.0919(4)
C10 C 0.18159(9) -0.1681(4) 0.0095(5)
H5 H 0.1698 -0.1008 0.0358
C11 C 0.20071(9) -0.1573(4) -0.1116(5)
H6 H 0.2018 -0.0828 -0.1651
C12 C 0.21820(7) -0.2583(3) -0.1524(4)
C13 C 0.21856(7) -0.3651(3) -0.0632(4)
H7 H 0.2312 -0.4302 -0.0859
C14 C 0.19991(7) -0.3747(3) 0.0603(4)
H8 H 0.2008 -0.4448 0.1222
C15 C 0.23457(7) -0.2519(3) -0.2985(4)
C16 C 0.16955(8) -0.2425(4) 0.3652(4)
C17 C 0.14663(7) -0.4296(3) 0.2403(4)
C18 C -0.0527(2) -0.2759(10) -0.1035(11)
H9 H -0.0598 -0.2011 -0.0649
C19 C -0.0672(3) -0.3869(13) -0.0693(13)
H10 H -0.0841 -0.3846 -0.0117
C20 C -0.0569(3) -0.4979(12) -0.1191(15)
H11 H -0.0665 -0.5719 -0.0952
C21 C -0.0311(2) -0.4999(9) -0.2087(12)
C22 C -0.01882(19) -0.3818(8) -0.2438(10)
C23 C -0.0181(3) -0.6129(9) -0.2682(16)
F1 F 0.17404(5) -0.1188(2) 0.3579(3)
F2 F 0.19563(5) -0.2951(3) 0.3931(3)
F3 F 0.15300(5) -0.2636(3) 0.4874(2)
F4 F 0.16681(5) -0.4996(2) 0.3110(3)
F5 F 0.12230(4) -0.4379(2) 0.3257(2)
F6 F 0.14060(5) -0.4866(2) 0.1101(2)
Mn1 Mn 0.0000 -0.09275(7) -0.2500
N1 N -0.02882(15) -0.2735(6) -0.1903(8)
O1 O 0.23529(6) -0.1520(3) -0.3728(3)
O2 O 0.24607(6) -0.3558(3) -0.3452(3)
O3 O 0.03020(13) -0.1451(7) -0.0874(7)
O4 O 0.03023(13) -0.0045(7) 0.1021(8)
C1A C -0.04198(8) -0.0829(4) -0.5424(5)
C2A C -0.07250(7) -0.1281(3) -0.5854(4)
C3A C -0.08415(8) -0.1008(4) -0.7258(5)
H1A H -0.0737 -0.0507 -0.7923
C4A C -0.11140(8) -0.1476(4) -0.7691(4)
H2A H -0.1188 -0.1291 -0.8646
C5A C -0.12762(7) -0.2218(3) -0.6707(4)
C6A C -0.11618(8) -0.2440(4) -0.5273(4)
H3A H -0.1269 -0.2905 -0.4585
C7A C -0.08895(8) -0.1978(4) -0.4850(4)
H4A H -0.0817 -0.2138 -0.3885
C8A C -0.15610(7) -0.2912(3) -0.7157(4)
C9A C -0.17990(7) -0.2795(3) -0.5919(4)
C10A C -0.18159(9) -0.1681(4) -0.5095(5)
H5A H -0.1698 -0.1008 -0.5358
C11A C -0.20071(9) -0.1573(4) -0.3884(5)
H6A H -0.2018 -0.0828 -0.3349
C12A C -0.21820(7) -0.2583(3) -0.3476(4)
C13A C -0.21856(7) -0.3651(3) -0.4368(4)
H7A H -0.2312 -0.4302 -0.4141
C14A C -0.19991(7) -0.3747(3) -0.5603(4)
H8A H -0.2008 -0.4448 -0.6222
C15A C -0.23457(7) -0.2519(3) -0.2015(4)
C16A C -0.16955(8) -0.2425(4) -0.8652(4)
C17A C -0.14663(7) -0.4296(3) -0.7403(4)
C18A C 0.0527(2) -0.2759(10) -0.3965(11)
H9A H 0.0598 -0.2011 -0.4351
C19A C 0.0672(3) -0.3869(13) -0.4307(13)
H10A H 0.0841 -0.3846 -0.4883
C20A C 0.0569(3) -0.4979(12) -0.3809(15)
H11A H 0.0665 -0.5719 -0.4048
C21A C 0.0311(2) -0.4999(9) -0.2913(12)
C22A C 0.01882(19) -0.3818(8) -0.2562(10)
C23A C 0.0181(3) -0.6129(9) -0.2318(16)
F1A F -0.17404(5) -0.1188(2) -0.8579(3)
F2A F -0.19563(5) -0.2951(3) -0.8931(3)
F3A F -0.15300(5) -0.2636(3) -0.9874(2)
F4A F -0.16681(5) -0.4996(2) -0.8110(3)
F5A F -0.12230(4) -0.4379(2) -0.8257(2)
F6A F -0.14060(5) -0.4866(2) -0.6101(2)
Mn1D Mn 0.0000 0.09275(7) 0.2500
Mn1D_2 Mn 0.0000 0.09275(7) -0.7500
N1A N 0.02882(15) -0.2735(6) -0.3097(8)
O1A O -0.23529(6) -0.1520(3) -0.1272(3)
O2A O -0.24607(6) -0.3558(3) -0.1548(3)
O3A O -0.03020(13) -0.1451(7) -0.4126(7)
O4A O -0.03023(13) -0.0045(7) -0.6021(8)
O4D O -0.03023(13) 0.0045(7) -0.1021(8)
O4E O 0.03023(13) 0.0045(7) -0.3979(8)
C24? C 0.0403(2) 0.2570(10) 0.0243(14)
H12? H 0.0477 0.1793 -0.0033
C25? C 0.0535(3) 0.3659(12) -0.0348(15)
H13? H 0.0693 0.3589 -0.0997
C26? C 0.0434(3) 0.4790(12) 0.0023(15)
H14? H 0.0523 0.5503 -0.0359
C27? C 0.0190(2) 0.4902(9) 0.1001(12)
C28? C 0.00693(18) 0.3777(7) 0.1579(10)
C29? C 0.0054(4) 0.6078(9) 0.1437(16)
H15? H 0.0134 0.6821 0.1087
N2? N 0.01747(15) 0.2619(6) 0.1185(9)
O5? O 0.02605(13) -0.0481(7) 0.1704(7)
O6? O 0.03613(12) -0.0685(7) -0.0753(7)
loop_
_geom_bond_atom_site_label_1
_geom_bond_atom_site_label_2
_geom_bond_site_symmetry_1
_geom_bond_site_symmetry_2
C1 C2 1_555 1_555
C2 C3 1_555 1_555
C3 H1 1_555 1_555
C4 C3 1_555 1_555
H2 C4 1_555 1_555
C5 C4 1_555 1_555
C6 C5 1_555 1_555
H3 C6 1_555 1_555
C7 C2 1_555 1_555
H4 C7 1_555 1_555
C8 C5 1_555 1_555
C9 C8 1_555 1_555
C10 C9 1_555 1_555
H5 C10 1_555 1_555
C11 C10 1_555 1_555
H6 C11 1_555 1_555
C12 C11 1_555 1_555
C13 C12 1_555 1_555
H7 C13 1_555 1_555
C14 C9 1_555 1_555
H8 C14 1_555 1_555
C15 C12 1_555 1_555
C16 C8 1_555 1_555
C17 C8 1_555 1_555
C18 H9 1_555 1_555
C19 C18 1_555 1_555
H10 C19 1_555 1_555
C20 C19 1_555 1_555
H11 C20 1_555 1_555
C21 C20 1_555 1_555
C22 C21 1_555 1_555
C23 C21 1_555 1_555
F1 C16 1_555 1_555
F2 C16 1_555 1_555
F3 C16 1_555 1_555
F4 C17 1_555 1_555
F5 C17 1_555 1_555
F6 C17 1_555 1_555
Mn1 N1 1_555 1_555
N1 C18 1_555 1_555
O1 C15 1_555 1_555
O2 C15 1_555 1_555
O3 C1 1_555 1_555
O4 C1 1_555 1_555
C1A C2A 1_555 1_555
C2A C3A 1_555 1_555
C3A H1A 1_555 1_555
C4A C3A 1_555 1_555
H2A C4A 1_555 1_555
C5A C4A 1_555 1_555
C6A C5A 1_555 1_555
H3A C6A 1_555 1_555
C7A C2A 1_555 1_555
H4A C7A 1_555 1_555
C8A C5A 1_555 1_555
C9A C8A 1_555 1_555
C10A C9A 1_555 1_555
H5A C10A 1_555 1_555
C11A C10A 1_555 1_555
H6A C11A 1_555 1_555
C12A C11A 1_555 1_555
C13A C12A 1_555 1_555
H7A C13A 1_555 1_555
C14A C9A 1_555 1_555
H8A C14A 1_555 1_555
C15A C12A 1_555 1_555
C16A C8A 1_555 1_555
C17A C8A 1_555 1_555
C18A H9A 1_555 1_555
C19A C18A 1_555 1_555
H10A C19A 1_555 1_555
C20A C19A 1_555 1_555
H11A C20A 1_555 1_555
C21A C20A 1_555 1_555
C22A C22 1_555 1_555
C23A C23 1_555 1_555
F1A C16A 1_555 1_555
F2A C16A 1_555 1_555
F3A C16A 1_555 1_555
F4A C17A 1_555 1_555
F5A C17A 1_555 1_555
F6A C17A 1_555 1_555
Mn1D O4 1_555 1_555
Mn1D_2 O4A 1_555 1_555
N1A Mn1 1_555 1_555
O1A C15A 1_555 1_555
O2A C15A 1_555 1_555
O3A Mn1 1_555 1_555
O4A C1A 1_555 1_555
O4D Mn1 1_555 1_555
O4E Mn1 1_555 1_555
C6 C7 1_555 1_555
C13 C14 1_555 1_555
C22 N1 1_555 1_555
Mn1 O3 1_555 1_555
C1A O3A 1_555 1_555
C6A C7A 1_555 1_555
C13A C14A 1_555 1_555
C18A N1A 1_555 1_555
C21A C22A 1_555 1_555
C21A C23A 1_555 1_555
C22A N1A 1_555 1_555

#END
