
#######################################################################
#
#                 Cambridge Crystallographic Data Centre
#                                CCDC 
#
#######################################################################
#
# If this CIF has been generated from an entry in the Cambridge 
# Structural Database, then it will include bibliographic, chemical, 
# crystal, experimental, refinement or atomic coordinate data resulting 
# from the CCDC's data processing and validation procedures.
#
#######################################################################

data_WAVQAN
_chemical_formula_moiety         
'(C2 H8 N1 1+)n,n(C36 H34 In3 N3 Nd1 O25 1-),n(H2 O1)'
_chemical_name_systematic        
'catena-(Dimethylammonium (\m~6~-benzene-1,3,5-tricarboxylato)-bis(\m~3~-benzene-1,3,5-tricarboxylato)-tetrakis(\m~3~-hydroxo)-tris(dimethylformamide)-tri-indium-neodymium monohydrate)'
_symmetry_cell_setting           cubic
_symmetry_space_group_name_H-M   'P 21 3'
_symmetry_Int_Tables_number      198
_space_group_name_Hall           'P 2ac 2ab 3'
loop_
_symmetry_equiv_pos_site_id
_symmetry_equiv_pos_as_xyz
1 x,y,z
2 1/2-x,-y,1/2+z
3 -x,1/2+y,1/2-z
4 1/2+x,1/2-y,-z
5 z,x,y
6 1/2+z,1/2-x,-y
7 1/2-z,-x,1/2+y
8 -z,1/2+x,1/2-y
9 y,z,x
10 -y,1/2+z,1/2-x
11 1/2+y,1/2-z,-x
12 1/2-y,-z,1/2+x
_cell_length_a                   16.8753(13)
_cell_length_b                   16.8753(13)
_cell_length_c                   16.8753(13)
_cell_angle_alpha                90
_cell_angle_beta                 90
_cell_angle_gamma                90
_cell_volume                     4805.68
_exptl_crystal_colour            'light green'
_exptl_crystal_description       block
_cell_formula_units_Z            4
loop_
_atom_site_label
_atom_site_type_symbol
_atom_site_fract_x
_atom_site_fract_y
_atom_site_fract_z
_atom_site_U_iso_or_equiv
_atom_site_thermal_displace_type
Nd1 Nd 0.41544(4) 0.41544(4) 0.41544(4) 0.0195 Uani
In1 In 0.50770(6) 0.61417(6) 0.45050(6) 0.0214 Uani
O1 O 0.5603(5) 0.5603(5) 0.5603(5) 0.0190 Uani
O2 O 0.4105(5) 0.5430(5) 0.4954(5) 0.0193 Uani
O3 O 0.4625(6) 0.7195(6) 0.5004(6) 0.0280 Uani
O4 O 0.6133(6) 0.6628(5) 0.4029(6) 0.0290 Uani
O5 O 0.4275(7) 0.3639(6) 0.2797(6) 0.0367 Uani
O6 O 0.6170(7) 0.5800(7) 0.3003(6) 0.0423 Uani
O7 O 0.4474(6) 0.6469(6) 0.3450(5) 0.0260 Uani
O8 O 0.5529(7) 0.7430(7) 0.5906(7) 0.0483 Uani
C1 C 0.3772(9) 0.6265(8) 0.2259(9) 0.0257 Uani
C2 C 0.4116(8) 0.5975(8) 0.3029(8) 0.0240 Uani
C3 C 0.4905(9) 0.7597(8) 0.5571(9) 0.0293 Uani
C4 C 0.6408(9) 0.6377(9) 0.3371(8) 0.0267 Uani
C5 C 0.4087(9) 0.6949(8) 0.1893(8) 0.0233 Uani
H1 H 0.4536 0.7190 0.2103 0.0280 Uiso
C6 C 0.7383(8) 0.7506(8) 0.3459(7) 0.0170 Uani
H2 H 0.7124 0.7685 0.3911 0.0210 Uiso
C7 C 0.4420(8) 0.8308(8) 0.5802(8) 0.0223 Uani
N1 N 0.4384(9) 0.3843(8) 0.1503(8) 0.0423 Uani
C8 C 0.4037(12) 0.4048(13) 0.0746(9) 0.0610 Uani
H3 H 0.3491 0.4192 0.0821 0.0910 Uiso
H4 H 0.4069 0.3602 0.0396 0.0910 Uiso
H5 H 0.4319 0.4487 0.0521 0.0910 Uiso
C9 C 0.3760(9) 0.8529(9) 0.5378(8) 0.0283 Uani
H6 H 0.3607 0.8225 0.4944 0.0340 Uiso
C10 C 0.7113(9) 0.6828(9) 0.3041(9) 0.0270 Uani
C11 C 0.4001(11) 0.3842(9) 0.2180(9) 0.0337 Uani
H7 H 0.3477 0.4013 0.2177 0.0400 Uiso
C12 C 0.5196(10) 0.3627(12) 0.1501(12) 0.0513 Uani
H8 H 0.5364 0.3514 0.2033 0.0770 Uiso
H9 H 0.5506 0.4055 0.1291 0.0770 Uiso
H10 H 0.5268 0.3164 0.1178 0.0770 Uiso
O9 O 0.4037(6) 0.5241(6) 0.3166(6) 0.0300 Uani
Nd1B Nd 0.58456(4) 0.91544(4) 0.08456(4) 0.0195 Uani
Nd1A Nd 0.08456(4) 0.58456(4) -0.08456(4) 0.0195 Uani
In1D In 0.45050(6) 0.50770(6) 0.61417(6) 0.0214 Uani
In1H In 0.61417(6) 0.45050(6) 0.50770(6) 0.0214 Uani
In1J In 0.11417(6) 1.04950(6) 0.49230(6) 0.0214 Uani
In1G In 0.54950(6) 1.00770(6) 0.88583(6) 0.0214 Uani
In1E In 0.95050(6) 0.99230(6) 0.38583(6) 0.0214 Uani
In1K In 0.88583(6) 0.54950(6) 0.00770(6) 0.0214 Uani
In1I In 0.38583(6) 0.95050(6) -0.00770(6) 0.0214 Uani
In1F In 0.04950(6) 0.49230(6) 0.11417(6) 0.0214 Uani
O2D O 0.4954(5) 0.4105(5) 0.5430(5) 0.0193 Uani
O2H O 0.5430(5) 0.4954(5) 0.4105(5) 0.0193 Uani
O3J O 0.2195(6) 0.9996(6) 0.5375(6) 0.0280 Uani
O3G O 0.4996(6) 0.9625(6) 0.7805(6) 0.0280 Uani
O3D O 0.5004(6) 0.4625(6) 0.7195(6) 0.0280 Uani
O3H O 0.7195(6) 0.5004(6) 0.4625(6) 0.0280 Uani
O4E O 0.9029(6) 0.8867(6) 0.3372(5) 0.0290 Uani
O4K O 0.8372(5) 0.5971(6) 0.1133(6) 0.0290 Uani
O4D O 0.4029(6) 0.6133(6) 0.6628(5) 0.0290 Uani
O4H O 0.6628(5) 0.4029(6) 0.6133(6) 0.0290 Uani
O5D O 0.2797(6) 0.4275(7) 0.3639(6) 0.0367 Uani
O5H O 0.3639(6) 0.2797(6) 0.4275(7) 0.0367 Uani
O6E O 0.8003(6) 0.8830(7) 0.4200(7) 0.0423 Uani
O6K O 0.9200(7) 0.6997(6) 0.1170(7) 0.0423 Uani
O7I O 0.3531(6) 0.8450(5) 0.0526(6) 0.0260 Uani
O7F O 0.1550(5) 0.5526(6) 0.1469(6) 0.0260 Uani
O7D O 0.3450(5) 0.4474(6) 0.6469(6) 0.0260 Uani
O7H O 0.6469(6) 0.3450(5) 0.4474(6) 0.0260 Uani
O8J O 0.2430(7) 0.9094(7) 0.4471(7) 0.0483 Uani
O8G O 0.4094(7) 1.0529(7) 0.7570(7) 0.0483 Uani
C1I C 0.3735(8) 0.7259(9) 0.1228(9) 0.0257 Uani
C1F C 0.2741(9) 0.6228(9) 0.1265(8) 0.0257 Uani
C2I C 0.4025(8) 0.8029(8) 0.0884(8) 0.0240 Uani
C2F C 0.1971(8) 0.5884(8) 0.0975(8) 0.0240 Uani
C3J C 0.2597(8) 0.9429(9) 0.5095(9) 0.0293 Uani
C3G C 0.4429(9) 0.9905(9) 0.7403(8) 0.0293 Uani
C4E C 0.8371(8) 0.8592(9) 0.3623(9) 0.0267 Uani
C4K C 0.8623(9) 0.6629(8) 0.1408(9) 0.0267 Uani
C5I C 0.3051(8) 0.6893(8) 0.0913(9) 0.0233 Uani
C5F C 0.3107(8) 0.5913(9) 0.1949(8) 0.0233 Uani
H1F H 0.2897 0.5464 0.2190 0.0280 Uiso
H1I H 0.2810 0.7103 0.0464 0.0280 Uiso
C6E C 0.8459(7) 0.7617(8) 0.2494(8) 0.0170 Uani
C6K C 0.7494(8) 0.6541(7) 0.2383(8) 0.0170 Uani
H2E H 0.8911 0.7876 0.2315 0.0210 Uiso
H2K H 0.7315 0.6089 0.2124 0.0210 Uiso
C7J C 0.3308(8) 0.9198(8) 0.5580(8) 0.0223 Uani
C7G C 0.4198(8) 0.9420(8) 0.6692(8) 0.0223 Uani
N1D N 0.1503(8) 0.4384(9) 0.3843(8) 0.0423 Uani
N1H N 0.3843(8) 0.1503(8) 0.4384(9) 0.0423 Uani
C8D C 0.0746(9) 0.4037(12) 0.4048(13) 0.0610 Uani
C8H C 0.4048(13) 0.0746(9) 0.4037(12) 0.0610 Uani
H3D H 0.0821 0.3491 0.4192 0.0910 Uiso
H3H H 0.4192 0.0821 0.3491 0.0910 Uiso
H4D H 0.0396 0.4069 0.3602 0.0910 Uiso
H4H H 0.3602 0.0396 0.4069 0.0910 Uiso
H5D H 0.0521 0.4319 0.4487 0.0910 Uiso
H5H H 0.4487 0.0521 0.4319 0.0910 Uiso
C9J C 0.3529(9) 0.9622(8) 0.6240(9) 0.0283 Uani
C9G C 0.4622(8) 0.8760(9) 0.6471(9) 0.0283 Uani
H6G H 0.5056 0.8607 0.6775 0.0340 Uiso
H6J H 0.3225 1.0056 0.6393 0.0340 Uiso
C10E C 0.8041(9) 0.7887(9) 0.3172(9) 0.0270 Uani
C10K C 0.8172(9) 0.6959(9) 0.2113(9) 0.0270 Uani
C11D C 0.2180(9) 0.4001(11) 0.3842(9) 0.0337 Uani
C11H C 0.3842(9) 0.2180(9) 0.4001(11) 0.0337 Uani
H7D H 0.2177 0.3477 0.4013 0.0400 Uiso
H7H H 0.4013 0.2177 0.3477 0.0400 Uiso
C12D C 0.1501(12) 0.5196(10) 0.3627(12) 0.0513 Uani
C12H C 0.3627(12) 0.1501(12) 0.5196(10) 0.0513 Uani
H8D H 0.2033 0.5364 0.3514 0.0770 Uiso
H8H H 0.3514 0.2033 0.5364 0.0770 Uiso
H9D H 0.1291 0.5506 0.4055 0.0770 Uiso
H9H H 0.4055 0.1291 0.5506 0.0770 Uiso
H10D H 0.1178 0.5268 0.3164 0.0770 Uiso
H10H H 0.3164 0.1178 0.5268 0.0770 Uiso
O9I O 0.4759(6) 0.8166(6) 0.0963(6) 0.0300 Uani
O9F O 0.1834(6) 0.5963(6) 0.0241(6) 0.0300 Uani
O9D O 0.3166(6) 0.4037(6) 0.5241(6) 0.0300 Uani
O9H O 0.5241(6) 0.3166(6) 0.4037(6) 0.0300 Uani
O10? O 1.214(4) -0.167(3) 0.293(4) 0.1000 Uiso
loop_
_atom_site_aniso_label
_atom_site_aniso_U_11
_atom_site_aniso_U_22
_atom_site_aniso_U_33
_atom_site_aniso_U_23
_atom_site_aniso_U_13
_atom_site_aniso_U_12
Nd1 0.0195 0.0195 0.0195 -0.0006 -0.0006 -0.0006
In1 0.0248 0.0188 0.0206 0.0008 -0.0006 0
O1 0.019 0.019 0.019 -0.005 -0.005 -0.005
O2 0.021 0.024 0.013 0.003 0 -0.005
O3 0.029 0.024 0.031 -0.012 0.009 0.003
O4 0.033 0.028 0.026 -0.004 0.005 -0.008
O5 0.063 0.025 0.022 -0.008 -0.002 0.004
O6 0.047 0.054 0.026 0 0.013 -0.031
O7 0.036 0.025 0.017 0.001 -0.006 0.003
O8 0.036 0.052 0.057 -0.027 -0.013 0.019
C1 0.032 0.009 0.036 0.003 0.001 0.002
C2 0.023 0.017 0.032 0.018 0.001 -0.005
C3 0.029 0.019 0.04 0.008 -0.008 0.002
C4 0.032 0.031 0.017 -0.001 -0.004 0.003
C5 0.027 0.023 0.02 0 -0.005 0.002
C6 0.02 0.023 0.008 -0.005 -0.001 -0.004
C7 0.02 0.025 0.022 0.006 -0.003 -0.008
N1 0.058 0.036 0.033 -0.002 -0.002 0.002
C8 0.068 0.092 0.023 0.019 -0.012 -0.015
C9 0.033 0.034 0.018 -0.002 0 -0.018
C10 0.021 0.027 0.033 0.008 0.003 0.005
C11 0.05 0.029 0.022 -0.009 0.005 0.005
C12 0.035 0.06 0.059 -0.007 0.015 -0.005
O9 0.035 0.033 0.022 0.006 -0.012 -0.006
Nd1B 0.0195 0.0195 0.0195 0.0006 -0.0006 0.0006
Nd1A 0.0195 0.0195 0.0195 0.0006 0.0006 -0.0006
In1D 0.0206 0.0248 0.0188 0 0.0008 -0.0006
In1H 0.0188 0.0206 0.0248 -0.0006 0 0.0008
In1J 0.0188 0.0206 0.0248 -0.0006 0 -0.0008
In1G 0.0206 0.0248 0.0188 0 0.0008 0.0006
In1E 0.0206 0.0248 0.0188 0 -0.0008 0.0006
In1K 0.0188 0.0206 0.0248 0.0006 0 0.0008
In1I 0.0188 0.0206 0.0248 0.0006 0 -0.0008
In1F 0.0206 0.0248 0.0188 0 -0.0008 -0.0006
O2D 0.013 0.021 0.024 -0.005 0.003 0
O2H 0.024 0.013 0.021 0 -0.005 0.003
O3J 0.024 0.031 0.029 0.009 -0.003 0.012
O3G 0.031 0.029 0.024 -0.003 -0.012 -0.009
O3D 0.031 0.029 0.024 0.003 -0.012 0.009
O3H 0.024 0.031 0.029 0.009 0.003 -0.012
O4E 0.026 0.033 0.028 -0.008 0.004 -0.005
O4K 0.028 0.026 0.033 -0.005 0.008 -0.004
O4D 0.026 0.033 0.028 -0.008 -0.004 0.005
O4H 0.028 0.026 0.033 0.005 -0.008 -0.004
O5D 0.022 0.063 0.025 0.004 -0.008 -0.002
O5H 0.025 0.022 0.063 -0.002 0.004 -0.008
O6E 0.026 0.047 0.054 -0.031 0 -0.013
O6K 0.054 0.026 0.047 -0.013 0.031 0
O7I 0.025 0.017 0.036 0.006 0.003 -0.001
O7F 0.017 0.036 0.025 -0.003 -0.001 -0.006
O7D 0.017 0.036 0.025 0.003 0.001 -0.006
O7H 0.025 0.017 0.036 -0.006 0.003 0.001
O8J 0.052 0.057 0.036 -0.013 -0.019 0.027
O8G 0.057 0.036 0.052 -0.019 -0.027 0.013
C1I 0.009 0.036 0.032 -0.001 0.002 -0.003
C1F 0.036 0.032 0.009 -0.002 -0.003 0.001
C2I 0.017 0.032 0.023 -0.001 -0.005 -0.018
C2F 0.032 0.023 0.017 0.005 -0.018 0.001
C3J 0.019 0.04 0.029 -0.008 -0.002 -0.008
C3G 0.04 0.029 0.019 -0.002 0.008 0.008
C4E 0.017 0.032 0.031 0.003 0.001 0.004
C4K 0.031 0.017 0.032 0.004 -0.003 -0.001
C5I 0.023 0.02 0.027 0.005 0.002 0
C5F 0.02 0.027 0.023 -0.002 0 -0.005
C6E 0.008 0.02 0.023 -0.004 0.005 0.001
C6K 0.023 0.008 0.02 0.001 0.004 -0.005
C7J 0.025 0.022 0.02 -0.003 0.008 -0.006
C7G 0.022 0.02 0.025 0.008 0.006 0.003
N1D 0.033 0.058 0.036 0.002 -0.002 -0.002
N1H 0.036 0.033 0.058 -0.002 0.002 -0.002
C8D 0.023 0.068 0.092 -0.015 0.019 -0.012
C8H 0.092 0.023 0.068 -0.012 -0.015 0.019
C9J 0.034 0.018 0.033 0 0.018 0.002
C9G 0.018 0.033 0.034 0.018 -0.002 0
C10E 0.033 0.021 0.027 0.005 -0.008 -0.003
C10K 0.027 0.033 0.021 -0.003 -0.005 0.008
C11D 0.022 0.05 0.029 0.005 -0.009 0.005
C11H 0.029 0.022 0.05 0.005 0.005 -0.009
C12D 0.059 0.035 0.06 -0.005 -0.007 0.015
C12H 0.06 0.059 0.035 0.015 -0.005 -0.007
O9I 0.033 0.022 0.035 0.012 -0.006 -0.006
O9F 0.022 0.035 0.033 0.006 -0.006 -0.012
O9D 0.022 0.035 0.033 -0.006 0.006 -0.012
O9H 0.033 0.022 0.035 -0.012 -0.006 0.006
loop_
_geom_bond_atom_site_label_1
_geom_bond_atom_site_label_2
_geom_bond_site_symmetry_1
_geom_bond_site_symmetry_2
Nd1 O2 1_555 1_555
In1 O1 1_555 1_555
O1 In1D 1_555 1_555
O2 In1 1_555 1_555
O3 In1 1_555 1_555
O4 In1 1_555 1_555
O5 Nd1 1_555 1_555
O6 C4 1_555 1_555
O7 In1 1_555 1_555
O8 C3 1_555 1_555
C1 C2 1_555 1_555
C2 O7 1_555 1_555
C3 O3 1_555 1_555
C4 O4 1_555 1_555
C5 C1 1_555 1_555
H1 C5 1_555 1_555
C6 H2 1_555 1_555
C7 C3 1_555 1_555
N1 C8 1_555 1_555
C8 H3 1_555 1_555
H4 C8 1_555 1_555
H5 C8 1_555 1_555
C9 C7 1_555 1_555
H6 C9 1_555 1_555
C10 C4 1_555 1_555
C11 O5 1_555 1_555
H7 C11 1_555 1_555
C12 N1 1_555 1_555
H8 C12 1_555 1_555
H9 C12 1_555 1_555
H10 C12 1_555 1_555
O9 Nd1 1_555 1_555
Nd1B O9I 1_555 1_555
Nd1A O9F 1_555 1_555
In1D O2 1_555 1_555
In1H O1 1_555 1_555
In1J O3J 1_555 1_555
In1G O3G 1_555 1_555
In1E O4E 1_555 1_555
In1K O4K 1_555 1_555
In1I O7I 1_555 1_555
In1F O7F 1_555 1_555
O2D Nd1 1_555 1_555
O2H Nd1 1_555 1_555
O3J C3J 1_555 1_555
O3G C3G 1_555 1_555
O3D In1D 1_555 1_555
O3H In1H 1_555 1_555
O4E C4E 1_555 1_555
O4K C4K 1_555 1_555
O4D In1D 1_555 1_555
O4H In1H 1_555 1_555
O5D Nd1 1_555 1_555
O5H Nd1 1_555 1_555
O6E C4E 1_555 1_555
O6K C4K 1_555 1_555
O7I C2I 1_555 1_555
O7F C2F 1_555 1_555
O7D In1D 1_555 1_555
O7H In1H 1_555 1_555
O8J C3J 1_555 1_555
O8G C3G 1_555 1_555
C1I C5 1_555 1_555
C1F C2F 1_555 1_555
C2I C1I 1_555 1_555
C2F O9F 1_555 1_555
C3J C7J 1_555 1_555
C3G C7G 1_555 1_555
C4E C10E 1_555 1_555
C4K C10K 1_555 1_555
C5I C1I 1_555 1_555
C5F C1 1_555 1_555
H1F C5F 1_555 1_555
H1I C5I 1_555 1_555
C6E H2E 1_555 1_555
C6K C10 1_555 1_555
H2K C6K 1_555 1_555
C7J C9 1_555 1_555
C7G C9J 1_555 1_555
N1D C8D 1_555 1_555
N1H C8H 1_555 1_555
C8D H3D 1_555 1_555
C8H H3H 1_555 1_555
H4D C8D 1_555 1_555
H4H C8H 1_555 1_555
H5D C8D 1_555 1_555
H5H C8H 1_555 1_555
C9J C7J 1_555 1_555
C9G C7 1_555 1_555
H6G C9G 1_555 1_555
H6J C9J 1_555 1_555
C10E C6 1_555 1_555
C10K C6E 1_555 1_555
C11D O5D 1_555 1_555
C11H O5H 1_555 1_555
H7D C11D 1_555 1_555
H7H C11H 1_555 1_555
C12D N1D 1_555 1_555
C12H N1H 1_555 1_555
H8D C12D 1_555 1_555
H8H C12H 1_555 1_555
H9D C12D 1_555 1_555
H9H C12H 1_555 1_555
H10D C12D 1_555 1_555
H10H C12H 1_555 1_555
O9I C2I 1_555 1_555
O9D Nd1 1_555 1_555
O9H Nd1 1_555 1_555
In1 O2H 1_555 1_555
C2 O9 1_555 1_555
C6 C10 1_555 1_555
N1 C11 1_555 1_555
In1D O2D 1_555 1_555
In1H O2D 1_555 1_555
In1H O2H 1_555 1_555
C1F C5I 1_555 1_555
C1F C5F 1_555 1_555
C6E C10E 1_555 1_555
C6K C10K 1_555 1_555
C7G C9G 1_555 1_555
N1D C11D 1_555 1_555
N1H C11H 1_555 1_555

#END
