
#######################################################################
#
#                 Cambridge Crystallographic Data Centre
#                                CCDC 
#
#######################################################################
#
# If this CIF has been generated from an entry in the Cambridge 
# Structural Database, then it will include bibliographic, chemical, 
# crystal, experimental, refinement or atomic coordinate data resulting 
# from the CCDC's data processing and validation procedures.
#
#######################################################################

data_IGINOD
_chemical_formula_moiety         '(C19 H17 N3 O9 Zn2)n'
_chemical_name_systematic        
catena-[bis(\m-pyridine-2,5-dicarboxylato)-(N,N-diethylformamide)-di-zinc]
_symmetry_cell_setting           orthorhombic
_symmetry_space_group_name_H-M   'P b c a'
_symmetry_Int_Tables_number      61
_space_group_name_Hall           '-P 2ac 2ab'
loop_
_symmetry_equiv_pos_site_id
_symmetry_equiv_pos_as_xyz
1 x,y,z
2 1/2-x,-y,1/2+z
3 1/2+x,1/2-y,-z
4 -x,1/2+y,1/2-z
5 -x,-y,-z
6 1/2+x,y,1/2-z
7 1/2-x,1/2+y,z
8 x,1/2-y,1/2+z
_cell_length_a                   12.23325(19)
_cell_length_b                   17.4883(3)
_cell_length_c                   20.3322(5)
_cell_angle_alpha                90
_cell_angle_beta                 90
_cell_angle_gamma                90
_cell_volume                     4349.85
_exptl_crystal_colour            colorless
_exptl_crystal_description       block
_cell_formula_units_Z            8
_exptl_crystal_recrystallization_method N,N-diethylformamide
loop_
_atom_site_label
_atom_site_type_symbol
_atom_site_fract_x
_atom_site_fract_y
_atom_site_fract_z
_atom_site_U_iso_or_equiv
_atom_site_thermal_displace_type
Zn1 Zn 0.75762(3) 0.15197(2) 0.60939(2) 0.0168 Uani
Zn2 Zn 0.98940(3) 0.26308(2) 0.61304(2) 0.0159 Uani
O1 O 1.05747(19) 0.30430(14) 0.52394(12) 0.0258 Uani
O2 O 1.2119(2) 0.35865(14) 0.48699(13) 0.0273 Uani
O3 O 1.44798(18) 0.25007(15) 0.78726(12) 0.0257 Uani
O4 O 1.3024(2) 0.17224(14) 0.79512(12) 0.0273 Uani
O5 O 0.4131(2) 0.60247(15) 0.58849(18) 0.0422 Uani
O6 O 0.57233(17) 0.66461(11) 0.58221(11) 0.0152 Uani
O7 O 0.7240(2) 0.26748(13) 0.59935(15) 0.0328 Uani
O8 O 0.87340(19) 0.34157(13) 0.60385(13) 0.0255 Uani
O9 O 0.6137(3) 0.11509(17) 0.65192(19) 0.0211 Uani
N1 N 1.1524(2) 0.27144(15) 0.63843(13) 0.0172 Uani
N2 N 0.6834(2) 0.53639(14) 0.60300(13) 0.0158 Uani
N3 N 0.4380(3) 0.0766(2) 0.6531(2) 0.0421 Uani
C1 C 1.2165(3) 0.29803(18) 0.58960(16) 0.0190 Uani
C2 C 1.3293(3) 0.3029(2) 0.59499(18) 0.0251 Uani
H1 H 1.3724 0.3216 0.5596 0.0300 Uiso
C3 C 1.3779(3) 0.2795(2) 0.65386(19) 0.0261 Uani
H2 H 1.4548 0.2831 0.6595 0.0310 Uiso
C4 C 1.3126(2) 0.25093(18) 0.70384(16) 0.0191 Uani
C5 C 1.1994(2) 0.24750(17) 0.69383(16) 0.0176 Uani
H3 H 1.1546 0.2273 0.7278 0.0210 Uiso
C6 C 1.1559(3) 0.32186(18) 0.52769(16) 0.0203 Uani
C7 C 1.3591(3) 0.22251(18) 0.76732(16) 0.0197 Uani
C8 C 0.5770(2) 0.52961(17) 0.58920(17) 0.0183 Uani
C9 C 0.5272(3) 0.45982(18) 0.5764(2) 0.0273 Uani
H4 H 0.4514 0.4571 0.5666 0.0330 Uiso
C10 C 0.5907(3) 0.39420(18) 0.57813(19) 0.0247 Uani
H5 H 0.5594 0.3458 0.5684 0.0300 Uiso
C11 C 0.7009(2) 0.40026(17) 0.59431(16) 0.0180 Uani
C12 C 0.7442(2) 0.47270(16) 0.60582(16) 0.0168 Uani
H6 H 0.8197 0.4771 0.6160 0.0200 Uiso
C13 C 0.5123(3) 0.60347(17) 0.58651(17) 0.0193 Uani
C14 C 0.7721(3) 0.33027(17) 0.59912(16) 0.0196 Uani
C15 C 0.5228(3) 0.1103(2) 0.6249(2) 0.0264 Uani
H7 H 0.5138 0.1316 0.5823 0.0320 Uiso
C16 C 0.4443(4) 0.0415(3) 0.7182(3) 0.0480 Uani
H8 H 0.3750 0.0514 0.7418 0.0570 Uiso
H9 H 0.5039 0.0663 0.7432 0.0570 Uiso
C17 C 0.4642(9) -0.0424(4) 0.7171(4) 0.1203 Uani
H10 H 0.4056 -0.0677 0.6925 0.1800 Uiso
H11 H 0.4656 -0.0620 0.7622 0.1800 Uiso
H12 H 0.5346 -0.0528 0.6958 0.1800 Uiso
C18 C 0.3325(4) 0.0757(4) 0.6165(3) 0.0650 Uani
H13 H 0.2720 0.0738 0.6488 0.0780 Uiso
H14 H 0.3256 0.1243 0.5919 0.0780 Uiso
C19 C 0.3190(7) 0.0137(6) 0.5712(5) 0.1447 Uani
H15 H 0.3840 0.0098 0.5431 0.2170 Uiso
H16 H 0.2545 0.0230 0.5437 0.2170 Uiso
H17 H 0.3094 -0.0341 0.5956 0.2170 Uiso
Zn1B Zn 1.25762(3) 0.34803(2) 0.39061(2) 0.0168 Uani
Zn1E Zn 1.25762(3) 0.15197(2) 0.89061(2) 0.0168 Uani
Zn1F Zn 0.74238(3) 0.65197(2) 0.60939(2) 0.0168 Uani
Zn2E Zn 1.48940(3) 0.26308(2) 0.88696(2) 0.0159 Uani
Zn2F Zn 0.51060(3) 0.76308(2) 0.61304(2) 0.0159 Uani
O2B O 0.7119(2) 0.14135(14) 0.51301(13) 0.0273 Uani
O3E O 0.94798(18) 0.25007(15) 0.71274(12) 0.0257 Uani
O4E O 0.8024(2) 0.17224(14) 0.70488(12) 0.0273 Uani
O6F O 0.92767(17) 0.16461(11) 0.58221(11) 0.0152 Uani
N2F N 0.8166(2) 0.03639(14) 0.60300(13) 0.0158 Uani
O10? O 0.593(2) 0.1313(18) 0.6224(17) 0.0293 Uani
C20? C 0.562(3) 0.101(2) 0.663(2) 0.0333 Uani
H18? H 0.6033 0.0901 0.7018 0.0400 Uiso
loop_
_atom_site_aniso_label
_atom_site_aniso_U_11
_atom_site_aniso_U_22
_atom_site_aniso_U_33
_atom_site_aniso_U_23
_atom_site_aniso_U_13
_atom_site_aniso_U_12
Zn1 0.01223(16) 0.00947(14) 0.02863(19) -0.00007(14) 0.00159(14) -0.00015(12)
Zn2 0.01058(15) 0.01160(15) 0.02554(18) 0.00120(14) 0.00091(13) -0.00148(12)
O1 0.0200(11) 0.0276(12) 0.0298(13) 0.0102(10) -0.0014(10) -0.0030(10)
O2 0.0282(13) 0.0254(12) 0.0283(13) 0.0047(10) 0.0046(10) -0.0098(10)
O3 0.0148(10) 0.0375(14) 0.0249(12) -0.0006(10) -0.0032(9) -0.0037(10)
O4 0.0286(13) 0.0255(12) 0.0277(13) 0.0059(10) -0.0079(10) -0.0081(10)
O5 0.0140(11) 0.0186(12) 0.094(3) -0.0008(14) 0.0009(13) 0.0000(10)
O6 0.0144(9) 0.0074(9) 0.0239(11) 0.0017(8) -0.0010(8) 0.0000(7)
O7 0.0205(12) 0.0108(10) 0.067(2) 0.0017(11) -0.0051(12) 0.0004(9)
O8 0.0177(11) 0.0147(10) 0.0440(15) 0.0023(10) -0.0032(10) 0.0010(8)
O9 0.0128(15) 0.0202(14) 0.0304(18) 0.0024(12) 0.0027(13) -0.0028(11)
N1 0.0157(12) 0.0150(11) 0.0209(13) -0.0009(10) 0.0018(10) -0.0028(9)
N2 0.0143(11) 0.0108(11) 0.0222(13) 0.0012(10) -0.0003(10) -0.0003(9)
N3 0.0307(18) 0.0346(18) 0.061(2) -0.0139(17) 0.0170(17) -0.0100(15)
C1 0.0188(14) 0.0152(13) 0.0230(15) 0.0013(12) 0.0024(12) -0.0037(11)
C2 0.0184(15) 0.0287(17) 0.0283(18) 0.0044(14) 0.0041(13) -0.0047(13)
C3 0.0139(14) 0.0310(18) 0.0333(18) 0.0020(15) -0.0010(13) -0.0048(13)
C4 0.0157(13) 0.0174(14) 0.0241(15) -0.0020(12) 0.0002(12) -0.0010(11)
C5 0.0144(13) 0.0173(14) 0.0210(15) -0.0007(11) 0.0014(11) -0.0018(11)
C6 0.0225(15) 0.0153(14) 0.0230(16) 0.0016(12) 0.0016(12) -0.0004(12)
C7 0.0184(14) 0.0185(15) 0.0223(15) -0.0018(12) -0.0010(12) 0.0023(11)
C8 0.0125(13) 0.0131(13) 0.0292(16) 0.0013(12) 0.0010(12) 0.0001(11)
C9 0.0144(14) 0.0136(14) 0.054(2) 0.0009(14) -0.0035(15) -0.0017(11)
C10 0.0166(14) 0.0136(14) 0.044(2) 0.0033(14) -0.0033(14) -0.0036(11)
C11 0.0155(13) 0.0104(12) 0.0282(16) 0.0029(11) -0.0005(12) 0.0015(10)
C12 0.0130(12) 0.0108(12) 0.0265(15) 0.0019(11) -0.0030(12) 0.0014(10)
C13 0.0175(14) 0.0107(12) 0.0297(16) -0.0007(11) 0.0009(12) 0.0005(11)
C14 0.0179(14) 0.0136(13) 0.0274(16) -0.0004(11) -0.0010(12) 0.0030(11)
C15 0.0165(19) 0.0266(19) 0.036(2) -0.0014(16) 0.0007(17) 0.0000(15)
C16 0.045(3) 0.040(2) 0.059(3) -0.013(2) 0.024(2) -0.009(2)
C17 0.224(11) 0.052(4) 0.085(5) 0.014(4) 0.073(6) 0.055(5)
C18 0.033(2) 0.068(4) 0.094(4) -0.034(3) 0.001(3) -0.008(2)
C19 0.093(6) 0.144(8) 0.197(10) -0.127(8) -0.066(7) 0.050(6)
Zn1B 0.01223 0.00947 0.02863 -7e-05 -0.00159 0.00015
Zn1E 0.01223 0.00947 0.02863 7e-05 -0.00159 -0.00015
Zn1F 0.01223 0.00947 0.02863 -7e-05 -0.00159 0.00015
Zn2E 0.01058 0.0116 0.02554 -0.0012 -0.00091 -0.00148
Zn2F 0.01058 0.0116 0.02554 0.0012 -0.00091 0.00148
O2B 0.0282 0.0254 0.0283 0.0047 -0.0046 0.0098
O3E 0.0148 0.0375 0.0249 0.0006 0.0032 -0.0037
O4E 0.0286 0.0255 0.0277 -0.0059 0.0079 -0.0081
O6F 0.0144 0.0074 0.0239 0.0017 0.001 0
N2F 0.0143 0.0108 0.0222 0.0012 0.0003 0.0003
O10? 0.012(9) 0.035(10) 0.041(10) -0.011(9) -0.001(9) 0.000(8)
C20? 0.021(10) 0.036(10) 0.043(11) -0.006(10) -0.008(10) 0.002(10)
loop_
_geom_bond_atom_site_label_1
_geom_bond_atom_site_label_2
_geom_bond_site_symmetry_1
_geom_bond_site_symmetry_2
Zn1 O7 1_555 1_555
Zn2 O1 1_555 1_555
O1 C6 1_555 1_555
O2 C6 1_555 1_555
O3 C7 1_555 1_555
O4 C7 1_555 1_555
O5 C13 1_555 1_555
O6 C13 1_555 1_555
O7 C14 1_555 1_555
O8 Zn2 1_555 1_555
O9 Zn1 1_555 1_555
N1 Zn2 1_555 1_555
N2 C8 1_555 1_555
N3 C15 1_555 1_555
C1 N1 1_555 1_555
C2 C1 1_555 1_555
H1 C2 1_555 1_555
C3 C2 1_555 1_555
H2 C3 1_555 1_555
C4 C3 1_555 1_555
C5 N1 1_555 1_555
H3 C5 1_555 1_555
C6 C1 1_555 1_555
C7 C4 1_555 1_555
C8 C9 1_555 1_555
C9 H4 1_555 1_555
C10 C9 1_555 1_555
H5 C10 1_555 1_555
C11 C10 1_555 1_555
C12 N2 1_555 1_555
H6 C12 1_555 1_555
C13 C8 1_555 1_555
C14 O8 1_555 1_555
C15 O9 1_555 1_555
H7 C15 1_555 1_555
C16 N3 1_555 1_555
H8 C16 1_555 1_555
H9 C16 1_555 1_555
C17 C16 1_555 1_555
H10 C17 1_555 1_555
H11 C17 1_555 1_555
H12 C17 1_555 1_555
C18 N3 1_555 1_555
H13 C18 1_555 1_555
H14 C18 1_555 1_555
C19 C18 1_555 1_555
H15 C19 1_555 1_555
H16 C19 1_555 1_555
H17 C19 1_555 1_555
Zn1B O2 1_555 1_555
Zn1E O4 1_555 1_555
Zn1F O6 1_555 1_555
Zn2E O3 1_555 1_555
Zn2F O6 1_555 1_555
O2B Zn1 1_555 1_555
O3E Zn2 1_555 1_555
O4E Zn1 1_555 1_555
O6F Zn1 1_555 1_555
N2F Zn1 1_555 1_555
Zn2 O6F 1_555 1_555
N2 Zn1F 1_555 1_555
C4 C5 1_555 1_555
C11 C12 1_555 1_555
C11 C14 1_555 1_555

#END
