
#######################################################################
#
#                 Cambridge Crystallographic Data Centre
#                                CCDC 
#
#######################################################################
#
# If this CIF has been generated from an entry in the Cambridge 
# Structural Database, then it will include bibliographic, chemical, 
# crystal, experimental, refinement or atomic coordinate data resulting 
# from the CCDC's data processing and validation procedures.
#
#######################################################################

data_IWAHUK
_chemical_formula_moiety         
'(C22 H20 N2 O10 Zn2)n,3n(C3 H7 N1 O1),0.6n(H2 O1)'
_chemical_name_systematic        
'catena-(bis(\m~4~-2-Hydroxybenzene-1,4-dicarboxylato)-(\m~2~-triethylenediamine)-di-zinc dimethylformamide solvate hydrate)'
_symmetry_cell_setting           tetragonal
_symmetry_space_group_name_H-M   'I 4/m'
_symmetry_Int_Tables_number      87
_space_group_name_Hall           '-I 4'
loop_
_symmetry_equiv_pos_site_id
_symmetry_equiv_pos_as_xyz
1 x,y,z
2 -y,x,z
3 -x,-y,z
4 y,-x,z
5 1/2+x,1/2+y,1/2+z
6 1/2-y,1/2+x,1/2+z
7 1/2-x,1/2-y,1/2+z
8 1/2+y,1/2-x,1/2+z
9 -x,-y,-z
10 y,-x,-z
11 x,y,-z
12 -y,x,-z
13 1/2-x,1/2-y,1/2-z
14 1/2+y,1/2-x,1/2-z
15 1/2+x,1/2+y,1/2-z
16 1/2-y,1/2+x,1/2-z
_cell_length_a                   15.0208(8)
_cell_length_b                   15.0208(8)
_cell_length_c                   19.217(2)
_cell_angle_alpha                90
_cell_angle_beta                 90
_cell_angle_gamma                90
_cell_volume                     4335.82
_exptl_crystal_colour            colorless
_exptl_crystal_description       rod
_cell_formula_units_Z            4
loop_
_atom_site_label
_atom_site_type_symbol
_atom_site_fract_x
_atom_site_fract_y
_atom_site_fract_z
_atom_site_U_iso_or_equiv
_atom_site_thermal_displace_type
O5 O -0.2653(10) 0.0884(11) 0.2400(6) 0.1380 Uani
C13 C -0.3191(11) 0.1395(11) 0.2192(8) 0.1010 Uani
H17 H -0.3316 0.1885 0.2489 0.1210 Uiso
N3 N -0.3630(17) 0.137(2) 0.1614(8) 0.0930 Uani
C17 C -0.3190(16) 0.0610(12) 0.1352(12) 0.1263 Uani
H25 H -0.2789 0.0400 0.1719 0.1900 Uiso
H26 H -0.2853 0.0696 0.0921 0.1900 Uiso
H27 H -0.3660 0.0168 0.1275 0.1900 Uiso
C18 C -0.4279(11) 0.1857(12) 0.1077(8) 0.0813 Uani
H28 H -0.4580 0.2330 0.1338 0.1220 Uiso
H29 H -0.4718 0.1412 0.0929 0.1220 Uiso
H30 H -0.3988 0.2112 0.0667 0.1220 Uiso
O7 O -0.5000 0.0000 0.0000 0.1130 Uani
O8 O -0.5000 0.0000 0.2500 0.2133 Uani
Zn1 Zn 0.0000 0.0000 0.42277(5) 0.0355 Uani
Zn2 Zn -0.5000 -0.5000 0.57728(5) 0.0351 Uani
O1 O -0.0533(2) -0.1220(2) 0.44282(15) 0.0614 Uani
O2 O -0.3783(2) -0.4468(3) 0.55745(15) 0.0613 Uani
C1 C -0.0771(4) -0.1528(4) 0.5000 0.0403 Uani
C2 C -0.1379(4) -0.2296(4) 0.5000 0.0333 Uani
C3 C -0.1709(4) -0.2648(3) 0.4374(2) 0.0427 Uani
C4 C -0.2354(3) -0.3304(3) 0.4375(3) 0.0413 Uani
O3 O -0.1434(11) -0.2394(9) 0.3754(6) 0.0693 Uani
H1 H -0.1322 -0.2787 0.3291 0.1040 Uiso
C5 C -0.2690(4) -0.3602(4) 0.5000 0.0373 Uani
C6 C -0.3482(5) -0.4234(4) 0.5000 0.0417 Uani
N1 N 0.0000 0.0000 0.3143(13) 0.0330 Uani
H6 H -0.0026 -0.1389 0.3027 0.0410 Uiso
N2 N -0.5000 -0.5000 0.6808(14) 0.0331 Uani
C9 C 0.0129(11) -0.0920(7) 0.2903(6) 0.0343 Uani
C10 C -0.4880(11) -0.5894(7) 0.7106(6) 0.0333 Uani
O1A O 0.1220(2) -0.0533(2) 0.44282(15) 0.0614 Uani
O1B O 0.0533(2) 0.1220(2) 0.44282(15) 0.0614 Uani
O1C O -0.1220(2) 0.0533(2) 0.44282(15) 0.0614 Uani
O1J O -0.0533(2) -0.1220(2) 0.55718(15) 0.0614 Uani
O2A O -0.5532(3) -0.3783(2) 0.55745(15) 0.0613 Uani
O2B O -0.6217(2) -0.5532(3) 0.55745(15) 0.0613 Uani
O2C O -0.4468(3) -0.6217(2) 0.55745(15) 0.0613 Uani
O2J O -0.3783(2) -0.4468(3) 0.44255(15) 0.0613 Uani
C3J C -0.1709(4) -0.2648(3) 0.5626(2) 0.0427 Uani
C4J C -0.2354(3) -0.3304(3) 0.5625(3) 0.0413 Uani
C9A C 0.0920(7) 0.0129(11) 0.2903(6) 0.0343 Uani
C9B C -0.0129(11) 0.0920(7) 0.2903(6) 0.0343 Uani
C9C C -0.0920(7) -0.0129(11) 0.2903(6) 0.0343 Uani
C9D C -0.4871(11) -0.5920(7) 0.7903(6) 0.0343 Uani
C10A C -0.4106(7) -0.4880(11) 0.7106(6) 0.0333 Uani
C10B C -0.5120(11) -0.4106(7) 0.7106(6) 0.0333 Uani
C10C C -0.5894(7) -0.5120(11) 0.7106(6) 0.0333 Uani
C10D C 0.0120(11) -0.0894(7) 0.2106(6) 0.0333 Uani
H2? H -0.2567 -0.3531 0.3940 0.0830 Uiso
O4? O -0.2547(9) -0.3585(13) 0.3759(7) 0.0720 Uani
H3? H -0.2093 -0.3883 0.3380 0.1080 Uiso
H4? H -0.1463 -0.2433 0.3953 0.0860 Uiso
C7? C -0.0879(9) 0.0390(10) 0.2868(5) 0.0343 Uani
H5? H 0.0960 -0.1006 0.3040 0.0410 Uiso
C8? C -0.0827(9) 0.0385(11) 0.2071(5) 0.0333 Uani
H7? H 0.0881 -0.1003 0.1899 0.0400 Uiso
H8? H -0.0041 -0.1336 0.1885 0.0400 Uiso
H9? H 0.0704 -0.1166 0.3065 0.0410 Uiso
H10? H -0.0352 -0.1317 0.3070 0.0410 Uiso
H11? H -0.0367 -0.1279 0.1935 0.0400 Uiso
H12? H 0.0688 -0.1140 0.1930 0.0400 Uiso
C11? C 0.0746(9) 0.0620(9) 0.2895(6) 0.0343 Uani
H13? H 0.0430 -0.1328 0.3087 0.0410 Uiso
H14? H -0.0630 -0.1240 0.3045 0.0410 Uiso
C12? C 0.0756(9) 0.0562(10) 0.2108(6) 0.0333 Uani
H15? H 0.0299 -0.1325 0.1949 0.0400 Uiso
H16? H -0.0703 -0.1166 0.1905 0.0400 Uiso
C14? C -0.4365(12) 0.1865(14) 0.1499(11) 0.1263 Uani
H18? H -0.4470 0.2257 0.1898 0.1900 Uiso
H19? H -0.4878 0.1470 0.1436 0.1900 Uiso
H20? H -0.4281 0.2225 0.1079 0.1900 Uiso
C15? C -0.3147(12) 0.0825(10) 0.1044(8) 0.0813 Uani
H21? H -0.2688 0.0452 0.1260 0.1220 Uiso
H22? H -0.2868 0.1231 0.0710 0.1220 Uiso
H23? H -0.3578 0.0446 0.0802 0.1220 Uiso
O6? O -0.3703(9) 0.2486(12) 0.2389(6) 0.1380 Uani
C16? C -0.3358(11) 0.1849(12) 0.2111(8) 0.1010 Uani
H24? H -0.2843 0.1635 0.2343 0.1210 Uiso
N4? N -0.357(2) 0.140(2) 0.1550(8) 0.0930 Uani
H31? H -0.5578 0.0044 -0.0236 0.1690 Uiso
H32? H -0.4995 0.0577 0.0251 0.1690 Uiso
H33? H -0.5578 0.0044 0.2264 0.3160 Uiso
H34? H -0.4995 0.0577 0.2751 0.3160 Uiso
N5? N 0.0000 0.0000 0.3204(14) 0.0330 Uani
N6? N 0.0000 0.0000 0.3156(16) 0.0330 Uani
N7? N 0.0000 0.0000 0.1827(15) 0.0331 Uani
N8? N 0.0000 0.0000 0.1873(16) 0.0331 Uani
loop_
_atom_site_aniso_label
_atom_site_aniso_U_11
_atom_site_aniso_U_22
_atom_site_aniso_U_33
_atom_site_aniso_U_23
_atom_site_aniso_U_13
_atom_site_aniso_U_12
O5 0.117(6) 0.180(8) 0.117(4) -0.018(5) -0.021(4) 0.029(7)
C13 0.095(5) 0.113(6) 0.095(4) -0.014(5) -0.013(4) 0.013(5)
N3 0.080(4) 0.087(4) 0.112(3) -0.019(4) -0.021(4) 0.009(2)
C17 0.106(7) 0.105(7) 0.168(8) -0.002(6) 0.002(7) 0.035(4)
C18 0.073(5) 0.065(5) 0.106(5) -0.015(5) 0.000(5) 0.007(3)
O7 0.154(12) 0.057(7) 0.128(9) 0.000 0.000 0.006(5)
O8 0.21(2) 0.21(2) 0.22(3) 0.000 0.000 0.000
Zn1 0.0333 0.0333 0.04 0 0 0
Zn2 0.0326 0.0326 0.0402 0 0 0
O1 0.081 0.0458 0.0574 -0.0168 0.0322 -0.023
O2 0.044 0.082 0.058 0.034 -0.0078 -0.02
C1 0.037 0.034 0.05 0 0 0.004
C2 0.035 0.035 0.03 0 0 0.002
C3 0.053 0.049 0.026 -0.0011 0.0057 -0.005
C4 0.045 0.046 0.033 -0.0089 0.001 -0.004
O3 0.097 0.078 0.033 -0.015 0.025 -0.045
C5 0.033 0.037 0.042 0 0 -0.001
C6 0.038 0.041 0.046 0 0 -0.002
N1 0.0305 0.0305 0.038 0 0 0
N2 0.0281 0.0281 0.043 0 0 0
C9 0.034 0.026 0.043 -0.001 0.006 0
C10 0.031 0.026 0.043 0.001 0.001 -0.005
O1A 0.0458 0.081 0.0574 0.0322 0.0168 0.023
O1B 0.081 0.0458 0.0574 0.0168 -0.0322 -0.023
O1C 0.0458 0.081 0.0574 -0.0322 -0.0168 0.023
O1J 0.081 0.0458 0.0574 0.0168 -0.0322 -0.023
O2A 0.082 0.044 0.058 -0.0078 -0.034 0.02
O2B 0.044 0.082 0.058 -0.034 0.0078 -0.02
O2C 0.082 0.044 0.058 0.0078 0.034 0.02
O2J 0.044 0.082 0.058 -0.034 0.0078 -0.02
C3J 0.053 0.049 0.026 0.0011 -0.0057 -0.005
C4J 0.045 0.046 0.033 0.0089 -0.001 -0.004
C9A 0.026 0.034 0.043 0.006 0.001 0
C9B 0.034 0.026 0.043 0.001 -0.006 0
C9C 0.026 0.034 0.043 -0.006 -0.001 0
C9D 0.034 0.026 0.043 -0.001 0.006 0
C10A 0.026 0.031 0.043 0.001 -0.001 0.005
C10B 0.031 0.026 0.043 -0.001 -0.001 -0.005
C10C 0.026 0.031 0.043 -0.001 0.001 0.005
C10D 0.031 0.026 0.043 0.001 0.001 -0.005
O4? 0.075 0.107 0.034 -0.017 0.003 -0.039
C7? 0.026 0.034 0.043 -0.006 -0.001 0
C8? 0.026 0.031 0.043 -0.001 0.001 0.005
C11? 0.034 0.026 0.043 0.001 -0.006 0
C12? 0.031 0.026 0.043 -0.001 -0.001 -0.005
C14? 0.106(7) 0.105(7) 0.168(8) -0.002(6) 0.002(7) 0.035(4)
C15? 0.073(5) 0.065(5) 0.106(5) -0.015(5) 0.000(5) 0.007(3)
O6? 0.117(6) 0.180(8) 0.117(4) -0.018(5) -0.021(4) 0.029(7)
C16? 0.095(5) 0.113(6) 0.095(4) -0.014(5) -0.013(4) 0.013(5)
N4? 0.080(4) 0.087(4) 0.112(3) -0.019(4) -0.021(4) 0.009(2)
N5? 0.0305 0.0305 0.038 0 0 0
N6? 0.0305 0.0305 0.038 0 0 0
N7? 0.0281 0.0281 0.043 0 0 0
N8? 0.0281 0.0281 0.043 0 0 0
loop_
_geom_bond_atom_site_label_1
_geom_bond_atom_site_label_2
_geom_bond_site_symmetry_1
_geom_bond_site_symmetry_2
Zn1 O1 1_555 1_555
Zn2 O2 1_555 1_555
O1 C1 1_555 1_555
O2 C6 1_555 1_555
C1 C2 1_555 1_555
C2 C3 1_555 1_555
C3 C4 1_555 1_555
C4 C5 1_555 1_555
O3 C3 1_555 1_555
H1 O3 1_555 1_555
C5 C6 1_555 1_555
C6 O2J 1_555 1_555
N1 Zn1 1_555 1_555
H6 C9 1_555 1_555
N2 Zn2 1_555 1_555
C9 N1 1_555 1_555
C10 N2 1_555 1_555
O5 C13 1_555 1_555
C13 H17 1_555 1_555
N3 C13 1_555 1_555
C17 N3 1_555 1_555
H25 C17 1_555 1_555
H26 C17 1_555 1_555
H27 C17 1_555 1_555
C18 N3 1_555 1_555
H28 C18 1_555 1_555
H29 C18 1_555 1_555
H30 C18 1_555 1_555
O1A Zn1 1_555 1_555
O1B Zn1 1_555 1_555
O1C Zn1 1_555 1_555
O1J C1 1_555 1_555
O2A Zn2 1_555 1_555
O2B Zn2 1_555 1_555
O2C Zn2 1_555 1_555
C3J C2 1_555 1_555
C4J C5 1_555 1_555
C9A N1 1_555 1_555
C9B N1 1_555 1_555
C9C N1 1_555 1_555
C9D C10 1_555 1_555
C10A N2 1_555 1_555
C10B N2 1_555 1_555
C10C N2 1_555 1_555
C10D C9 1_555 1_555
C3J C4J 1_555 1_555

#END
