
#######################################################################
#
#                 Cambridge Crystallographic Data Centre
#                                CCDC 
#
#######################################################################
#
# If this CIF has been generated from an entry in the Cambridge 
# Structural Database, then it will include bibliographic, chemical, 
# crystal, experimental, refinement or atomic coordinate data resulting 
# from the CCDC's data processing and validation procedures.
#
#######################################################################

data_MISCEY
_chemical_formula_moiety         
'(C22 H16 Cu1 N4 O4)n,n(C12 H10 Cu1 N2 O5),2n(H2 O1)'
_chemical_name_systematic        
"catena-(bis(\m-isonicotinato)-(4,4'-bipyridine)-copper bis(\m-isonicotinato)-aqua-copper dihydrate)"
_symmetry_cell_setting           orthorhombic
_symmetry_space_group_name_H-M   'C 2 c b'
_symmetry_Int_Tables_number      41
_space_group_name_Hall           'C -2ac 2'
loop_
_symmetry_equiv_pos_site_id
_symmetry_equiv_pos_as_xyz
1 x,y,z
2 x,-y,-z
3 x,1/2-y,1/2+z
4 x,1/2+y,1/2-z
5 1/2+x,1/2+y,z
6 1/2+x,1/2-y,-z
7 1/2+x,-y,1/2+z
8 1/2+x,y,1/2-z
_cell_length_a                   22.389
_cell_length_b                   13.217
_cell_length_c                   11.861
_cell_angle_alpha                90
_cell_angle_beta                 90
_cell_angle_gamma                90
_cell_volume                     3509.85
_exptl_crystal_colour            blue
_cell_formula_units_Z            4
loop_
_atom_site_label
_atom_site_type_symbol
_atom_site_fract_x
_atom_site_fract_y
_atom_site_fract_z
Cu1 Cu 0.92915(4) 0.5000 1.0000
N1 N 0.9430(3) 0.6063(4) 0.8796(5)
O1 O 0.82970(12) 0.5000 1.0000
H1 H 0.8067 0.5484 1.0000
O2 O 1.02425(12) 0.8802 0.6307
O3 O 0.92500(12) 0.8937 0.6129
C1 C 0.89757(12) 0.6461 0.8193
H2 H 0.8592 0.6209 0.8297
C2 C 0.9066(4) 0.7237(6) 0.7421(6)
H3 H 0.8748 0.7477 0.6993
C3 C 0.9617(4) 0.7647(5) 0.7291(6)
C4 C 1.0079(3) 0.7229(6) 0.7918(6)
H4 H 1.0464 0.7480 0.7840
C5 C 0.9973(4) 0.6456(5) 0.8646(7)
H5 H 1.0291 0.6191 0.9055
C6 C 0.9722(4) 0.8529(5) 0.6507(6)
H1A H 0.8067 0.4516 1.0000
N1A N 0.9430(3) 0.3937(4) 1.1204(5)
O2A O 1.02425(12) 0.1198 1.3693
O3A O 0.92500(12) 0.1063 1.3871
C1A C 0.89757(12) 0.3539 1.1807
H2A H 0.8592 0.3791 1.1703
C2A C 0.9066(4) 0.2763(6) 1.2579(6)
H3A H 0.8748 0.2523 1.3007
C3A C 0.9617(4) 0.2353(5) 1.2709(6)
C4A C 1.0079(3) 0.2771(6) 1.2082(6)
H4A H 1.0464 0.2520 1.2160
C5A C 0.9973(4) 0.3544(5) 1.1354(7)
H5A H 1.0291 0.3809 1.0945
C6A C 0.9722(4) 0.1471(5) 1.3493(6)
Cu1B Cu 0.92915(4) 0.0000 1.5000
Cu1B_2 Cu 0.92915(4) 1.0000 0.5000
O3B O 0.92500(12) 0.6063 1.1129
O3C O 0.92500(12) 0.3937 0.8871
Cu2 Cu 0.66735(4) 0.5000 1.0000
N2 N 0.5666(4) 0.5000 1.0000
N3 N 0.2505(7) 0.5000 1.0000
N4 N 0.6813(3) 0.1112(4) 0.6138(5)
O4 O 0.66757(12) 0.4000 0.8795
O5 O 0.76158(12) 0.3537 0.8965
C7 C 0.5367(3) 0.4887(6) 0.9054(6)
H7 H 0.5580 0.4817 0.8385
C8 C 0.4742(4) 0.4869(6) 0.9013(7)
H8 H 0.4543 0.4770 0.8334
C9 C 0.4430(5) 0.5000 1.0000
C10 C 0.3767(6) 0.5000 1.0000
C11 C 0.3445(5) 0.4374(9) 0.9323(10)
H9 H 0.3638 0.3927 0.8839
C12 C 0.2816(4) 0.4409(9) 0.9360(10)
H10 H 0.2608 0.3971 0.8887
C13 C 0.7121(3) 0.3445(5) 0.8560(7)
C14 C 0.7009(4) 0.2628(5) 0.7707(6)
C15 C 0.7348(3) 0.1763(5) 0.7722(6)
H11 H 0.7651 0.1681 0.8249
C16 C 0.7230(3) 0.1019(6) 0.6944(6)
H12 H 0.7451 0.0423 0.6976
C17 C 0.6489(3) 0.1967(5) 0.6128(6)
H13 H 0.6197 0.2045 0.5576
C18 C 0.6570(4) 0.2728(5) 0.6894(6)
H14 H 0.6333 0.3305 0.6869
C7A C 0.5367(3) 0.5113(6) 1.0946(6)
H7A H 0.5580 0.5183 1.1615
C8A C 0.4742(4) 0.5131(6) 1.0987(7)
H8A H 0.4543 0.5230 1.1666
C11A C 0.3445(5) 0.5626(9) 1.0677(10)
H9A H 0.3638 0.6073 1.1161
C12A C 0.2816(4) 0.5591(9) 1.0640(10)
H10A H 0.2608 0.6029 1.1113
N4A N 0.6813(3) 0.8888(4) 1.3862(5)
O4A O 0.66757(12) 0.6000 1.1205
O5A O 0.76158(12) 0.6463 1.1035
C13A C 0.7121(3) 0.6555(5) 1.1440(7)
C14A C 0.7009(4) 0.7372(5) 1.2293(6)
C15A C 0.7348(3) 0.8237(5) 1.2278(6)
H11A H 0.7651 0.8319 1.1751
C16A C 0.7230(3) 0.8981(6) 1.3056(6)
H12A H 0.7451 0.9577 1.3024
C17A C 0.6489(3) 0.8033(5) 1.3872(6)
H13A H 0.6197 0.7955 1.4424
C18A C 0.6570(4) 0.7272(5) 1.3106(6)
H14A H 0.6333 0.6695 1.3131
Cu2B Cu 0.66735(4) 0.0000 0.5000
Cu2B_2 Cu 0.66735(4) 1.0000 1.5000
N4B N 0.6813(3) 0.3888(4) 1.1138(5)
N4C N 0.6813(3) 0.6112(4) 0.8862(5)
O6 O 1.1224(12) 0.537(2) 0.921(3)
H6? H 0.8072 0.5470 1.0000
loop_
_geom_bond_atom_site_label_1
_geom_bond_atom_site_label_2
_geom_bond_site_symmetry_1
_geom_bond_site_symmetry_2
Cu1 N1 1_555 1_555
N1 C1 1_555 1_555
O1 Cu1 1_555 1_555
H1 O1 1_555 1_555
O2 C6 1_555 1_555
O3 C6 1_555 1_555
C1 H2 1_555 1_555
C2 C1 1_555 1_555
H3 C2 1_555 1_555
C3 C2 1_555 1_555
C4 C3 1_555 1_555
H4 C4 1_555 1_555
C5 N1 1_555 1_555
H5 C5 1_555 1_555
C6 C3 1_555 1_555
Cu2 N2 1_555 1_555
N2 C7 1_555 1_555
N3 C12 1_555 1_555
N4 C16 1_555 1_555
O4 Cu2 1_555 1_555
O5 C13 1_555 1_555
C7 H7 1_555 1_555
C8 C7 1_555 1_555
H8 C8 1_555 1_555
C9 C8 1_555 1_555
C10 C9 1_555 1_555
C11 C10 1_555 1_555
H9 C11 1_555 1_555
C12 C11 1_555 1_555
H10 C12 1_555 1_555
C13 O4 1_555 1_555
C14 C13 1_555 1_555
C15 C14 1_555 1_555
H11 C15 1_555 1_555
C16 C15 1_555 1_555
H12 C16 1_555 1_555
C17 N4 1_555 1_555
H13 C17 1_555 1_555
C18 C14 1_555 1_555
H14 C18 1_555 1_555
H1A O1 1_555 1_555
N1A Cu1 1_555 1_555
O2A C6A 1_555 1_555
O3A C6A 1_555 1_555
C1A N1A 1_555 1_555
H2A C1A 1_555 1_555
C2A C1A 1_555 1_555
H3A C2A 1_555 1_555
C3A C2A 1_555 1_555
C4A C3A 1_555 1_555
H4A C4A 1_555 1_555
C5A N1A 1_555 1_555
H5A C5A 1_555 1_555
C6A C3A 1_555 1_555
Cu1B O3A 1_555 1_555
Cu1B_2 O3 1_555 1_555
O3B Cu1 1_555 1_555
O3C Cu1 1_555 1_555
C7A N2 1_555 1_555
H7A C7A 1_555 1_555
C8A C9 1_555 1_555
H8A C8A 1_555 1_555
C11A C10 1_555 1_555
H9A C11A 1_555 1_555
C12A N3 1_555 1_555
H10A C12A 1_555 1_555
N4A C16A 1_555 1_555
O4A Cu2 1_555 1_555
O5A C13A 1_555 1_555
C13A O4A 1_555 1_555
C14A C13A 1_555 1_555
C15A C14A 1_555 1_555
H11A C15A 1_555 1_555
C16A C15A 1_555 1_555
H12A C16A 1_555 1_555
C17A N4A 1_555 1_555
H13A C17A 1_555 1_555
C18A C14A 1_555 1_555
H14A C18A 1_555 1_555
Cu2B N4 1_555 1_555
Cu2B_2 N4A 1_555 1_555
N4B Cu2 1_555 1_555
N4C Cu2 1_555 1_555
C4 C5 1_555 1_555
C17 C18 1_555 1_555
C4A C5A 1_555 1_555
C7A C8A 1_555 1_555
C11A C12A 1_555 1_555
C17A C18A 1_555 1_555

#END
