
#######################################################################
#
#                 Cambridge Crystallographic Data Centre
#                                CCDC 
#
#######################################################################
#
# If this CIF has been generated from an entry in the Cambridge 
# Structural Database, then it will include bibliographic, chemical, 
# crystal, experimental, refinement or atomic coordinate data resulting 
# from the CCDC's data processing and validation procedures.
#
#######################################################################

data_KETHEY02
_chemical_formula_moiety         '(C16 H14 Cd1 N2 O5)n'
_chemical_name_systematic        
catena-[(\m~4~-5-(pyridin-4-yl)isophthalato)-(N,N-dimethylformamide)-cadmium(ii)]
_symmetry_cell_setting           monoclinic
_symmetry_space_group_name_H-M   'P 21/c'
_symmetry_Int_Tables_number      14
_space_group_name_Hall           '-P 2ybc'
loop_
_symmetry_equiv_pos_site_id
_symmetry_equiv_pos_as_xyz
1 x,y,z
2 -x,1/2+y,1/2-z
3 -x,-y,-z
4 x,1/2-y,1/2+z
_cell_length_a                   9.2211(5)
_cell_length_b                   18.1848(10)
_cell_length_c                   9.7227(6)
_cell_angle_alpha                90
_cell_angle_beta                 104.9940(10)
_cell_angle_gamma                90
_cell_volume                     1574.83
_exptl_crystal_colour            light
_exptl_crystal_description       block
_cell_formula_units_Z            4
loop_
_atom_site_label
_atom_site_type_symbol
_atom_site_fract_x
_atom_site_fract_y
_atom_site_fract_z
Cd1 Cd 0.866798(18) 0.933898(9) 1.061682(17)
C1 C 0.6937(3) 0.80612(14) 0.8565(3)
H1 H 0.7846 0.7821 0.8926
C2 C 0.5848(3) 0.77163(14) 0.7516(3)
H2 H 0.6033 0.7257 0.7178
C3 C 0.4467(3) 0.80628(13) 0.6967(2)
C4 C 0.4260(3) 0.87400(14) 0.7542(3)
H3 H 0.3348 0.8984 0.7226
C5 C 0.5398(3) 0.90547(14) 0.8582(3)
H4 H 0.5234 0.9510 0.8949
C6 C 0.3282(3) 0.77302(13) 0.5805(3)
C7 C 0.3053(3) 0.69704(13) 0.5749(2)
H5 H 0.3678 0.6669 0.6421
C8 C 0.1902(3) 0.66611(12) 0.4699(2)
C9 C 0.1628(3) 0.58482(14) 0.4687(3)
C10 C 0.1000(3) 0.71073(13) 0.3661(2)
H6 H 0.0228 0.6899 0.2958
C11 C 0.0282(3) 0.83375(14) 0.2514(3)
C12 C 0.1241(3) 0.78597(13) 0.3664(2)
C13 C 0.2366(3) 0.81685(13) 0.4753(3)
H7 H 0.2508 0.8675 0.4780
C14 C 0.7804(5) 0.9454(2) 1.3569(4)
H8 H 0.8835 0.9532 1.3859
C15 C 0.5556(6) 0.9129(4) 1.4193(7)
H9 H 0.5102 0.9245 1.3213
H10 H 0.5057 0.9398 1.4788
H11 H 0.5465 0.8611 1.4343
C16 C 0.7920(8) 0.9331(3) 1.6064(6)
H12 H 0.8968 0.9426 1.6175
H13 H 0.7800 0.8860 1.6466
H14 H 0.7505 0.9706 1.6544
N1 N 0.6743(2) 0.87249(12) 0.9087(2)
N2 N 0.7139(4) 0.93327(19) 1.4551(4)
O1 O 0.2688(2) 0.54281(10) 0.5248(2)
O2 O 0.0315(2) 0.56130(9) 0.4084(2)
O3 O 0.0619(2) 0.90112(11) 0.2512(2)
O4 O -0.0779(3) 0.80591(12) 0.1618(2)
O5 O 0.7223(3) 0.94773(17) 1.2291(3)
Cd1_2 Cd -0.133202(18) 0.933898(9) 0.061682(17)
Cd1A Cd 0.133202(18) 0.433898(9) 0.438318(17)
Cd1C Cd -0.133202(18) 0.566102(9) 0.561682(17)
O1A O 0.7312(2) 1.04281(10) 0.9752(2)
O2A O 0.9685(2) 1.06130(9) 1.0916(2)
O2C O 1.0315(2) 0.93870(9) 0.9084(2)
O3_2 O 1.0619(2) 0.90112(11) 1.2512(2)
O4_2 O 0.9221(3) 0.80591(12) 1.1618(2)
C17? C 0.5522(15) 0.950(2) 1.417(4)
H15? H 0.5273 0.9793 1.3323
H16? H 0.5275 0.9759 1.4934
H17? H 0.4964 0.9046 1.4000
C18? C 0.727(4) 0.8688(13) 1.546(3)
H18? H 0.7189 0.8252 1.4886
H19? H 0.6485 0.8693 1.5939
H20? H 0.8228 0.8694 1.6147
loop_
_geom_bond_atom_site_label_1
_geom_bond_atom_site_label_2
_geom_bond_site_symmetry_1
_geom_bond_site_symmetry_2
Cd1 N1 1_555 1_555
C1 H1 1_555 1_555
C2 C1 1_555 1_555
H2 C2 1_555 1_555
C3 C2 1_555 1_555
C4 C3 1_555 1_555
H3 C4 1_555 1_555
C5 C4 1_555 1_555
H4 C5 1_555 1_555
C6 C3 1_555 1_555
C7 C6 1_555 1_555
H5 C7 1_555 1_555
C8 C7 1_555 1_555
C9 C8 1_555 1_555
C10 C8 1_555 1_555
H6 C10 1_555 1_555
C11 C12 1_555 1_555
C12 C10 1_555 1_555
C13 C6 1_555 1_555
H7 C13 1_555 1_555
C14 H8 1_555 1_555
C15 H9 1_555 1_555
H10 C15 1_555 1_555
H11 C15 1_555 1_555
C16 H12 1_555 1_555
H13 C16 1_555 1_555
H14 C16 1_555 1_555
N1 C1 1_555 1_555
N2 C14 1_555 1_555
O1 C9 1_555 1_555
O2 C9 1_555 1_555
O3 C11 1_555 1_555
O4 C11 1_555 1_555
O5 Cd1 1_555 1_555
Cd1_2 O3 1_555 1_555
Cd1A O1 1_555 1_555
Cd1C O2 1_555 1_555
O1A Cd1 1_555 1_555
O2A Cd1 1_555 1_555
O2C Cd1 1_555 1_555
O3_2 Cd1 1_555 1_555
O4_2 Cd1 1_555 1_555
C5 N1 1_555 1_555
C12 C13 1_555 1_555
C14 O5 1_555 1_555
C15 N2 1_555 1_555
C16 N2 1_555 1_555
O2 Cd1A 1_555 1_555
O4 Cd1_2 1_555 1_555

#END
