
#######################################################################
#
#                 Cambridge Crystallographic Data Centre
#                                CCDC 
#
#######################################################################
#
# If this CIF has been generated from an entry in the Cambridge 
# Structural Database, then it will include bibliographic, chemical, 
# crystal, experimental, refinement or atomic coordinate data resulting 
# from the CCDC's data processing and validation procedures.
#
#######################################################################

data_NELWUY
_chemical_formula_moiety         '(C12 H22 N4 O8 Zn1)n'
_chemical_name_systematic        
catena-(bis(\m~2~-Glycyl-L-threoninato)-zinc(ii))
_symmetry_cell_setting           monoclinic
_symmetry_space_group_name_H-M   'I 2'
_symmetry_Int_Tables_number      5
_space_group_name_Hall           'I 2y'
loop_
_symmetry_equiv_pos_site_id
_symmetry_equiv_pos_as_xyz
1 x,y,z
2 -x,y,-z
3 1/2+x,1/2+y,1/2+z
4 1/2-x,1/2+y,1/2-z
_cell_length_a                   8.2235(5)
_cell_length_b                   12.4624(7)
_cell_length_c                   9.3120(14)
_cell_angle_alpha                90
_cell_angle_beta                 97.248(9)
_cell_angle_gamma                90
_cell_volume                     946.71
_exptl_crystal_colour            colorless
_exptl_crystal_description       prism
_cell_formula_units_Z            2
loop_
_atom_site_label
_atom_site_type_symbol
_atom_site_fract_x
_atom_site_fract_y
_atom_site_fract_z
Zn1 Zn 1.0000 0.1535 0.5000
O1 O 0.8795(4) 0.2903(2) 0.6051(3)
O2 O 0.9556(4) 0.5927(4) 0.8350(4)
H1 H 0.8831 0.5988 0.8873
O3 O 0.6350(4) 0.5525(2) 0.8907(3)
O4 O 0.4722(3) 0.5315(2) 0.6864(3)
N1 N 0.7967(3) 0.1952(2) 0.3467(3)
H2 H 0.8276 0.1920 0.2574
H3 H 0.7170 0.1462 0.3509
N2 N 0.7114(3) 0.4298(2) 0.5579(3)
H4 H 0.6403 0.4609 0.4960
C1 C 0.7792(4) 0.3404(2) 0.5214(4)
C2 C 0.7299(5) 0.3008(3) 0.3677(4)
H5 H 0.6113 0.2981 0.3480
H6 H 0.7692 0.3507 0.3000
C3 C 0.7531(4) 0.4780(3) 0.7004(4)
H7 H 0.8009 0.4217 0.7661
C4 C 0.8854(5) 0.5661(4) 0.6940(5)
H8 H 0.9722 0.5360 0.6431
C5 C 0.6049(4) 0.5225(2) 0.7623(4)
C6 C 0.8212(7) 0.6639(5) 0.6136(6)
H9 H 0.7294 0.6915 0.6561
H10 H 0.7872 0.6457 0.5142
H11 H 0.9058 0.7173 0.6188
Zn1B Zn 0.5000 0.6535 1.0000
Zn1B_2 Zn 1.5000 0.6535 0.0000
O1A O 1.1205(4) 0.2903(2) 0.3949(3)
O2A O 1.0444(4) 0.5927(4) 0.1650(4)
H1A H 1.1169 0.5988 0.1127
O3A O 1.3650(4) 0.5525(2) 0.1093(3)
O3B O 1.1350(4) 0.0525(2) 0.3907(3)
O3C O 0.8650(4) 0.0525(2) 0.6093(3)
O4A O 1.5278(3) 0.5315(2) 0.3136(3)
N1A N 1.2033(3) 0.1952(2) 0.6533(3)
H2A H 1.1724 0.1920 0.7426
H3A H 1.2830 0.1462 0.6491
N2A N 1.2886(3) 0.4298(2) 0.4421(3)
H4A H 1.3597 0.4609 0.5040
C1A C 1.2208(4) 0.3404(2) 0.4786(4)
C2A C 1.2701(5) 0.3008(3) 0.6323(4)
H5A H 1.3887 0.2981 0.6520
H6A H 1.2308 0.3507 0.7000
C3A C 1.2469(4) 0.4780(3) 0.2996(4)
H7A H 1.1991 0.4217 0.2339
C4A C 1.1146(5) 0.5661(4) 0.3060(5)
H8A H 1.0278 0.5360 0.3569
C5A C 1.3951(4) 0.5225(2) 0.2377(4)
C6A C 1.1788(7) 0.6639(5) 0.3864(6)
H9A H 1.2706 0.6915 0.3439
H10A H 1.2128 0.6457 0.4858
H11A H 1.0942 0.7173 0.3812
loop_
_geom_bond_atom_site_label_1
_geom_bond_atom_site_label_2
_geom_bond_site_symmetry_1
_geom_bond_site_symmetry_2
Zn1 O1 1_555 1_555
O1 C1 1_555 1_555
O2 H1 1_555 1_555
O3 C5 1_555 1_555
O4 C5 1_555 1_555
N1 Zn1 1_555 1_555
H2 N1 1_555 1_555
H3 N1 1_555 1_555
N2 H4 1_555 1_555
C1 N2 1_555 1_555
C2 N1 1_555 1_555
H5 C2 1_555 1_555
H6 C2 1_555 1_555
C3 N2 1_555 1_555
H7 C3 1_555 1_555
C4 O2 1_555 1_555
H8 C4 1_555 1_555
C5 C3 1_555 1_555
C6 C4 1_555 1_555
H9 C6 1_555 1_555
H10 C6 1_555 1_555
H11 C6 1_555 1_555
Zn1B O3 1_555 1_555
Zn1B_2 O3A 1_555 1_555
O1A Zn1 1_555 1_555
O2A H1A 1_555 1_555
O3A C5A 1_555 1_555
O3B Zn1 1_555 1_555
O3C Zn1 1_555 1_555
O4A C5A 1_555 1_555
N1A Zn1 1_555 1_555
H2A N1A 1_555 1_555
H3A N1A 1_555 1_555
N2A H4A 1_555 1_555
C1A O1A 1_555 1_555
C2A N1A 1_555 1_555
H5A C2A 1_555 1_555
H6A C2A 1_555 1_555
C3A N2A 1_555 1_555
H7A C3A 1_555 1_555
C4A O2A 1_555 1_555
H8A C4A 1_555 1_555
C5A C3A 1_555 1_555
C6A C4A 1_555 1_555
H9A C6A 1_555 1_555
H10A C6A 1_555 1_555
H11A C6A 1_555 1_555
C1 C2 1_555 1_555
C3 C4 1_555 1_555
N2A C1A 1_555 1_555
C1A C2A 1_555 1_555
C3A C4A 1_555 1_555

#END
