
#######################################################################
#
#                 Cambridge Crystallographic Data Centre
#                                CCDC 
#
#######################################################################
#
# If this CIF has been generated from an entry in the Cambridge 
# Structural Database, then it will include bibliographic, chemical, 
# crystal, experimental, refinement or atomic coordinate data resulting 
# from the CCDC's data processing and validation procedures.
#
#######################################################################

data_NELWOS
_chemical_formula_moiety         '(C12 H22 N4 O8 Zn1)n,n(C1 H4 O1)'
_chemical_name_systematic        
'catena-(bis(\m~2~-Glycyl-L-threoninato)-zinc(ii) methanol solvate)'
_symmetry_cell_setting           monoclinic
_symmetry_space_group_name_H-M   'I 2'
_symmetry_Int_Tables_number      5
_space_group_name_Hall           'I 2y'
loop_
_symmetry_equiv_pos_site_id
_symmetry_equiv_pos_as_xyz
1 x,y,z
2 -x,y,-z
3 1/2+x,1/2+y,1/2+z
4 1/2-x,1/2+y,1/2-z
_cell_length_a                   7.8880(3)
_cell_length_b                   12.8070(6)
_cell_length_c                   9.3378(6)
_cell_angle_alpha                90
_cell_angle_beta                 96.3120(10)
_cell_angle_gamma                90
_cell_volume                     937.601
_exptl_crystal_colour            colorless
_exptl_crystal_description       prism
_cell_formula_units_Z            2
loop_
_atom_site_label
_atom_site_type_symbol
_atom_site_fract_x
_atom_site_fract_y
_atom_site_fract_z
Zn1 Zn 0.0000 0.153820(5) 0.5000
O1 O -0.1285(3) 0.28294(17) 0.6052(3)
O2 O -0.0244(3) 0.5607(2) 0.8488(2)
H1 H -0.0927 0.5952 0.8930
O3 O -0.3644(3) 0.55177(17) 0.8895(3)
O4 O -0.5382(2) 0.53281(16) 0.6830(2)
N1 N -0.2068(3) 0.19243(18) 0.3457(2)
H2 H -0.1717 0.1882 0.2552
H3 H -0.2926 0.1443 0.3508
N2 N -0.2910(3) 0.42576(18) 0.5564(2)
H4 H -0.3608 0.4602 0.4932
C1 C -0.2255(3) 0.3350(2) 0.5195(3)
C2 C -0.2751(4) 0.2975(2) 0.3662(3)
H5 H -0.4009 0.2962 0.3458
H6 H -0.2299 0.3465 0.2977
C3 C -0.2482(3) 0.4683(2) 0.6999(3)
H7 H -0.2115 0.4087 0.7652
C4 C -0.0970(4) 0.5442(2) 0.7031(3)
H8 H -0.0080 0.5109 0.6497
C5 C -0.3995(3) 0.5208(2) 0.7595(3)
C6 C -0.1469(4) 0.6477(4) 0.6295(3)
H9 H -0.2300 0.6837 0.6827
H10 H -0.1975 0.6346 0.5305
H11 H -0.0452 0.6915 0.6279
Zn1B Zn -0.5000 0.653820(5) 1.0000
Zn1B_2 Zn 0.5000 0.653820(5) 0.0000
O1A O 0.1285(3) 0.28294(17) 0.3948(3)
O2A O 0.0244(3) 0.5607(2) 0.1512(2)
H1A H 0.0927 0.5952 0.1070
O3A O 0.3644(3) 0.55177(17) 0.1105(3)
O3B O 0.1356(3) 0.05177(17) 0.3895(3)
O3C O -0.1356(3) 0.05177(17) 0.6105(3)
O4A O 0.5382(2) 0.53281(16) 0.3170(2)
N1A N 0.2068(3) 0.19243(18) 0.6543(2)
H2A H 0.1717 0.1882 0.7448
H3A H 0.2926 0.1443 0.6492
N2A N 0.2910(3) 0.42576(18) 0.4436(2)
H4A H 0.3608 0.4602 0.5068
C1A C 0.2255(3) 0.3350(2) 0.4805(3)
C2A C 0.2751(4) 0.2975(2) 0.6338(3)
H5A H 0.4009 0.2962 0.6542
H6A H 0.2299 0.3465 0.7023
C3A C 0.2482(3) 0.4683(2) 0.3001(3)
H7A H 0.2115 0.4087 0.2348
C4A C 0.0970(4) 0.5442(2) 0.2969(3)
H8A H 0.0080 0.5109 0.3503
C5A C 0.3995(3) 0.5208(2) 0.2405(3)
C6A C 0.1469(4) 0.6477(4) 0.3705(3)
H9A H 0.2300 0.6837 0.3173
H10A H 0.1975 0.6346 0.4695
H11A H 0.0452 0.6915 0.3721
O5? O 0.1235(14) 0.3421(6) -0.0610(8)
H12? H 0.1932 0.3786 -0.0081
C7? C 0.0050 0.2999(7) 0.0205
H13? H -0.0302 0.2311 -0.0178
H14? H -0.0947 0.3459 0.0166
H15? H 0.0557 0.2927 0.1206
loop_
_geom_bond_atom_site_label_1
_geom_bond_atom_site_label_2
_geom_bond_site_symmetry_1
_geom_bond_site_symmetry_2
Zn1 O1 1_555 1_555
O1 C1 1_555 1_555
O2 H1 1_555 1_555
O3 C5 1_555 1_555
O4 C5 1_555 1_555
N1 Zn1 1_555 1_555
H2 N1 1_555 1_555
H3 N1 1_555 1_555
N2 H4 1_555 1_555
C1 N2 1_555 1_555
C2 N1 1_555 1_555
H5 C2 1_555 1_555
H6 C2 1_555 1_555
C3 N2 1_555 1_555
H7 C3 1_555 1_555
C4 O2 1_555 1_555
H8 C4 1_555 1_555
C5 C3 1_555 1_555
C6 C4 1_555 1_555
H9 C6 1_555 1_555
H10 C6 1_555 1_555
H11 C6 1_555 1_555
Zn1B O3 1_555 1_555
Zn1B_2 O3A 1_555 1_555
O1A Zn1 1_555 1_555
O2A H1A 1_555 1_555
O3A C5A 1_555 1_555
O3B Zn1 1_555 1_555
O3C Zn1 1_555 1_555
O4A C5A 1_555 1_555
N1A Zn1 1_555 1_555
H2A N1A 1_555 1_555
H3A N1A 1_555 1_555
N2A H4A 1_555 1_555
C1A O1A 1_555 1_555
C2A N1A 1_555 1_555
H5A C2A 1_555 1_555
H6A C2A 1_555 1_555
C3A N2A 1_555 1_555
H7A C3A 1_555 1_555
C4A O2A 1_555 1_555
H8A C4A 1_555 1_555
C5A C3A 1_555 1_555
C6A C4A 1_555 1_555
H9A C6A 1_555 1_555
H10A C6A 1_555 1_555
H11A C6A 1_555 1_555
C1 C2 1_555 1_555
C3 C4 1_555 1_555
N2A C1A 1_555 1_555
C1A C2A 1_555 1_555
C3A C4A 1_555 1_555

#END
