
#######################################################################
#
#                 Cambridge Crystallographic Data Centre
#                                CCDC 
#
#######################################################################
#
# If this CIF has been generated from an entry in the Cambridge 
# Structural Database, then it will include bibliographic, chemical, 
# crystal, experimental, refinement or atomic coordinate data resulting 
# from the CCDC's data processing and validation procedures.
#
#######################################################################

data_HENYUV
_chemical_formula_moiety         '(C14 H4 N2 O8 Zn2)n,4n(H2 O1)'
_chemical_name_systematic        
"catena-((\m~6~-4,4'-Bipyridine-2,2',6,6'-tetracarboxylato)-di-zinc(ii) tetrahydrate)"
_symmetry_cell_setting           tetragonal
_symmetry_space_group_name_H-M   'P 42 21 2'
_symmetry_Int_Tables_number      94
_space_group_name_Hall           'P 4n 2n'
loop_
_symmetry_equiv_pos_site_id
_symmetry_equiv_pos_as_xyz
1 x,y,z
2 1/2-y,1/2+x,1/2+z
3 -x,-y,z
4 1/2+y,1/2-x,1/2+z
5 1/2+x,1/2-y,1/2-z
6 y,x,-z
7 1/2-x,1/2+y,1/2-z
8 -y,-x,-z
_cell_length_a                   7.0249(7)
_cell_length_b                   7.0249(7)
_cell_length_c                   19.936(2)
_cell_angle_alpha                90
_cell_angle_beta                 90
_cell_angle_gamma                90
_cell_volume                     983.826
_exptl_crystal_colour            colorless
_exptl_crystal_description       block
_cell_formula_units_Z            2
loop_
_atom_site_label
_atom_site_type_symbol
_atom_site_fract_x
_atom_site_fract_y
_atom_site_fract_z
Zn1 Zn 0.0000 1.0000 0.27597(3)
C1 C 0.0000 1.0000 0.0374(3)
C2 C 0.1013(8) 0.8622(9) 0.0731(2)
H1 H 0.1670 0.7665 0.0507
C3 C 0.1022(7) 0.8705(8) 0.1426(2)
C4 C 0.2190(7) 0.7447(7) 0.1881(2)
N1 N 0.0000 1.0000 0.1752(3)
O1 O 0.3361(6) 0.6346(6) 0.16035(15)
O2 O 0.1942(5) 0.7641(6) 0.24955(15)
Zn1E Zn 0.0000 1.0000 -0.27597(3)
Zn1D Zn 0.5000 0.5000 0.22403(3)
Zn1A Zn -0.5000 1.5000 -0.22403(3)
Zn1A_2 Zn 0.5000 0.5000 -0.22403(3)
Zn1D_2 Zn -0.5000 1.5000 0.22403(3)
C1E C 0.0000 1.0000 -0.0374(3)
C2E C -0.1378(9) 1.1013(8) -0.0731(2)
C2G C 0.1378(9) 0.8987(8) -0.0731(2)
C2B C -0.1013(8) 1.1378(9) 0.0731(2)
H1E H -0.2335 1.1670 -0.0507
H1G H 0.2335 0.8330 -0.0507
H1B H -0.1670 1.2335 0.0507
C3E C -0.1295(8) 1.1022(7) -0.1426(2)
C3G C 0.1295(8) 0.8978(7) -0.1426(2)
C3B C -0.1022(7) 1.1295(8) 0.1426(2)
C4E C -0.2553(7) 1.2190(7) -0.1881(2)
C4G C 0.2553(7) 0.7810(7) -0.1881(2)
C4B C -0.2190(7) 1.2553(7) 0.1881(2)
N1E N 0.0000 1.0000 -0.1752(3)
O1E O -0.3654(6) 1.3361(6) -0.16035(15)
O1G O 0.3654(6) 0.6639(6) -0.16035(15)
O1B O -0.3361(6) 1.3654(6) 0.16035(15)
O1D O -0.1639(6) 0.8654(6) 0.33965(15)
O1F O 0.1639(6) 1.1346(6) 0.33965(15)
O1A O -0.1346(6) 0.8361(6) -0.33965(15)
O1C O 0.1346(6) 1.1639(6) -0.33965(15)
O2E O -0.2359(6) 1.1942(5) -0.24955(15)
O2G O 0.2359(6) 0.8058(5) -0.24955(15)
O2B O -0.1942(5) 1.2359(6) 0.24955(15)
O3 O 0.4472(9) 0.2002(11) 0.0365(3)
loop_
_geom_bond_atom_site_label_1
_geom_bond_atom_site_label_2
_geom_bond_site_symmetry_1
_geom_bond_site_symmetry_2
Zn1 N1 1_555 1_555
C1 C2 1_555 1_555
C2 H1 1_555 1_555
C3 C2 1_555 1_555
C4 C3 1_555 1_555
N1 C3 1_555 1_555
O1 C4 1_555 1_555
O2 Zn1 1_555 1_555
Zn1E N1E 1_555 1_555
Zn1D O1 1_555 1_555
Zn1A O1E 1_555 1_555
Zn1A_2 O1G 1_555 1_555
Zn1D_2 O1B 1_555 1_555
C1E C1 1_555 1_555
C2E C1E 1_555 1_555
C2G C1E 1_555 1_555
C2B C1 1_555 1_555
H1E C2E 1_555 1_555
H1G C2G 1_555 1_555
H1B C2B 1_555 1_555
C3E C2E 1_555 1_555
C3G C2G 1_555 1_555
C3B N1 1_555 1_555
C4E C3E 1_555 1_555
C4G C3G 1_555 1_555
C4B C3B 1_555 1_555
N1E C3E 1_555 1_555
O1E C4E 1_555 1_555
O1G C4G 1_555 1_555
O1B C4B 1_555 1_555
O1D Zn1 1_555 1_555
O1F Zn1 1_555 1_555
O1A Zn1E 1_555 1_555
O1C Zn1E 1_555 1_555
O2E Zn1E 1_555 1_555
O2G Zn1E 1_555 1_555
O2B Zn1 1_555 1_555
C4 O2 1_555 1_555
C2B C3B 1_555 1_555
C3G N1E 1_555 1_555
C4E O2E 1_555 1_555
C4G O2G 1_555 1_555
C4B O2B 1_555 1_555

#END
