
#######################################################################
#
#                 Cambridge Crystallographic Data Centre
#                                CCDC 
#
#######################################################################
#
# If this CIF has been generated from an entry in the Cambridge 
# Structural Database, then it will include bibliographic, chemical, 
# crystal, experimental, refinement or atomic coordinate data resulting 
# from the CCDC's data processing and validation procedures.
#
#######################################################################

data_WUBHAE
_chemical_formula_moiety         '(C7 H8 Ca1 N1 Na1 O8)n,0.5(H2 O1)'
_chemical_name_systematic        
'catena-[(\m~7~-4-oxidopyridine-2,6-dicarboxylato)-(\m~2~-aqua)-diaqua-calcium-sodium hemihydrate]'
_symmetry_cell_setting           monoclinic
_symmetry_space_group_name_H-M   'P 21/c'
_symmetry_Int_Tables_number      14
_space_group_name_Hall           '-P 2ybc'
loop_
_symmetry_equiv_pos_site_id
_symmetry_equiv_pos_as_xyz
1 x,y,z
2 -x,1/2+y,1/2-z
3 -x,-y,-z
4 x,1/2-y,1/2+z
_cell_length_a                   10.0336(3)
_cell_length_b                   16.6482(5)
_cell_length_c                   6.6334(2)
_cell_angle_alpha                90
_cell_angle_beta                 90.9900(10)
_cell_angle_gamma                90
_cell_volume                     1107.89
_exptl_crystal_colour            colorless
_exptl_crystal_description       block
_cell_formula_units_Z            4
_chemical_properties_physical    'Air-sensitive, Moisture-sensitive'
loop_
_atom_site_label
_atom_site_type_symbol
_atom_site_fract_x
_atom_site_fract_y
_atom_site_fract_z
Ca1 Ca 0.18344(2) 0.463991(14) -0.00590(4)
O1 O -0.05388(9) 0.41777(5) -0.06513(15)
O2 O 0.12289(9) 0.07812(5) -0.17439(14)
O3 O 0.13769(11) 0.51802(6) -0.34025(16)
O4 O -0.19431(9) 0.31563(6) -0.11888(17)
O5 O 0.50099(10) 0.28434(6) -0.13396(17)
N1 N 0.15666(10) 0.32458(6) -0.11185(16)
O6 O 0.38767(10) 0.39768(6) -0.0892(2)
C1 C 0.02118(13) 0.20628(8) -0.13067(19)
C2 C -0.07989(12) 0.34468(7) -0.09903(19)
C3 C 0.39564(13) 0.32255(8) -0.1156(2)
C4 C 0.25851(13) 0.19492(8) -0.13860(19)
C5 C 0.03766(12) 0.28831(7) -0.11516(18)
O7 O 0.35240(12) 0.55052(7) 0.1075(3)
C6 C 0.13363(13) 0.15630(7) -0.14671(18)
C7 C 0.26464(12) 0.27746(7) -0.12330(18)
H1 H 0.3402(18) 0.1646(11) -0.145(3)
H2 H -0.0639(18) 0.1840(11) -0.131(3)
H3 H 0.058(2) 0.5360(13) -0.336(3)
H4 H 0.144(2) 0.4873(14) -0.439(3)
H5 H 0.433(3) 0.5589(14) 0.093(4)
H6 H 0.314(3) 0.5941(16) 0.126(4)
O8 O -0.33089(13) 0.35994(7) -0.6131(2)
Na1 Na -0.33971(6) 0.24833(4) -0.37032(9)
H7 H -0.268(3) 0.3948(15) -0.622(4)
H8 H -0.398(3) 0.3872(17) -0.600(4)
Ca1B Ca -0.18344(2) 0.536009(14) 0.00590(4)
Ca1C Ca 0.18344(2) 0.036009(14) -0.50590(4)
O1B O 0.05388(9) 0.58223(5) 0.06513(15)
O2C O 0.12289(9) 0.42188(5) 0.32561(14)
O4C O -0.19431(9) 0.18437(6) -0.61888(17)
O5_2 O -0.49901(10) 0.28434(6) -0.13396(17)
O5C O -0.49901(10) 0.21566(6) -0.63396(17)
O8C O -0.33089(13) 0.14006(7) -0.1131(2)
Na1_2 Na 0.66029(6) 0.24833(4) -0.37032(9)
Na1C Na -0.33971(6) 0.25167(4) -0.87032(9)
Na1C_2 Na -0.33971(6) 0.25167(4) 0.12968(9)
Na1C_3 Na 0.66029(6) 0.25167(4) 0.12968(9)
O9 O 0.5338(3) 0.9745(2) 0.0073(6)
H9 H 0.572(6) 0.951(3) -0.097(7)
H10 H 0.579(5) 1.000(3) 0.102(7)
loop_
_geom_bond_atom_site_label_1
_geom_bond_atom_site_label_2
_geom_bond_site_symmetry_1
_geom_bond_site_symmetry_2
Ca1 O1 1_555 1_555
O1 C2 1_555 1_555
O2 C6 1_555 1_555
O3 Ca1 1_555 1_555
O4 C2 1_555 1_555
O5 C3 1_555 1_555
N1 Ca1 1_555 1_555
O6 Ca1 1_555 1_555
C1 C5 1_555 1_555
C2 C5 1_555 1_555
C3 O6 1_555 1_555
C4 C6 1_555 1_555
C5 N1 1_555 1_555
O7 Ca1 1_555 1_555
C6 C1 1_555 1_555
C7 N1 1_555 1_555
H1 C4 1_555 1_555
H2 C1 1_555 1_555
H3 O3 1_555 1_555
H4 O3 1_555 1_555
H5 O7 1_555 1_555
H6 O7 1_555 1_555
O8 Na1 1_555 1_555
Na1 O4 1_555 1_555
H7 O8 1_555 1_555
H8 O8 1_555 1_555
O9 H9 1_555 1_555
H10 O9 1_555 1_555
Ca1B O1 1_555 1_555
Ca1C O2 1_555 1_555
O1B Ca1 1_555 1_555
O2C Ca1 1_555 1_555
O4C Na1 1_555 1_555
O5_2 Na1 1_555 1_555
O5C Na1 1_555 1_555
O8C Na1 1_555 1_555
Na1_2 O5 1_555 1_555
Na1C O8 1_555 1_555
Na1C_2 O4 1_555 1_555
Na1C_3 O5 1_555 1_555
C3 C7 1_555 1_555
C4 C7 1_555 1_555
Ca1B O1B 1_555 1_555
O4C Na1C 1_555 1_555
O5_2 Na1C_2 1_555 1_555
O5C Na1C 1_555 1_555
O8C Na1C_2 1_555 1_555

#END
