
#######################################################################
#
#                 Cambridge Crystallographic Data Centre
#                                CCDC 
#
#######################################################################
#
# If this CIF has been generated from an entry in the Cambridge 
# Structural Database, then it will include bibliographic, chemical, 
# crystal, experimental, refinement or atomic coordinate data resulting 
# from the CCDC's data processing and validation procedures.
#
#######################################################################

data_NEDTUN
_chemical_name_common            DP-DMOF
_chemical_formula_moiety         '(C34 H44 N2 O12 Zn2)n'
_chemical_name_systematic        
'catena-(bis(\m~4~-2,5-dipropoxy-1,4-benzenedicarboxylato)-(\m~2~-1,4-diazabicyclo(2.2.2)octane)-di-zinc(ii) unknown solvate)'
_symmetry_cell_setting           monoclinic
_symmetry_space_group_name_H-M   'C 2/m'
_symmetry_Int_Tables_number      12
_space_group_name_Hall           '-C 2y'
loop_
_symmetry_equiv_pos_site_id
_symmetry_equiv_pos_as_xyz
1 x,y,z
2 -x,y,-z
3 1/2+x,1/2+y,z
4 1/2-x,1/2+y,-z
5 -x,-y,-z
6 x,-y,z
7 1/2-x,1/2-y,-z
8 1/2+x,1/2-y,z
_cell_length_a                   14.264(6)
_cell_length_b                   16.410(4)
_cell_length_c                   9.547(5)
_cell_angle_alpha                90
_cell_angle_beta                 92.33(4)
_cell_angle_gamma                90
_cell_volume                     2232.84
_exptl_crystal_colour            colorless
_exptl_crystal_description       block
_cell_formula_units_Z            2
loop_
_atom_site_label
_atom_site_type_symbol
_atom_site_fract_x
_atom_site_fract_y
_atom_site_fract_z
Zn1 Zn 0.49865(9) 1.0000 0.34931(11)
O1 O 0.4060(5) 0.9155(5) 0.6111(6)
O2 O 0.4015(6) 0.9140(5) 0.3743(7)
N1 N 0.4992(7) 1.0000 0.1347(9)
C1 C 0.3771(7) 0.8895(5) 0.4953(9)
C2 C 0.3082(7) 0.8183(6) 0.4942(9)
C3 C 0.586(2) 1.0000 0.087(3)
C4 C 0.553(2) 0.9311(15) 0.085(2)
C5 C 0.591(3) 1.0000 -0.074(3)
C6 C 0.550(2) 0.9290(17) -0.078(2)
O3 O 0.2083(18) 0.8941(14) 0.634(2)
C7 C 0.2282(13) 0.8179(13) 0.573(2)
C8 C 0.3248(15) 0.7498(10) 0.4193(18)
H1 H 0.3761 0.7496 0.3589
Zn1A Zn 0.50135(9) 1.0000 -0.34931(11)
Zn1A_2 Zn 0.50135(9) 1.0000 0.65069(11)
Zn1B Zn -0.00135(9) 0.5000 0.34931(11)
Zn1B_2 Zn -0.00135(9) 1.5000 0.34931(11)
Zn1C Zn 0.00135(9) 0.5000 0.65069(11)
Zn1C_2 Zn 0.00135(9) 1.5000 0.65069(11)
O1F O 0.0940(5) 0.5845(5) 0.3889(6)
O1E O 0.4060(5) 1.0845(5) 0.6111(6)
O1C O 0.0940(5) 1.4155(5) 0.3889(6)
O1_2 O 0.4060(5) 0.9155(5) -0.3889(6)
O1A O 0.5940(5) 0.9155(5) 0.3889(6)
O1D O 0.5940(5) 1.0845(5) 0.3889(6)
O1E_2 O 0.4060(5) 1.0845(5) -0.3889(6)
O2F O 0.0985(6) 0.5860(5) 0.6257(7)
O2E O 0.4015(6) 1.0860(5) 0.3743(7)
O2C O 0.0985(6) 1.4140(5) 0.6257(7)
O2D O 0.5985(6) 1.0860(5) -0.3743(7)
O2A O 0.5985(6) 0.9140(5) -0.3743(7)
N1A N 0.5008(7) 1.0000 -0.1347(9)
C1F C 0.1229(7) 0.6105(5) 0.5047(9)
C1E C 0.3771(7) 1.1105(5) 0.4953(9)
C1C C 0.1229(7) 1.3895(5) 0.5047(9)
C2F C 0.1918(7) 0.6817(6) 0.5058(9)
C2E C 0.3082(7) 1.1817(6) 0.4942(9)
C2C C 0.1918(7) 1.3183(6) 0.5058(9)
C3A C 0.414(2) 1.0000 -0.087(3)
C4A C 0.447(2) 0.9311(15) -0.085(2)
C4D C 0.447(2) 1.0689(15) -0.085(2)
C4E C 0.553(2) 1.0689(15) 0.085(2)
C5A C 0.409(3) 1.0000 0.074(3)
C6A C 0.450(2) 0.9290(17) 0.078(2)
C6D C 0.450(2) 1.0710(17) 0.078(2)
C6E C 0.550(2) 1.0710(17) -0.078(2)
O3F O 0.2917(18) 0.6059(14) 0.366(2)
O3E O 0.2083(18) 1.1059(14) 0.634(2)
O3C O 0.2917(18) 1.3941(14) 0.366(2)
C7F C 0.2718(13) 0.6821(13) 0.427(2)
C7E C 0.2282(13) 1.1821(13) 0.573(2)
C7C C 0.2718(13) 1.3179(13) 0.427(2)
C8F C 0.1752(15) 0.7502(10) 0.5807(18)
C8E C 0.3248(15) 1.2502(10) 0.4193(18)
C8C C 0.1752(15) 1.2498(10) 0.5807(18)
H1F H 0.1239 0.7504 0.6411
H1E H 0.3761 1.2504 0.3589
H1C H 0.1239 1.2496 0.6411
C9? C 0.2634(13) 0.3082(11) 0.6088(16)
C10? C 0.1807(14) 0.2591(10) 0.4004(16)
H2? H 0.1315 0.2662 0.3314
O4? O 0.2726(12) 0.3683(10) 0.7143(15)
loop_
_geom_bond_atom_site_label_1
_geom_bond_atom_site_label_2
_geom_bond_site_symmetry_1
_geom_bond_site_symmetry_2
Zn1 O2 1_555 1_555
O1 C1 1_555 1_555
O2 C1 1_555 1_555
N1 Zn1 1_555 1_555
C1 C2 1_555 1_555
C2 C7 1_555 1_555
C3 N1 1_555 1_555
C4 N1 1_555 1_555
C5 C3 1_555 1_555
C6 C4 1_555 1_555
O3 C7 1_555 1_555
C7 C8F 1_555 1_555
C8 C2 1_555 1_555
H1 C8 1_555 1_555
Zn1A O1_2 1_555 1_555
Zn1A_2 O1 1_555 1_555
Zn1B O1F 1_555 1_555
Zn1B_2 O1C 1_555 1_555
Zn1C O2F 1_555 1_555
Zn1C_2 O2C 1_555 1_555
O1F C1F 1_555 1_555
O1E Zn1A_2 1_555 1_555
O1C C1C 1_555 1_555
O1A Zn1 1_555 1_555
O1D Zn1 1_555 1_555
O1E_2 Zn1A 1_555 1_555
O2F C1F 1_555 1_555
O2E Zn1 1_555 1_555
O2C C1C 1_555 1_555
O2D Zn1A 1_555 1_555
O2A Zn1A 1_555 1_555
N1A C5 1_555 1_555
C1F C2F 1_555 1_555
C1E O1E 1_555 1_555
C1C C2C 1_555 1_555
C2F C7F 1_555 1_555
C2E C1E 1_555 1_555
C2C C7C 1_555 1_555
C3A N1A 1_555 1_555
C4A C6 1_555 1_555
C4D N1A 1_555 1_555
C4E N1 1_555 1_555
C5A N1 1_555 1_555
C6A N1 1_555 1_555
C6D N1 1_555 1_555
C6E C5 1_555 1_555
O3F C7F 1_555 1_555
O3E C7E 1_555 1_555
O3C C7C 1_555 1_555
C7F C8 1_555 1_555
C7E C2E 1_555 1_555
C7C C8E 1_555 1_555
C8F C2F 1_555 1_555
C8E C2E 1_555 1_555
C8C C2C 1_555 1_555
H1F C8F 1_555 1_555
H1E C8E 1_555 1_555
H1C C8C 1_555 1_555
C3 C4 1_555 1_555
C3 C4E 1_555 1_555
C4 C6A 1_555 1_555
C5 C6 1_555 1_555
C6 N1A 1_555 1_555
Zn1A N1A 1_555 1_555
O2E C1E 1_555 1_555
N1A C4A 1_555 1_555
N1A C6E 1_555 1_555
C3A C4A 1_555 1_555
C3A C4D 1_555 1_555
C3A C5A 1_555 1_555
C4A C6A 1_555 1_555
C4D C6D 1_555 1_555
C4D C6E 1_555 1_555
C4E C6D 1_555 1_555
C4E C6E 1_555 1_555
C5A C6A 1_555 1_555
C5A C6D 1_555 1_555
C7E C8C 1_555 1_555

#END
