
#######################################################################
#
#                 Cambridge Crystallographic Data Centre
#                                CCDC 
#
#######################################################################
#
# If this CIF has been generated from an entry in the Cambridge 
# Structural Database, then it will include bibliographic, chemical, 
# crystal, experimental, refinement or atomic coordinate data resulting 
# from the CCDC's data processing and validation procedures.
#
#######################################################################

data_NEDTOH
_chemical_name_common            DE-DMOF
_chemical_formula_moiety         '(C30 H36 N2 O12 Zn2)n'
_chemical_name_systematic        
'catena-(bis(\m~4~-2,5-diethoxy-1,4-benzenedicarboxylato)-(\m~2~-1,4-diazabicyclo(2.2.2)octane)-di-zinc(ii) unknown solvate)'
_symmetry_cell_setting           monoclinic
_symmetry_space_group_name_H-M   'C 2/m'
_symmetry_Int_Tables_number      12
_space_group_name_Hall           '-C 2y'
loop_
_symmetry_equiv_pos_site_id
_symmetry_equiv_pos_as_xyz
1 x,y,z
2 -x,y,-z
3 1/2+x,1/2+y,z
4 1/2-x,1/2+y,-z
5 -x,-y,-z
6 x,-y,z
7 1/2-x,1/2-y,-z
8 1/2+x,1/2-y,z
_cell_length_a                   15.7510(12)
_cell_length_b                   15.1392(14)
_cell_length_c                   9.5864(7)
_cell_angle_alpha                90
_cell_angle_beta                 95.134(7)
_cell_angle_gamma                90
_cell_volume                     2276.78
_exptl_crystal_colour            colorless
_exptl_crystal_description       block
_cell_formula_units_Z            2
loop_
_atom_site_label
_atom_site_type_symbol
_atom_site_fract_x
_atom_site_fract_y
_atom_site_fract_z
Zn1 Zn 0.99492(6) 1.5000 0.34769(10)
O1 O 0.9043(4) 1.4071(4) 0.3697(6)
C1 C 0.8833(4) 1.3809(5) 0.4846(7)
C2 C 0.8144(4) 1.3135(5) 0.4861(6)
N1 N 0.9978(4) 1.5000 0.1328(8)
O2 O 0.9151(4) 1.4085(5) 0.6022(6)
C3 C 0.9121(14) 1.5000 0.065(2)
C4 C 1.0450(13) 1.4204(11) 0.0914(17)
C5 C 0.9705(19) 1.4124(17) 0.074(2)
C6 C 1.089(2) 1.5000 0.102(4)
C7 C 0.7890(8) 1.2567(8) 0.3756(10)
C8 C 0.7726(8) 1.3053(9) 0.6056(11)
H1 H 0.7873 1.3453 0.6802
O3 O 0.8141(8) 1.2738(9) 0.2427(12)
Zn1C Zn 0.50508(6) 1.0000 0.65231(10)
Zn1A Zn 1.00508(6) 1.5000 0.65231(10)
Zn1B Zn 0.49492(6) 1.0000 0.34769(10)
Zn1A_2 Zn 1.00508(6) 1.5000 -0.34769(10)
Zn1B_2 Zn 1.49492(6) 1.0000 0.34769(10)
Zn1C_2 Zn 1.50508(6) 1.0000 0.65231(10)
O1F O 0.5957(4) 1.0929(4) 0.6303(6)
O1A O 1.0957(4) 1.4071(4) 0.6303(6)
O1G O 1.4043(4) 1.0929(4) 0.3697(6)
O1E O 0.9043(4) 1.5929(4) 0.3697(6)
O1C O 0.5957(4) 0.9071(4) 0.6303(6)
C1F C 0.6167(4) 1.1191(5) 0.5154(7)
C1A C 1.1167(4) 1.3809(5) 0.5154(7)
C1G C 1.3833(4) 1.1191(5) 0.4846(7)
C2F C 0.6856(4) 1.1865(5) 0.5139(6)
C2A C 1.1856(4) 1.3135(5) 0.5139(6)
C2G C 1.3144(4) 1.1865(5) 0.4861(6)
N1A N 1.0022(4) 1.5000 -0.1328(8)
N1C N 0.5022(4) 1.0000 0.8672(8)
O2F O 0.5849(4) 1.0915(5) 0.3978(6)
O2A O 1.0849(4) 1.4085(5) 0.3978(6)
O2G O 1.4151(4) 1.0915(5) 0.6022(6)
O2D O 1.0849(4) 1.5915(5) 0.3978(6)
O2G_2 O 0.4151(4) 1.0915(5) 0.6022(6)
O2B O 0.4151(4) 0.9085(5) 0.6022(6)
C3A C 1.0879(14) 1.5000 -0.065(2)
C4A C 0.9550(13) 1.4204(11) -0.0914(17)
C4E C 1.0450(13) 1.5796(11) 0.0914(17)
C4D C 0.9550(13) 1.5796(11) -0.0914(17)
C5A C 1.0295(19) 1.4124(17) -0.074(2)
C5D C 1.0295(19) 1.5876(17) -0.074(2)
C5E C 0.9705(19) 1.5876(17) 0.074(2)
C6A C 0.911(2) 1.5000 -0.102(4)
C7F C 0.7110(8) 1.2433(8) 0.6244(10)
C7A C 1.2110(8) 1.2567(8) 0.6244(10)
C7G C 1.2890(8) 1.2433(8) 0.3756(10)
C8F C 0.7274(8) 1.1947(9) 0.3944(11)
C8A C 1.2274(8) 1.3053(9) 0.3944(11)
C8G C 1.2726(8) 1.1947(9) 0.6056(11)
H1F H 0.7127 1.1547 0.3198
H1A H 1.2127 1.3453 0.3198
H1G H 1.2873 1.1547 0.6802
O3F O 0.6859(8) 1.2262(9) 0.7573(12)
O3A O 1.1859(8) 1.2738(9) 0.7573(12)
O3G O 1.3141(8) 1.2262(9) 0.2427(12)
C9? C 0.7605(11) 0.8132(16) 0.601(2)
C10? C 0.6840(17) 0.7530(15) 0.404(2)
H2? H 0.6409 0.7592 0.3292
O4? O 0.7707(12) 0.8793(12) 0.7053(19)
loop_
_geom_bond_atom_site_label_1
_geom_bond_atom_site_label_2
_geom_bond_site_symmetry_1
_geom_bond_site_symmetry_2
Zn1 O1 1_555 1_555
O1 C1 1_555 1_555
C1 C2 1_555 1_555
C2 C7 1_555 1_555
N1 Zn1 1_555 1_555
O2 C1 1_555 1_555
C3 N1 1_555 1_555
C4 N1 1_555 1_555
C5 N1 1_555 1_555
C6 N1 1_555 1_555
C7 O3 1_555 1_555
C8 C2 1_555 1_555
H1 C8 1_555 1_555
Zn1C O1F 1_555 1_555
Zn1A O2 1_555 1_555
Zn1B O2F 1_555 1_555
Zn1A_2 N1A 1_555 1_555
Zn1B_2 O1G 1_555 1_555
Zn1C_2 O2G 1_555 1_555
O1F C1F 1_555 1_555
O1A Zn1A 1_555 1_555
O1G C1G 1_555 1_555
O1E Zn1 1_555 1_555
O1C Zn1C 1_555 1_555
C1F C2F 1_555 1_555
C1A O1A 1_555 1_555
C1G C2G 1_555 1_555
C2F C7F 1_555 1_555
C2A C1A 1_555 1_555
C2G C7G 1_555 1_555
N1A C3A 1_555 1_555
N1C Zn1C 1_555 1_555
O2F C1F 1_555 1_555
O2A Zn1 1_555 1_555
O2G C1G 1_555 1_555
O2D Zn1 1_555 1_555
O2G_2 Zn1C 1_555 1_555
O2B Zn1C 1_555 1_555
C3A C6 1_555 1_555
C4A C5 1_555 1_555
C4E N1 1_555 1_555
C4D N1A 1_555 1_555
C5A C4 1_555 1_555
C5D N1A 1_555 1_555
C5E N1 1_555 1_555
C6A C3 1_555 1_555
C7F C8 1_555 1_555
C7A C2A 1_555 1_555
C7G C8A 1_555 1_555
C8F C7 1_555 1_555
C8A C2A 1_555 1_555
C8G C2G 1_555 1_555
H1F C8F 1_555 1_555
H1A C8A 1_555 1_555
H1G C8G 1_555 1_555
O3F C7F 1_555 1_555
O3A C7A 1_555 1_555
O3G C7G 1_555 1_555
C3 C5 1_555 1_555
C3 C5E 1_555 1_555
C4 C5 1_555 1_555
C4 C6 1_555 1_555
C6 C4E 1_555 1_555
C1A O2A 1_555 1_555
C2F C8F 1_555 1_555
N1A C4A 1_555 1_555
N1A C5A 1_555 1_555
N1A C6A 1_555 1_555
C3A C5A 1_555 1_555
C3A C5D 1_555 1_555
C4A C5A 1_555 1_555
C4A C6A 1_555 1_555
C4E C5D 1_555 1_555
C4E C5E 1_555 1_555
C4D C5D 1_555 1_555
C4D C5E 1_555 1_555
C4D C6A 1_555 1_555
C7A C8G 1_555 1_555

#END
