
#######################################################################
#
#                 Cambridge Crystallographic Data Centre
#                                CCDC 
#
#######################################################################
#
# If this CIF has been generated from an entry in the Cambridge 
# Structural Database, then it will include bibliographic, chemical, 
# crystal, experimental, refinement or atomic coordinate data resulting 
# from the CCDC's data processing and validation procedures.
#
#######################################################################

data_AHOZII
_chemical_formula_moiety         '(C32 H26 Cd1 N12 O8)n'
_chemical_name_systematic        
catena-[(\m-2,2',2'',2'''-((2,2',6,6'-tetramethylbiphenyl-3,3',5,5'-tetrayl)tetrakis(1H-1,2,3-triazole-4,1-diyl))tetraacetato)-cadmium]
_symmetry_cell_setting           orthorhombic
_symmetry_space_group_name_H-M   'C c c 2'
_symmetry_Int_Tables_number      37
_space_group_name_Hall           'C 2 -2c'
loop_
_symmetry_equiv_pos_site_id
_symmetry_equiv_pos_as_xyz
1 x,y,z
2 -x,-y,z
3 -x,y,1/2+z
4 x,-y,1/2+z
5 1/2+x,1/2+y,z
6 1/2-x,1/2-y,z
7 1/2-x,1/2+y,1/2+z
8 1/2+x,1/2-y,1/2+z
_cell_length_a                   18.066(5)
_cell_length_b                   20.762(5)
_cell_length_c                   15.240(4)
_cell_angle_alpha                90
_cell_angle_beta                 90
_cell_angle_gamma                90
_cell_volume                     5716.32
_exptl_crystal_colour            colorless
_exptl_crystal_description       square
_cell_formula_units_Z            4
loop_
_atom_site_label
_atom_site_type_symbol
_atom_site_fract_x
_atom_site_fract_y
_atom_site_fract_z
Cd1 Cd 0.0000 0.0000 0.25812(8)
C1 C 0.0321(5) -0.0917(3) 1.1324(4)
O1 O 0.0796(4) -0.0504(3) 1.1416(3)
N1 N -0.2305(4) -0.0413(3) 0.4398(4)
C2 C -0.1849(4) -0.2355(3) 0.9297(4)
O2 O -0.1024(3) -0.0463(3) 0.3481(4)
N2 N -0.0200(3) -0.1811(3) 1.0424(4)
C3 C -0.2523(3) -0.1916(3) 0.6486(4)
C4 C -0.2500 -0.2500 0.6928(6)
C5 C -0.2500 -0.2500 0.7962(5)
C6 C -0.1134(4) -0.2267(4) 0.7873(4)
H1 H -0.1220 -0.2343 0.7260
H2 H -0.0765 -0.2563 0.8083
H3 H -0.0963 -0.1833 0.7956
C7 C -0.2508(4) -0.1342(3) 0.5000(5)
C8 C -0.2500 -0.2500 0.5126(7)
H4 H -0.2500 -0.2500 0.4516
C9 C -0.2506(4) -0.1909(4) 0.5556(4)
C10 C -0.2575(4) -0.1274(4) 0.7001(4)
H5 H -0.2856 -0.0967 0.6667
H6 H -0.2086 -0.1108 0.7102
H7 H -0.2815 -0.1349 0.7554
C11 C -0.1204(4) -0.2195(3) 0.9835(4)
N3 N -0.2829(3) -0.1343(3) 0.4201(4)
O3 O -0.0884(3) 0.0576(3) 0.3445(3)
N4 N -0.1060(4) -0.2490(3) 1.0627(3)
C12 C -0.1844(4) -0.2366(3) 0.8376(4)
N5 N -0.2702(4) -0.0765(3) 0.3825(4)
C13 C -0.0628(4) -0.1743(4) 0.9703(5)
H8 H -0.0560 -0.1465 0.9231
O4 O -0.0279(3) -0.0914(3) 1.1738(3)
N6 N -0.0472(4) -0.2254(3) 1.0989(4)
C14 C -0.2500 -0.2500 0.9731(5)
H9 H -0.2500 -0.2500 1.0341
C15 C 0.0454(4) -0.1416(4) 1.0620(5)
H10 H 0.0610 -0.1199 1.0088
H11 H 0.0854 -0.1696 1.0805
C16 C -0.1224(5) 0.0100(3) 0.3653(4)
C17 C -0.1965(5) 0.0184(4) 0.4108(5)
H12 H -0.1897 0.0462 0.4614
H13 H -0.2301 0.0401 0.3709
C18 C -0.2171(4) -0.0742(3) 0.5100(6)
H14 H -0.1899 -0.0604 0.5583
C1E C -0.5321(5) -0.4083(3) 1.1324(4)
O1E O -0.5796(4) -0.4496(3) 1.1416(3)
N1E N -0.2695(4) -0.4587(3) 0.4398(4)
C2E C -0.3151(4) -0.2645(3) 0.9297(4)
O2E O -0.3976(3) -0.4537(3) 0.3481(4)
N2E N -0.4800(3) -0.3189(3) 1.0424(4)
C3E C -0.2477(3) -0.3084(3) 0.6486(4)
C6E C -0.3866(4) -0.2733(4) 0.7873(4)
H1E H -0.3780 -0.2657 0.7260
H2E H -0.4235 -0.2437 0.8083
H3E H -0.4037 -0.3167 0.7956
C7E C -0.2492(4) -0.3658(3) 0.5000(5)
C9E C -0.2494(4) -0.3091(4) 0.5556(4)
C10E C -0.2425(4) -0.3726(4) 0.7001(4)
H5E H -0.2144 -0.4033 0.6667
H6E H -0.2914 -0.3892 0.7102
H7E H -0.2185 -0.3651 0.7554
C11E C -0.3796(4) -0.2805(3) 0.9835(4)
N3E N -0.2171(3) -0.3657(3) 0.4201(4)
O3E O -0.4116(3) -0.5576(3) 0.3445(3)
N4E N -0.3940(4) -0.2510(3) 1.0627(3)
C12E C -0.3156(4) -0.2634(3) 0.8376(4)
N5E N -0.2298(4) -0.4235(3) 0.3825(4)
C13E C -0.4372(4) -0.3257(4) 0.9703(5)
H8E H -0.4440 -0.3535 0.9231
O4E O -0.4721(3) -0.4086(3) 1.1738(3)
N6E N -0.4528(4) -0.2746(3) 1.0989(4)
C15E C -0.5454(4) -0.3584(4) 1.0620(5)
H10E H -0.5610 -0.3801 1.0088
H11E H -0.5854 -0.3304 1.0805
C16E C -0.3776(5) -0.5100(3) 0.3653(4)
C17E C -0.3035(5) -0.5184(4) 0.4108(5)
H12E H -0.3103 -0.5462 0.4614
H13E H -0.2699 -0.5401 0.3709
C18E C -0.2829(4) -0.4258(3) 0.5100(6)
H14E H -0.3101 -0.4396 0.5583
Cd1_2 Cd 0.0000 0.0000 1.25812(8)
Cd1D Cd -0.5000 -0.5000 0.25812(8)
Cd1D_2 Cd -0.5000 -0.5000 1.25812(8)
O1_2 O 0.0796(4) -0.0504(3) 0.1416(3)
O1A O -0.0796(4) 0.0504(3) 0.1416(3)
O2A O 0.1024(3) 0.0463(3) 0.3481(4)
O3A O 0.0884(3) -0.0576(3) 0.3445(3)
O4_2 O -0.0279(3) -0.0914(3) 0.1738(3)
O4A O 0.0279(3) 0.0914(3) 0.1738(3)
loop_
_geom_bond_atom_site_label_1
_geom_bond_atom_site_label_2
_geom_bond_site_symmetry_1
_geom_bond_site_symmetry_2
Cd1 O2 1_555 1_555
C1 O1 1_555 1_555
O1 Cd1_2 1_555 1_555
N1 N5 1_555 1_555
C2 C11 1_555 1_555
O2 C16 1_555 1_555
N2 C13 1_555 1_555
C3 C4 1_555 1_555
C4 C5 1_555 1_555
C5 C12 1_555 1_555
C6 H1 1_555 1_555
H2 C6 1_555 1_555
H3 C6 1_555 1_555
C7 C9 1_555 1_555
C8 H4 1_555 1_555
C9 C3 1_555 1_555
C10 C3 1_555 1_555
H5 C10 1_555 1_555
H6 C10 1_555 1_555
H7 C10 1_555 1_555
C11 N4 1_555 1_555
N3 C7 1_555 1_555
O3 Cd1 1_555 1_555
N4 N6 1_555 1_555
C12 C2 1_555 1_555
N5 N3 1_555 1_555
C13 C11 1_555 1_555
H8 C13 1_555 1_555
O4 C1 1_555 1_555
N6 N2 1_555 1_555
C14 C2 1_555 1_555
H9 C14 1_555 1_555
C15 C1 1_555 1_555
H10 C15 1_555 1_555
H11 C15 1_555 1_555
C16 O3 1_555 1_555
C17 N1 1_555 1_555
H12 C17 1_555 1_555
H13 C17 1_555 1_555
C18 N1 1_555 1_555
H14 C18 1_555 1_555
C1E O1E 1_555 1_555
O1E Cd1D_2 1_555 1_555
N1E N5E 1_555 1_555
C2E C14 1_555 1_555
O2E C16E 1_555 1_555
N2E C13E 1_555 1_555
C3E C4 1_555 1_555
C6E H1E 1_555 1_555
H2E C6E 1_555 1_555
H3E C6E 1_555 1_555
C7E C9E 1_555 1_555
C9E C8 1_555 1_555
C10E C3E 1_555 1_555
H5E C10E 1_555 1_555
H6E C10E 1_555 1_555
H7E C10E 1_555 1_555
C11E C2E 1_555 1_555
N3E C7E 1_555 1_555
O3E C16E 1_555 1_555
N4E C11E 1_555 1_555
C12E C5 1_555 1_555
N5E N3E 1_555 1_555
C13E C11E 1_555 1_555
H8E C13E 1_555 1_555
O4E C1E 1_555 1_555
N6E N2E 1_555 1_555
C15E C1E 1_555 1_555
H10E C15E 1_555 1_555
H11E C15E 1_555 1_555
C16E C17E 1_555 1_555
C17E N1E 1_555 1_555
H12E C17E 1_555 1_555
H13E C17E 1_555 1_555
C18E N1E 1_555 1_555
H14E C18E 1_555 1_555
Cd1_2 O4 1_555 1_555
Cd1D O2E 1_555 1_555
Cd1D_2 O4E 1_555 1_555
O1_2 Cd1 1_555 1_555
O1A Cd1 1_555 1_555
O2A Cd1 1_555 1_555
O3A Cd1 1_555 1_555
O4_2 Cd1 1_555 1_555
O4A Cd1 1_555 1_555
N2 C15 1_555 1_555
C6 C12 1_555 1_555
C7 C18 1_555 1_555
C8 C9 1_555 1_555
C16 C17 1_555 1_555
C2E C12E 1_555 1_555
N2E C15E 1_555 1_555
C3E C9E 1_555 1_555
C6E C12E 1_555 1_555
C7E C18E 1_555 1_555
O3E Cd1D 1_555 1_555
N4E N6E 1_555 1_555

#END
