
#######################################################################
#
#                 Cambridge Crystallographic Data Centre
#                                CCDC 
#
#######################################################################
#
# If this CIF has been generated from an entry in the Cambridge 
# Structural Database, then it will include bibliographic, chemical, 
# crystal, experimental, refinement or atomic coordinate data resulting 
# from the CCDC's data processing and validation procedures.
#
#######################################################################

data_RUWXAJ
_chemical_formula_moiety         '(C30 H22 La2 O18)n,2n(C3 H6 O1),4n(H2 O1)'
_chemical_name_systematic        
'catena-(bis(\m~5~-5-(4-Carboxyphenoxy)isophthalato)-tetra-aqua-di-lanthanum acetone solvate tetrahydrate)'
_symmetry_cell_setting           triclinic
_symmetry_space_group_name_H-M   'P -1'
_symmetry_Int_Tables_number      2
_space_group_name_Hall           '-P 1'
loop_
_symmetry_equiv_pos_site_id
_symmetry_equiv_pos_as_xyz
1 x,y,z
2 -x,-y,-z
_cell_length_a                   9.491(5)
_cell_length_b                   10.052(3)
_cell_length_c                   11.344(5)
_cell_angle_alpha                94.429(6)
_cell_angle_beta                 97.914(2)
_cell_angle_gamma                111.386(5)
_cell_volume                     988.567
_exptl_crystal_colour            colorless
_exptl_crystal_description       prism
_cell_formula_units_Z            1
loop_
_atom_site_label
_atom_site_type_symbol
_atom_site_fract_x
_atom_site_fract_y
_atom_site_fract_z
La1 La 0.78599(8) 0.54591(7) 0.98706(6)
O1 O 0.5530(10) 0.3366(9) 0.9730(8)
O2 O 0.3147(10) 0.2611(9) 1.0077(8)
O3 O -0.0447(10) -0.2519(9) 0.8861(8)
O4 O 0.0808(9) -0.3966(9) 0.9214(8)
O5 O 0.5621(9) -0.1077(9) 0.7384(7)
O6 O 0.2269(9) -0.3794(9) 0.2001(8)
O7 O 0.3826(10) -0.4945(9) 0.2274(7)
C1 C 0.4194(15) 0.2414(11) 0.9680(10)
C2 C 0.3873(13) 0.0922(11) 0.9128(11)
C3 C 0.2520(14) -0.0176(12) 0.9228(10)
H1 H 0.1801 0.0033 0.9607
C4 C 0.2226(13) -0.1597(13) 0.8762(10)
C5 C 0.0770(13) -0.2758(12) 0.8940(10)
C6 C 0.3279(14) -0.1920(13) 0.8171(11)
H2 H 0.3112 -0.2868 0.7888
C7 C 0.4571(13) -0.0797(14) 0.8019(12)
C8 C 0.4927(13) 0.0630(13) 0.8507(11)
H3 H 0.5836 0.1362 0.8423
C9 C 0.5049(14) -0.1758(13) 0.6214(11)
C10 C 0.3875(16) -0.1533(14) 0.5467(11)
H4 H 0.3458 -0.0889 0.5746
C11 C 0.3346(16) -0.2261(15) 0.4335(12)
H5 H 0.2551 -0.2120 0.3853
C12 C 0.3954(14) -0.3200(13) 0.3881(11)
C13 C 0.3343(14) -0.4021(12) 0.2661(11)
C14 C 0.5155(16) -0.3363(15) 0.4593(12)
H6 H 0.5621 -0.3943 0.4275
C15 C 0.5703(16) -0.2685(16) 0.5785(12)
H7 H 0.6478 -0.2850 0.6271
O9 O 0.6925(11) 0.5452(10) 1.1922(8)
O10 O 0.9971(10) 0.7216(10) 1.1517(8)
H14 H 1.04(3) 0.808(13) 1.13(2)
H15 H 0.93(2) 0.74(3) 1.19(2)
H16 H 0.766(14) 0.588(18) 1.257(9)
H17 H 0.611(13) 0.50(2) 1.226(14)
La1A La 0.21401(8) -0.54591(7) 0.01294(6)
La1_2 La -0.21401(8) -0.45409(7) 0.98706(6)
La1_3 La 0.78599(8) -0.45409(7) -0.01294(6)
La1_4 La 0.78599(8) 0.54591(7) -0.01294(6)
La1A_2 La 0.21401(8) -0.54591(7) 1.01294(6)
La1A_3 La 0.21401(8) 0.45409(7) 1.01294(6)
La1A_4 La 1.21401(8) 0.45409(7) 0.01294(6)
O1A O 0.4470(10) -0.3366(9) 0.0270(8)
O2A O 0.6853(10) -0.2611(9) -0.0077(8)
O2_2 O 0.3147(10) -0.7389(9) 0.0077(8)
O2A_2 O 0.6853(10) 0.7389(9) 0.9923(8)
O3A O 1.0447(10) 0.2519(9) 0.1139(8)
O3_2 O 0.9553(10) 0.7481(9) 0.8861(8)
O3A_2 O 0.0447(10) -0.7481(9) 0.1139(8)
O4A O 0.9192(9) 0.3966(9) 0.0786(8)
O4_2 O 0.0808(9) -0.3966(9) -0.0786(8)
O4_3 O 1.0808(9) 0.6034(9) 0.9214(8)
O4A_2 O -0.0808(9) -0.6034(9) 0.0786(8)
O4A_3 O 0.9192(9) 0.3966(9) 1.0786(8)
O5A O 0.4379(9) 0.1077(9) 0.2616(7)
O6A O 0.7731(9) 0.3794(9) 0.7999(8)
O7A O 0.6174(10) 0.4945(9) 0.7726(7)
C1A C 0.5806(15) -0.2414(11) 0.0320(10)
C2A C 0.6127(13) -0.0922(11) 0.0872(11)
C3A C 0.7480(14) 0.0176(12) 0.0772(10)
H1A H 0.8199 -0.0033 0.0393
C4A C 0.7774(13) 0.1597(13) 0.1238(10)
C5A C 0.9230(13) 0.2758(12) 0.1060(10)
C6A C 0.6721(14) 0.1920(13) 0.1829(11)
H2A H 0.6888 0.2868 0.2112
C7A C 0.5429(13) 0.0797(14) 0.1981(12)
C8A C 0.5073(13) -0.0630(13) 0.1493(11)
H3A H 0.4164 -0.1362 0.1577
C9A C 0.4951(14) 0.1758(13) 0.3786(11)
C10A C 0.6125(16) 0.1533(14) 0.4533(11)
H4A H 0.6542 0.0889 0.4254
C11A C 0.6654(16) 0.2261(15) 0.5665(12)
H5A H 0.7449 0.2120 0.6147
C12A C 0.6046(14) 0.3200(13) 0.6119(11)
C13A C 0.6657(14) 0.4021(12) 0.7339(11)
C14A C 0.4845(16) 0.3363(15) 0.5407(12)
H6A H 0.4379 0.3943 0.5725
C15A C 0.4297(16) 0.2685(16) 0.4215(12)
H7A H 0.3522 0.2850 0.3729
O9A O 0.3075(11) -0.5452(10) -0.1922(8)
O10A O 0.0029(10) -0.7216(10) -0.1517(8)
H14A H -0.04(3) -0.808(13) -0.13(2)
H15A H 0.07(2) -0.74(3) -0.19(2)
H16A H 0.234(14) -0.588(18) -0.257(9)
H17A H 0.389(13) -0.50(2) -0.226(14)
O8 O 1.1239(15) 0.3149(17) 0.5837(11)
C16 C 0.979(4) 0.100(4) 0.449(3)
H8 H 0.9389 0.1629 0.4097
H9 H 0.8964 0.0211 0.4694
H10 H 1.0315 0.0631 0.3965
C17 C 1.087(4) 0.180(2) 0.558(3)
C18 C 1.166(7) 0.115(5) 0.641(5)
H11 H 1.2337 0.1881 0.7048
H12 H 1.2242 0.0738 0.5987
H13 H 1.0916 0.0414 0.6739
O11 O 1.1106(11) 1.0179(9) 1.1929(9)
H18 H 1.089(12) 1.083(9) 1.152(8)
H19 H 1.186(16) 1.074(11) 1.253(11)
O12 O 0.980(8) 0.582(7) 0.592(6)
loop_
_geom_bond_atom_site_label_1
_geom_bond_atom_site_label_2
_geom_bond_site_symmetry_1
_geom_bond_site_symmetry_2
La1 O1 1_555 1_555
O1 C1 1_555 1_555
O2 C1 1_555 1_555
O3 C5 1_555 1_555
O4 C5 1_555 1_555
O5 C7 1_555 1_555
O6 C13 1_555 1_555
O7 C13 1_555 1_555
O8 C17 1_555 1_555
C1 C2 1_555 1_555
C2 C3 1_555 1_555
C3 H1 1_555 1_555
C4 C3 1_555 1_555
C5 C4 1_555 1_555
C6 C4 1_555 1_555
H2 C6 1_555 1_555
C7 C6 1_555 1_555
C8 C2 1_555 1_555
H3 C8 1_555 1_555
C9 O5 1_555 1_555
C10 C9 1_555 1_555
H4 C10 1_555 1_555
C11 C10 1_555 1_555
H5 C11 1_555 1_555
C12 C11 1_555 1_555
C13 C12 1_555 1_555
C14 C12 1_555 1_555
H6 C14 1_555 1_555
C15 C9 1_555 1_555
H7 C15 1_555 1_555
C16 H8 1_555 1_555
H9 C16 1_555 1_555
H10 C16 1_555 1_555
C17 C16 1_555 1_555
C18 C17 1_555 1_555
H11 C18 1_555 1_555
H12 C18 1_555 1_555
H13 C18 1_555 1_555
O9 La1 1_555 1_555
O10 La1 1_555 1_555
O11 H18 1_555 1_555
H14 O10 1_555 1_555
H15 O10 1_555 1_555
H16 O9 1_555 1_555
H17 O9 1_555 1_555
H19 O11 1_555 1_555
La1A O6 1_555 1_555
La1_2 O3 1_555 1_555
La1_3 O2A 1_555 1_555
La1_4 O4A 1_555 1_555
La1A_2 O4 1_555 1_555
La1A_3 O2 1_555 1_555
La1A_4 O3A 1_555 1_555
O1A La1A 1_555 1_555
O2A C1A 1_555 1_555
O2_2 La1A 1_555 1_555
O2A_2 La1 1_555 1_555
O3A C5A 1_555 1_555
O3_2 La1 1_555 1_555
O3A_2 La1A 1_555 1_555
O4A La1A_4 1_555 1_555
O4_2 La1A 1_555 1_555
O4_3 La1 1_555 1_555
O4A_2 La1A 1_555 1_555
O4A_3 La1 1_555 1_555
O5A C7A 1_555 1_555
O6A La1 1_555 1_555
O7A La1 1_555 1_555
C1A O1A 1_555 1_555
C2A C1A 1_555 1_555
C3A C2A 1_555 1_555
H1A C3A 1_555 1_555
C4A C3A 1_555 1_555
C5A O4A 1_555 1_555
C6A C4A 1_555 1_555
H2A C6A 1_555 1_555
C7A C6A 1_555 1_555
C8A C2A 1_555 1_555
H3A C8A 1_555 1_555
C9A O5A 1_555 1_555
C10A C9A 1_555 1_555
H4A C10A 1_555 1_555
C11A C10A 1_555 1_555
H5A C11A 1_555 1_555
C12A C11A 1_555 1_555
C13A O6A 1_555 1_555
C14A C12A 1_555 1_555
H6A C14A 1_555 1_555
C15A C9A 1_555 1_555
H7A C15A 1_555 1_555
O9A La1A 1_555 1_555
O10A La1A 1_555 1_555
H14A O10A 1_555 1_555
H15A O10A 1_555 1_555
H16A O9A 1_555 1_555
H17A O9A 1_555 1_555
O4 La1_2 1_555 1_555
O7 La1A 1_555 1_555
C7 C8 1_555 1_555
C14 C15 1_555 1_555
O7A C13A 1_555 1_555
C4A C5A 1_555 1_555
C7A C8A 1_555 1_555
C12A C13A 1_555 1_555
C14A C15A 1_555 1_555

#END
