
#######################################################################
#
#                 Cambridge Crystallographic Data Centre
#                                CCDC 
#
#######################################################################
#
# If this CIF has been generated from an entry in the Cambridge 
# Structural Database, then it will include bibliographic, chemical, 
# crystal, experimental, refinement or atomic coordinate data resulting 
# from the CCDC's data processing and validation procedures.
#
#######################################################################

data_IFASOZ
_chemical_formula_moiety         
'(C28 H43 Mg4 N1 O18)n,5n(C4 H9 N1 O1),2n(C1 H4 O1),4n(H2 O1)'
_chemical_name_systematic        
'catena-(bis(\m~6~-adipato)-bis(\m~4~-adipato)-(N,N-dimethylacetamide)-aqua-tetra-magnesium N,N-dimethylacetamide methanol solvate tetrahydrate)'
_symmetry_cell_setting           monoclinic
_symmetry_space_group_name_H-M   'C 2/c'
_symmetry_Int_Tables_number      15
_space_group_name_Hall           '-C 2yc'
loop_
_symmetry_equiv_pos_site_id
_symmetry_equiv_pos_as_xyz
1 x,y,z
2 -x,y,1/2-z
3 1/2+x,1/2+y,z
4 1/2-x,1/2+y,1/2-z
5 -x,-y,-z
6 x,-y,1/2+z
7 1/2-x,1/2-y,-z
8 1/2+x,1/2-y,1/2+z
_cell_length_a                   35.558(5)
_cell_length_b                   13.495(5)
_cell_length_c                   29.699(5)
_cell_angle_alpha                90
_cell_angle_beta                 122.628(5)
_cell_angle_gamma                90
_cell_volume                     12002.2
_exptl_crystal_colour            colorless
_exptl_crystal_description       rod
_cell_formula_units_Z            8
loop_
_atom_site_label
_atom_site_type_symbol
_atom_site_fract_x
_atom_site_fract_y
_atom_site_fract_z
C1 C 0.7500(2) 0.8975(4) 0.9291(2)
C2 C 0.75216(18) 0.8941(5) 0.9826(2)
H1 H 0.7441 0.9602 0.9894
H2 H 0.7297 0.8462 0.9792
C3 C 0.7972(2) 0.8654(5) 1.0297(2)
H3 H 0.8196 0.9155 1.035
H4 H 0.8062 0.8009 1.0225
C4 C 0.7965(2) 0.8574(5) 1.0810(2)
H5 H 0.7913 0.9239 1.0907
H6 H 0.7715 0.814 1.0741
C5 C 0.8403(2) 0.8154(5) 1.1277(2)
H7 H 0.8426 0.7444 1.121
H8 H 0.8657 0.8506 1.1301
C6 C 0.84282(17) 0.8260(5) 1.1791(2)
C7 C 0.75993(18) 0.6992(4) 0.8340(2)
C8 C 0.80470(19) 0.6582(4) 0.8749(2)
H9 H 0.8135 0.6861 0.9101
H10 H 0.8265 0.6824 0.8664
C9 C 0.8089(2) 0.5458(4) 0.8804(2)
H11 H 0.8364 0.5294 0.915
H12 H 0.7833 0.5195 0.8811
C10 C 0.81057(19) 0.4946(4) 0.8366(2)
H13 H 0.8343 0.5252 0.8334
H14 H 0.7818 0.5049 0.8023
C11 C 0.8193(2) 0.3853(4) 0.8460(2)
H15 H 0.7951 0.3552 0.8485
H16 H 0.8476 0.3757 0.881
C12 C 0.82264(16) 0.3297(5) 0.8041(2)
C13 C 0.92504(17) 0.8616(4) 1.3578(2)
C14 C 0.97546(19) 0.8539(5) 1.3869(2)
H17 H 0.9848 0.8748 1.3625
H18 H 0.9843 0.7837 1.3966
C15 C 1.00008(18) 0.9173(5) 1.4378(2)
H19 H 0.996 0.9882 1.4276
H20 H 0.9866 0.9058 1.4591
C16 C 1.04972(17) 0.8948(5) 1.4723(2)
H21 H 1.054 0.8261 1.486
H22 H 1.0628 0.8996 1.4502
C17 C 1.07339(18) 0.9651(5) 1.5185(3)
H23 H 1.0568 0.9686 1.5365
H24 H 1.073 1.032 1.5045
C18 C 1.12145(19) 0.9369(5) 1.5594(2)
C19 C 0.82740(17) 1.0543(5) 1.2958(2)
C20 C 0.8424(2) 1.0971(4) 1.2597(3)
H25 H 0.8728 1.0725 1.2726
H26 H 0.8222 1.0717 1.2229
C21 C 0.84280(19) 1.2084(5) 1.2578(3)
H27 H 0.8619 1.2294 1.2446
H28 H 0.8563 1.2346 1.2945
C22 C 0.79656(19) 1.2535(4) 1.2222(3)
H29 H 0.779 1.2427 1.2386
H30 H 0.7809 1.2199 1.187
C23 C 0.79950(18) 1.3661(4) 1.2141(2)
H31 H 0.8142 1.3991 1.2494
H32 H 0.8187 1.3761 1.1997
C24 C 0.75500(17) 1.4158(4) 1.1771(2)
O1 O 0.71192(12) 0.8936(3) 0.88724(14)
O2 O 0.78646(12) 0.9027(3) 0.93234(15)
O3 O 0.83989(12) 0.7507(3) 1.20369(14)
O4 O 0.84573(13) 0.9110(3) 1.19789(16)
O5 O 0.75300(12) 0.7916(3) 0.83647(15)
O6 O 0.73103(12) 0.6420(3) 0.79977(15)
O7 O 0.81742(13) 0.3764(3) 0.76472(15)
O8 O 0.83056(12) 0.2363(3) 0.81089(15)
O9 O 0.90361(12) 0.8507(3) 1.30801(15)
O10 O 0.90867(12) 0.8742(3) 1.38604(15)
O11 O 1.14880(11) 1.0066(3) 1.58735(14)
O12 O 1.13445(12) 0.8510(3) 1.56479(16)
O13 O 0.82797(12) 0.9612(3) 1.30024(14)
O14 O 0.81678(13) 1.1128(3) 1.31910(16)
O15 O 0.72043(12) 1.3643(3) 1.15360(15)
O16 O 0.75559(12) 1.5085(3) 1.17177(14)
Mg1 Mg 0.69536(6) 0.87910(14) 0.80988(7)
Mg2 Mg 0.83581(6) 0.85098(14) 1.25757(7)
Mg3 Mg 0.84497(6) 0.87125(14) 1.36876(7)
Mg4 Mg 0.79949(6) 0.90233(14) 0.87409(7)
O17 O 0.86917(13) 0.7821(3) 1.43546(15)
O18 O 0.63841(13) 0.9607(3) 0.78280(17)
C25 C 0.5789(3) 0.9327(9) 0.6895(5)
H33 H 0.5475 0.9537 0.6691
H34 H 0.5805 0.8604 0.688
H35 H 0.5945 0.9632 0.6742
N1 N 0.5762(4) 1.0542(9) 0.7469(5)
C26 C 0.6023(5) 0.9676(11) 0.7516(6)
C27 C 0.5930(6) 1.1060(15) 0.7973(7)
H36 H 0.572 1.1584 0.7923
H37 H 0.6221 1.1354 0.8091
H38 H 0.5962 1.0591 0.8243
C28 C 0.5329(4) 1.0895(15) 0.7053(7)
H39 H 0.5218 1.0488 0.6732
H40 H 0.5353 1.1586 0.6971
H41 H 0.5122 1.0851 0.7174
O3F O 0.66011(12) 0.7493(3) 0.79631(14)
O6F O 0.76897(12) 0.8580(3) 1.20023(15)
O7C O 0.68258(13) 0.8764(3) 0.73528(15)
O8E O 0.83056(12) 0.7637(3) 1.31089(15)
O11A O 0.85120(11) 1.0066(3) 0.91265(14)
O11D O 0.85120(11) 0.9934(3) 1.41265(14)
O12A O 0.86555(12) 0.8510(3) 0.93521(16)
O14E O 0.81678(13) 0.8872(3) 0.81910(16)
O15C O 0.77957(12) 0.8643(3) 1.34640(15)
O16F O 0.74441(12) 0.9915(3) 0.82823(14)
Mg1C Mg 0.80464(6) 0.37910(14) 0.69012(7)
Mg1F Mg 0.80464(6) 0.62090(14) 1.19012(7)
Mg1F_2 Mg 0.80464(6) 1.62090(14) 1.19012(7)
Mg2E Mg 0.83581(6) 0.14902(14) 0.75757(7)
Mg2F Mg 0.66419(6) 0.64902(14) 0.74243(7)
Mg3C Mg 0.65503(6) 1.37125(14) 1.13124(7)
Mg3D Mg 1.15503(6) 1.12875(14) 1.63124(7)
Mg3E Mg 0.84497(6) 0.12875(14) 0.86876(7)
Mg4A Mg 1.20051(6) 0.90233(14) 1.62591(7)
Mg4E Mg 0.79949(6) 1.09767(14) 1.37409(7)
Mg4F Mg 0.70051(6) 1.59767(14) 1.12591(7)
loop_
_geom_bond_atom_site_label_1
_geom_bond_atom_site_label_2
_geom_bond_site_symmetry_1
_geom_bond_site_symmetry_2
C1 C2 1_555 1_555
C2 H1 1_555 1_555
H2 C2 1_555 1_555
C3 C2 1_555 1_555
H3 C3 1_555 1_555
H4 C3 1_555 1_555
C4 C3 1_555 1_555
H5 C4 1_555 1_555
H6 C4 1_555 1_555
C5 C4 1_555 1_555
H7 C5 1_555 1_555
H8 C5 1_555 1_555
C6 C5 1_555 1_555
C7 C8 1_555 1_555
C8 H9 1_555 1_555
H10 C8 1_555 1_555
C9 C8 1_555 1_555
H11 C9 1_555 1_555
H12 C9 1_555 1_555
C10 C9 1_555 1_555
H13 C10 1_555 1_555
H14 C10 1_555 1_555
C11 C10 1_555 1_555
H15 C11 1_555 1_555
H16 C11 1_555 1_555
C12 C11 1_555 1_555
C13 C14 1_555 1_555
C14 H17 1_555 1_555
H18 C14 1_555 1_555
C15 C14 1_555 1_555
H19 C15 1_555 1_555
H20 C15 1_555 1_555
C16 C15 1_555 1_555
H21 C16 1_555 1_555
H22 C16 1_555 1_555
C17 C16 1_555 1_555
H23 C17 1_555 1_555
H24 C17 1_555 1_555
C18 C17 1_555 1_555
C19 C20 1_555 1_555
C20 H25 1_555 1_555
H26 C20 1_555 1_555
C21 C20 1_555 1_555
H27 C21 1_555 1_555
H28 C21 1_555 1_555
C22 C21 1_555 1_555
H29 C22 1_555 1_555
H30 C22 1_555 1_555
C23 C22 1_555 1_555
H31 C23 1_555 1_555
H32 C23 1_555 1_555
C24 C23 1_555 1_555
O1 C1 1_555 1_555
O2 C1 1_555 1_555
O3 C6 1_555 1_555
O4 C6 1_555 1_555
O5 C7 1_555 1_555
O6 C7 1_555 1_555
O7 C12 1_555 1_555
O8 C12 1_555 1_555
O9 C13 1_555 1_555
O10 C13 1_555 1_555
O11 C18 1_555 1_555
O12 C18 1_555 1_555
O13 C19 1_555 1_555
O14 C19 1_555 1_555
O15 C24 1_555 1_555
O16 C24 1_555 1_555
Mg1 O1 1_555 1_555
Mg2 O3 1_555 1_555
Mg3 O10 1_555 1_555
Mg4 O2 1_555 1_555
O17 Mg3 1_555 1_555
O18 Mg1 1_555 1_555
C25 H33 1_555 1_555
H34 C25 1_555 1_555
H35 C25 1_555 1_555
N1 C26 1_555 1_555
C26 O18 1_555 1_555
C27 N1 1_555 1_555
H36 C27 1_555 1_555
H37 C27 1_555 1_555
H38 C27 1_555 1_555
C28 N1 1_555 1_555
H39 C28 1_555 1_555
H40 C28 1_555 1_555
H41 C28 1_555 1_555
O3F Mg1 1_555 1_555
O6F Mg2 1_555 1_555
O7C Mg1 1_555 1_555
O8E Mg2 1_555 1_555
O11A Mg4 1_555 1_555
O11D Mg3 1_555 1_555
O12A Mg4 1_555 1_555
O14E Mg4 1_555 1_555
O15C Mg3 1_555 1_555
O16F Mg1 1_555 1_555
Mg1C O7 1_555 1_555
Mg1F O3 1_555 1_555
Mg1F_2 O16 1_555 1_555
Mg2E O8 1_555 1_555
Mg2F O6 1_555 1_555
Mg3C O15 1_555 1_555
Mg3D O11 1_555 1_555
Mg3E O8 1_555 1_555
Mg4A O11 1_555 1_555
Mg4E O14 1_555 1_555
Mg4F O16 1_555 1_555
O4 Mg2 1_555 1_555
O5 Mg1 1_555 1_555
O5 Mg4 1_555 1_555
O9 Mg2 1_555 1_555
O12 Mg4A 1_555 1_555
O13 Mg2 1_555 1_555
O13 Mg3 1_555 1_555
Mg3 O8E 1_555 1_555
Mg4 O16F 1_555 1_555
C25 C26 1_555 1_555
O3F Mg2F 1_555 1_555
O11D Mg4E 1_555 1_555

#END
