
#######################################################################
#
#                 Cambridge Crystallographic Data Centre
#                                CCDC 
#
#######################################################################
#
# If this CIF has been generated from an entry in the Cambridge 
# Structural Database, then it will include bibliographic, chemical, 
# crystal, experimental, refinement or atomic coordinate data resulting 
# from the CCDC's data processing and validation procedures.
#
#######################################################################

data_WAVQUH
_chemical_formula_moiety         '(C120 H76 Co12 N12 O52)n,2n(H2 O1)'
_chemical_name_systematic        
'catena-(hexakis(\m~4~-benzene-1,4-dicarboxylato)-dodecakis(\m~3~-isonicotinato)-tetrakis(\m~3~-hydroxo)-dodeca-cobalt dihydrate)'
_symmetry_cell_setting           cubic
_symmetry_space_group_name_H-M   'I -4 3 m'
_symmetry_Int_Tables_number      217
_space_group_name_Hall           'I -4 2 3'
loop_
_symmetry_equiv_pos_site_id
_symmetry_equiv_pos_as_xyz
1 x,y,z
2 -x,-y,z
3 -x,y,-z
4 x,-y,-z
5 z,x,y
6 z,-x,-y
7 -z,-x,y
8 -z,x,-y
9 y,z,x
10 -y,z,-x
11 y,-z,-x
12 -y,-z,x
13 y,x,z
14 -y,-x,z
15 y,-x,-z
16 -y,x,-z
17 x,z,y
18 -x,z,-y
19 -x,-z,y
20 x,-z,-y
21 z,y,x
22 z,-y,-x
23 -z,y,-x
24 -z,-y,x
25 1/2+x,1/2+y,1/2+z
26 1/2-x,1/2-y,1/2+z
27 1/2-x,1/2+y,1/2-z
28 1/2+x,1/2-y,1/2-z
29 1/2+z,1/2+x,1/2+y
30 1/2+z,1/2-x,1/2-y
31 1/2-z,1/2-x,1/2+y
32 1/2-z,1/2+x,1/2-y
33 1/2+y,1/2+z,1/2+x
34 1/2-y,1/2+z,1/2-x
35 1/2+y,1/2-z,1/2-x
36 1/2-y,1/2-z,1/2+x
37 1/2+y,1/2+x,1/2+z
38 1/2-y,1/2-x,1/2+z
39 1/2+y,1/2-x,1/2-z
40 1/2-y,1/2+x,1/2-z
41 1/2+x,1/2+z,1/2+y
42 1/2-x,1/2+z,1/2-y
43 1/2-x,1/2-z,1/2+y
44 1/2+x,1/2-z,1/2-y
45 1/2+z,1/2+y,1/2+x
46 1/2+z,1/2-y,1/2-x
47 1/2-z,1/2+y,1/2-x
48 1/2-z,1/2-y,1/2+x
_cell_length_a                   21.9141(9)
_cell_length_b                   21.9141(9)
_cell_length_c                   21.9141(9)
_cell_angle_alpha                90
_cell_angle_beta                 90
_cell_angle_gamma                90
_cell_volume                     10523.8
_exptl_crystal_colour            red
_exptl_crystal_description       block
_cell_formula_units_Z            2
loop_
_atom_site_label
_atom_site_type_symbol
_atom_site_fract_x
_atom_site_fract_y
_atom_site_fract_z
_atom_site_U_iso_or_equiv
_atom_site_thermal_displace_type
O4 O 0.7176(11) 0.7176(11) 0.7176(11) 0.0650 Uiso
Co1 Co 1.23175(4) 1.23175(4) 0.88210(4) 0.0163 Uani
O1 O 1.3223(2) 1.2242(3) 0.8498(3) 0.0370 Uani
O2 O 1.2016(4) 1.2016(4) 0.7984(4) 0.0250 Uani
O3 O 1.2401(3) 1.1468(4) 0.9241(3) 0.0517 Uani
C1 C 1.5056(5) 1.2584(6) 0.8130(5) 0.0540 Uani
H1 H 1.5266 1.2877 0.8354 0.0650 Uiso
C2 C 1.2430(4) 1.0931(6) 0.9069(4) 0.0280 Uani
C3 C 1.2469(4) 1.0454(6) 0.9546(4) 0.0317 Uani
C4 C 1.3476(4) 1.1904(6) 0.8096(4) 0.0293 Uani
C5 C 1.2501(5) 0.9852(5) 0.9393(5) 0.0580 Uiso
H2 H 1.2522 0.9740 0.8984 0.0700 Uiso
C6 C 1.4449(4) 1.2447(5) 0.8296(4) 0.0483 Uani
H3 H 1.4263 1.2647 0.8621 0.0580 Uiso
C7 C 1.4146(4) 1.2023(5) 0.7977(4) 0.0253 Uani
N1 N 1.2680(3) 1.2680(3) 0.9665(3) 0.0210 Uani
Co1J Co 1.23175(4) 1.11790(4) 0.76825(4) 0.0163 Uani
Co1G Co 1.11790(4) 1.23175(4) 0.76825(4) 0.0163 Uani
O1L O 1.2242(3) 1.3223(2) 0.8498(3) 0.0370 Uani
O1S O 1.3223(2) 1.1502(3) 0.7758(3) 0.0370 Uani
O3L O 1.1468(4) 1.2401(3) 0.9241(3) 0.0517 Uani
O3S O 1.2401(3) 1.0759(3) 0.8532(4) 0.0517 Uani
C1GA C 1.2416(6) 1.3130(5) 0.9944(5) 0.0540 Uani
C1SA C 1.3130(5) 1.2416(6) 0.9944(5) 0.0540 Uani
C5S C 1.2501(5) 1.0607(5) 1.0148(5) 0.0580 Uiso
C5P C 1.2501(5) 0.9393(5) 0.9852(5) 0.0580 Uiso
C6S C 1.4449(4) 1.1704(4) 0.7553(5) 0.0483 Uani
N1DA N 1.5335(3) 1.2320(3) 0.7680(3) 0.0210 Uani
In1? In 0.88210(4) 1.23175(4) 1.23175(4) 0.0163 Uani
loop_
_atom_site_aniso_label
_atom_site_aniso_U_11
_atom_site_aniso_U_22
_atom_site_aniso_U_33
_atom_site_aniso_U_23
_atom_site_aniso_U_13
_atom_site_aniso_U_12
Co1 0.0177 0.0177 0.0136 0.0008 0.0008 -0.0009
O1 0.021 0.056 0.034 -0.02 0.009 -0.004
O2 0.025 0.025 0.025 -0.015 -0.015 0.015
O3 0.116 0.015 0.024 0.008 0 -0.003
C1 0.036 0.076 0.05 -0.019 0.02 -0.031
C2 0.038 0.023 0.023 0.004 0.008 -0.008
C3 0.061 0.017 0.017 0 -0.001 0.001
C4 0.026 0.031 0.031 0.003 0.008 -0.008
C6 0.03 0.075 0.04 -0.026 0.016 -0.013
C7 0.026 0.025 0.025 -0.001 0.007 -0.007
N1 0.027 0.027 0.009 -0.004 -0.004 0.008
Co1J 0.0177 0.0136 0.0177 0.0008 0.0009 -0.0008
Co1G 0.0136 0.0177 0.0177 0.0009 0.0008 -0.0008
O1L 0.056 0.021 0.034 0.009 -0.02 -0.004
O1S 0.021 0.034 0.056 -0.02 0.004 -0.009
O3L 0.015 0.116 0.024 0 0.008 -0.003
O3S 0.116 0.024 0.015 0.008 0.003 0
C1GA 0.076 0.05 0.036 -0.02 -0.031 0.019
C1SA 0.05 0.076 0.036 -0.031 -0.02 0.019
C6S 0.03 0.04 0.075 -0.026 0.013 -0.016
N1DA 0.009 0.027 0.027 -0.008 0.004 -0.004
In1? 0.0136 0.0177 0.0177 -0.0009 0.0008 0.0008
loop_
_geom_bond_atom_site_label_1
_geom_bond_atom_site_label_2
_geom_bond_site_symmetry_1
_geom_bond_site_symmetry_2
Co1 O1 1_555 1_555
O1 C4 1_555 1_555
O2 Co1 1_555 1_555
O3 Co1 1_555 1_555
C1 H1 1_555 1_555
C2 O3 1_555 1_555
C3 C2 1_555 1_555
C4 C7 1_555 1_555
C5 C3 1_555 1_555
H2 C5 1_555 1_555
C6 C1 1_555 1_555
H3 C6 1_555 1_555
C7 C6 1_555 1_555
N1 Co1 1_555 1_555
Co1J O2 1_555 1_555
Co1G O2 1_555 1_555
O1L Co1 1_555 1_555
O1S C4 1_555 1_555
O3L Co1 1_555 1_555
O3S C2 1_555 1_555
C1GA N1 1_555 1_555
C1SA N1 1_555 1_555
C5S C3 1_555 1_555
C5P C5 1_555 1_555
C6S C7 1_555 1_555
N1DA C1 1_555 1_555
Co1J O1S 1_555 1_555
Co1J O3S 1_555 1_555

#END
