
#######################################################################
#
#                 Cambridge Crystallographic Data Centre
#                                CCDC 
#
#######################################################################
#
# If this CIF has been generated from an entry in the Cambridge 
# Structural Database, then it will include bibliographic, chemical, 
# crystal, experimental, refinement or atomic coordinate data resulting 
# from the CCDC's data processing and validation procedures.
#
#######################################################################

data_WAVRAO
_chemical_name_common            CPM-21-Mn
_chemical_formula_moiety         '(C120 H90 In3 Mn3 N3 O30)n,3(C4 H9 N1 O1)'
_chemical_name_systematic        
'catena-(tetrakis(\m-benzene-1,3,5-triphenylcarboxylato)-tris(\m~3~-hydroxo)-tris(N,N-dimethylacetamide)-tri-indium-tri-manganese N,N-dimethylacetamide solvate)'
_symmetry_cell_setting           rhombohedral
_symmetry_space_group_name_H-M   'R -3'
_symmetry_Int_Tables_number      148
_space_group_name_Hall           '-R 3'
loop_
_symmetry_equiv_pos_site_id
_symmetry_equiv_pos_as_xyz
1 x,y,z
2 -y,x-y,z
3 -x+y,-x,z
4 2/3+x,1/3+y,1/3+z
5 2/3-y,1/3+x-y,1/3+z
6 2/3-x+y,1/3-x,1/3+z
7 1/3+x,2/3+y,2/3+z
8 1/3-y,2/3+x-y,2/3+z
9 1/3-x+y,2/3-x,2/3+z
10 -x,-y,-z
11 y,-x+y,-z
12 x-y,x,-z
13 1/3-x,2/3-y,2/3-z
14 1/3+y,2/3-x+y,2/3-z
15 1/3+x-y,2/3+x,2/3-z
16 2/3-x,1/3-y,1/3-z
17 2/3+y,1/3-x+y,1/3-z
18 2/3+x-y,1/3+x,1/3-z
_cell_length_a                   36.4998(4)
_cell_length_b                   36.4998(4)
_cell_length_c                   24.1865(7)
_cell_angle_alpha                90
_cell_angle_beta                 90
_cell_angle_gamma                120
_cell_volume                     27905.2
_exptl_crystal_colour            colorless
_exptl_crystal_description       block
_cell_formula_units_Z            6
loop_
_atom_site_label
_atom_site_type_symbol
_atom_site_fract_x
_atom_site_fract_y
_atom_site_fract_z
O1 O 0.5129(4) 0.2417(4) 1.0118(4)
N1 N 0.4753(4) 0.2461(5) 0.9472(5)
C1 C 0.4980(6) 0.2596(6) 0.9852(8)
C2 C 0.4625(5) 0.1955(5) 0.9321(6)
C3 C 0.4587(7) 0.2624(7) 0.9160(9)
C4 C 0.5098(6) 0.3097(6) 0.9974(7)
In1 In 0.359655(10) 0.131465(10) 0.770570(13)
Mn1 Mn 0.365420(19) 0.216950(18) 0.68434(2)
O2 O 0.42336(10) 0.21800(16) 0.70008(16)
O3 O 0.3727(3) 0.24799(14) 0.7618(2)
O4 O 0.20472(13) 0.26658(10) 1.30071(14)
O5 O 0.32917(13) 0.14629(11) 0.84192(14)
O6 O 0.36712(11) 0.11654(11) 0.86115(12)
O7 O 0.24003(10) 0.30778(10) 1.22862(15)
O8 O 0.42018(9) 0.18676(10) 0.78042(13)
O9 O 0.32711(8) 0.15568(8) 0.72309(11)
O10 O 0.21903(14) -0.0865(2) 1.3270(3)
O11 O 0.22743(19) -0.04569(16) 1.3953(3)
N2 N 0.3595(3) 0.2798(2) 0.8302(2)
C5 C 0.55306(13) 0.30080(15) 0.7226(2)
H1 H 0.5678 0.3256 0.7022
C6 C 0.2910(2) 0.14020(18) 1.0053(2)
H2 H 0.2717 0.1488 1.0145
C7 C 0.30536(18) 0.12411(17) 1.0458(2)
C8 C 0.28624(16) 0.08892(15) 1.1398(2)
H3 H 0.2912 0.0679 1.1263
C9 C 0.21800(16) 0.20227(15) 1.26012(19)
H4 H 0.1980 0.1950 1.2879
C10 C 0.28242(17) 0.15165(16) 1.1247(2)
H5 H 0.2855 0.1732 1.1013
C11 C 0.29159(17) 0.12177(16) 1.1049(2)
C12 C 0.27441(16) 0.05915(18) 1.2883(2)
H6 H 0.2875 0.0867 1.3018
C13 C 0.26656(14) 0.05215(14) 1.2325(2)
C14 C 0.27375(15) 0.08743(15) 1.1939(2)
C15 C 0.55247(13) 0.25145(14) 0.7884(2)
H7 H 0.5668 0.2427 0.8119
C16 C 0.27714(15) 0.22354(15) 1.1764(2)
H8 H 0.2973 0.2310 1.1487
C17 C 0.34385(15) 0.13053(16) 0.8757(2)
C18 C 0.26510(15) 0.11854(15) 1.2130(2)
H9 H 0.2567 0.1177 1.2495
C19 C 0.25771(15) 0.18266(15) 1.19862(19)
C20 C 0.26884(15) 0.15073(16) 1.1783(2)
C21 C 0.22844(16) 0.17251(16) 1.2411(2)
H10 H 0.2157 0.1457 1.2570
C22 C 0.43937(13) 0.21307(16) 0.74302(19)
C23 C 0.26662(16) 0.25294(14) 1.1952(2)
H11 H 0.2791 0.2797 1.1792
C24 C 0.23738(14) 0.24258(14) 1.23786(19)
C25 C 0.22612(15) 0.27479(14) 1.25750(18)
C26 C 0.50946(15) 0.27737(16) 0.7188(2)
H12 H 0.4952 0.2862 0.6954
C27 C 0.62240(12) 0.31146(13) 0.75764(18)
C28 C 0.50836(14) 0.22789(15) 0.78576(19)
H13 H 0.4935 0.2040 0.8077
C29 C 0.64445(13) 0.28937(13) 0.75775(19)
C30 C 0.57524(12) 0.28754(13) 0.75678(19)
C31 C 0.48669(13) 0.24051(15) 0.74993(18)
C32 C 0.24455(16) -0.01494(16) 1.3048(3)
C33 C 0.33145(17) 0.12834(17) 0.9359(2)
C34 C 0.34538(17) 0.11147(17) 0.9754(2)
H14 H 0.3631 0.1011 0.9656
C35 C 0.26306(18) 0.02572(18) 1.3246(2)
H15 H 0.2679 0.0308 1.3623
C36 C 0.24988(17) 0.01117(18) 1.2133(3)
H16 H 0.2460 0.0057 1.1756
C37 C 0.33299(18) 0.10963(17) 1.0306(2)
H17 H 0.3432 0.0987 1.0574
C38 C 0.3046(2) 0.14390(18) 0.9510(2)
H18 H 0.2960 0.1566 0.9247
C39 C 0.23881(17) -0.02215(19) 1.2507(3)
H19 H 0.2273 -0.0497 1.2375
C40 C 0.22899(19) -0.0512(2) 1.3471(4)
C41 C 0.3542(4) 0.3159(4) 0.8519(5)
C42 C 0.3776(3) 0.2777(3) 0.7814(4)
C43 C 0.3396(3) 0.2421(3) 0.8623(4)
C44 C 0.3886(4) 0.3193(4) 0.7430(6)
O2A O 0.78200(16) 0.20536(19) 0.70008(16)
O8A O 0.81324(10) 0.23342(13) 0.78042(13)
C5A C 0.69920(15) 0.25226(20) 0.7226(2)
H1A H 0.6744 0.2422 0.7022
C15A C 0.74855(14) 0.30102(19) 0.7884(2)
H7A H 0.7573 0.3241 0.8119
C22A C 0.78693(16) 0.22630(21) 0.74302(19)
C26A C 0.72263(16) 0.23209(22) 0.7188(2)
H12A H 0.7138 0.2090 0.6954
C27A C 0.68854(13) 0.31094(18) 0.75764(18)
C28A C 0.77211(15) 0.28047(21) 0.78576(19)
H13A H 0.7960 0.2895 0.8077
C29A C 0.71063(13) 0.35508(18) 0.75775(19)
C30A C 0.71246(13) 0.28770(18) 0.75678(19)
C31A C 0.75949(15) 0.24618(20) 0.74993(18)
O2B O 0.79464(19) 0.57664(10) 0.70008(16)
O8B O 0.76658(13) 0.57982(9) 0.78042(13)
C5B C 0.74774(20) 0.44694(13) 0.7226(2)
H1B H 0.7578 0.4322 0.7022
C15B C 0.69898(19) 0.44753(13) 0.7884(2)
H7B H 0.6759 0.4332 0.8119
C22B C 0.77370(21) 0.56063(13) 0.74302(19)
C26B C 0.76791(22) 0.49054(15) 0.7188(2)
H12B H 0.7910 0.5048 0.6954
C27B C 0.68906(18) 0.37760(12) 0.75764(18)
C28B C 0.71953(21) 0.49164(14) 0.78576(19)
H13B H 0.7105 0.5065 0.8077
C29B C 0.64492(18) 0.35555(13) 0.75775(19)
C30B C 0.71230(18) 0.42476(12) 0.75678(19)
C31B C 0.75382(20) 0.51331(13) 0.74993(18)
In1A In 0.868535(10) 0.228190(14) 0.770570(13)
Mn1A Mn 0.783050(18) 0.148470(26) 0.68434(2)
O3A O 0.75201(14) 0.12471(33) 0.7618(2)
O4A O 0.73342(10) -0.06186(16) 1.30071(14)
O5A O 0.85371(11) 0.18288(17) 0.84192(14)
O6A O 0.88346(11) 0.25058(16) 0.86115(12)
O7A O 0.69222(10) -0.06775(14) 1.22862(15)
O9A O 0.84432(8) 0.17143(11) 0.72309(11)
O10A O 1.0865(2) 0.30553(24) 1.3270(3)
O11A O 1.04569(16) 0.27312(25) 1.3953(3)
N2A N 0.7202(2) 0.0797(4) 0.8302(2)
C6A C 0.85980(18) 0.15080(27) 1.0053(2)
H2A H 0.8512 0.1229 1.0145
C7A C 0.87589(17) 0.18125(25) 1.0458(2)
C8A C 0.91108(15) 0.19732(22) 1.1398(2)
H3A H 0.9321 0.2233 1.1263
C9A C 0.79773(15) 0.01573(22) 1.26012(19)
H4A H 0.8050 0.0030 1.2879
C10A C 0.84835(16) 0.13077(23) 1.1247(2)
H5A H 0.8268 0.1123 1.1013
C11A C 0.87823(16) 0.16982(23) 1.1049(2)
C12A C 0.94085(18) 0.21526(24) 1.2883(2)
H6A H 0.9133 0.2008 1.3018
C13A C 0.94785(14) 0.21441(20) 1.2325(2)
C14A C 0.91257(15) 0.18632(21) 1.1939(2)
C16A C 0.77646(15) 0.05360(21) 1.1764(2)
H8A H 0.7690 0.0663 1.1487
C17A C 0.86947(16) 0.21332(22) 0.8757(2)
C18A C 0.88146(15) 0.14656(21) 1.2130(2)
H9A H 0.8823 0.1390 1.2495
C19A C 0.81734(15) 0.07505(21) 1.19862(19)
C20A C 0.84927(16) 0.11811(22) 1.1783(2)
C21A C 0.82749(16) 0.05593(23) 1.2411(2)
H10A H 0.8543 0.0700 1.2570
C23A C 0.74706(14) 0.01368(21) 1.1952(2)
H11A H 0.7203 -0.0006 1.1792
C24A C 0.75742(14) -0.00520(20) 1.23786(19)
C25A C 0.72521(14) -0.04867(21) 1.25750(18)
C32A C 1.01494(16) 0.25949(23) 1.3048(3)
C33A C 0.87166(17) 0.20311(24) 0.9359(2)
C34A C 0.88853(17) 0.23391(24) 0.9754(2)
H14A H 0.8989 0.2620 0.9656
C35A C 0.97428(18) 0.23734(25) 1.3246(2)
H15A H 0.9692 0.2371 1.3623
C36A C 0.98883(18) 0.23871(25) 1.2133(3)
H16A H 0.9943 0.2403 1.1756
C37A C 0.89037(17) 0.22336(25) 1.0306(2)
H17A H 0.9013 0.2445 1.0574
C38A C 0.85610(18) 0.16070(27) 0.9510(2)
H18A H 0.8434 0.1394 0.9247
C39A C 1.02215(19) 0.26096(25) 1.2507(3)
H19A H 1.0497 0.2770 1.2375
C40A C 1.0512(2) 0.28019(28) 1.3471(4)
C41A C 0.6841(4) 0.0383(6) 0.8519(5)
C42A C 0.7223(3) 0.0999(4) 0.7814(4)
C43A C 0.7579(3) 0.0975(4) 0.8623(4)
C44A C 0.6807(4) 0.0693(6) 0.7430(6)
In1B In 0.771810(14) 0.640345(10) 0.770570(13)
Mn1B Mn 0.851530(26) 0.634580(19) 0.68434(2)
O3B O 0.87529(33) 0.6273(3) 0.7618(2)
O4B O 1.06186(16) 0.79528(13) 1.30071(14)
O5B O 0.81712(17) 0.67083(13) 0.84192(14)
O6B O 0.74942(16) 0.63288(11) 0.86115(12)
O7B O 1.06775(14) 0.75997(10) 1.22862(15)
O9B O 0.82857(11) 0.67289(8) 0.72309(11)
O10B O 0.69447(24) 0.78097(14) 1.3270(3)
O11B O 0.72688(25) 0.77257(19) 1.3953(3)
N2B N 0.9203(4) 0.6405(3) 0.8302(2)
C6B C 0.84920(27) 0.7090(2) 1.0053(2)
H2B H 0.8771 0.7283 1.0145
C7B C 0.81875(25) 0.69464(18) 1.0458(2)
C8B C 0.80268(22) 0.71376(16) 1.1398(2)
H3B H 0.7767 0.7088 1.1263
C9B C 0.98427(22) 0.78200(16) 1.26012(19)
H4B H 0.9970 0.8020 1.2879
C10B C 0.86923(23) 0.71758(17) 1.1247(2)
H5B H 0.8877 0.7145 1.1013
C11B C 0.83018(23) 0.70841(17) 1.1049(2)
C12B C 0.78474(24) 0.72559(16) 1.2883(2)
H6B H 0.7992 0.7125 1.3018
C13B C 0.78559(20) 0.73344(14) 1.2325(2)
C14B C 0.81368(21) 0.72625(15) 1.1939(2)
C16B C 0.94640(21) 0.72286(15) 1.1764(2)
H8B H 0.9337 0.7027 1.1487
C17B C 0.78668(22) 0.65615(15) 0.8757(2)
C18B C 0.85344(21) 0.73490(15) 1.2130(2)
H9B H 0.8610 0.7433 1.2495
C19B C 0.92495(21) 0.74229(15) 1.19862(19)
C20B C 0.88189(22) 0.73116(15) 1.1783(2)
C21B C 0.94407(23) 0.77156(16) 1.2411(2)
H10B H 0.9300 0.7843 1.2570
C23B C 0.98632(21) 0.73338(16) 1.1952(2)
H11B H 1.0006 0.7209 1.1792
C24B C 1.00520(20) 0.76262(14) 1.23786(19)
C25B C 1.04867(21) 0.77388(15) 1.25750(18)
C32B C 0.74051(23) 0.75545(16) 1.3048(3)
C33B C 0.79689(24) 0.66855(17) 0.9359(2)
C34B C 0.76609(24) 0.65462(17) 0.9754(2)
H14B H 0.7380 0.6369 0.9656
C35B C 0.76266(25) 0.73694(18) 1.3246(2)
H15B H 0.7629 0.7321 1.3623
C36B C 0.76129(25) 0.75012(17) 1.2133(3)
H16B H 0.7597 0.7540 1.1756
C37B C 0.77664(25) 0.66701(18) 1.0306(2)
H17B H 0.7555 0.6568 1.0574
C38B C 0.83930(27) 0.6954(2) 0.9510(2)
H18B H 0.8606 0.7040 0.9247
C39B C 0.73904(25) 0.76119(17) 1.2507(3)
H19B H 0.7230 0.7727 1.2375
C40B C 0.71981(28) 0.77101(19) 1.3471(4)
C41B C 0.9617(6) 0.6458(4) 0.8519(5)
C42B C 0.9001(4) 0.6224(3) 0.7814(4)
C43B C 0.9025(4) 0.6604(3) 0.8623(4)
C44B C 0.9307(6) 0.6114(4) 0.7430(6)
In1F In 0.692988(10) 0.798132(10) 1.437237(13)
In1G In 0.201868(10) -0.105143(14) 1.437237(13)
In1H In 1.105143(14) 0.307012(10) 1.437237(13)
In1I In 0.640345(10) -0.131465(10) 1.229430(13)
In1J In 1.131465(10) 0.771810(14) 1.229430(13)
In1K In 0.228190(14) 0.359655(10) 1.229430(13)
Mn1F Mn 0.698753(19) -0.116383(18) 1.35101(2)
Mn1G Mn 1.116383(18) 0.815137(26) 1.35101(2)
Mn1H Mn 0.184863(26) 0.301247(19) 1.35101(2)
Mn1I Mn 0.634580(19) 0.783050(18) 1.31566(2)
Mn1J Mn 0.216950(18) -0.148470(26) 1.31566(2)
Mn1K Mn 1.148470(26) 0.365420(19) 1.31566(2)
Mn1O Mn 0.301247(19) 0.116383(18) 0.64899(2)
Mn1P Mn 0.883617(18) 0.184863(26) 0.64899(2)
Mn1Q Mn 0.815137(26) 0.698753(19) 0.64899(2)
O4C O 0.87139(13) 0.59991(10) 0.63404(14)
O4D O 0.40009(10) 0.27147(16) 0.63404(14)
O4E O 0.72853(16) 0.12861(13) 0.63404(14)
O7I O 0.75997(10) 0.69222(10) 0.77138(15)
O7J O 0.30778(10) 0.06775(14) 0.77138(15)
O7K O 0.93225(14) 0.24003(10) 0.77138(15)
O9O O 0.33956(8) 0.17765(8) 0.61024(11)
O9P O 0.82235(8) 0.16190(11) 0.61024(11)
O9Q O 0.83810(11) 0.66044(8) 0.61024(11)
O10I O 0.78097(14) 0.0865(2) 0.6730(3)
O10J O 0.9135(2) 0.69447(24) 0.6730(3)
O10K O 0.30553(24) 0.21903(14) 0.6730(3)
O11C O 0.89410(19) 0.28764(16) 0.7286(3)
O11D O 0.71236(16) 0.60645(25) 0.7286(3)
O11E O 0.39355(25) 0.10590(19) 0.7286(3)
loop_
_geom_bond_atom_site_label_1
_geom_bond_atom_site_label_2
_geom_bond_site_symmetry_1
_geom_bond_site_symmetry_2
O1 C1 1_555 1_555
N1 C1 1_555 1_555
C1 C4 1_555 1_555
C2 N1 1_555 1_555
C3 N1 1_555 1_555
In1 O5 1_555 1_555
Mn1 O2 1_555 1_555
O2 C22 1_555 1_555
O3 Mn1 1_555 1_555
O4 C25 1_555 1_555
O5 C17 1_555 1_555
O6 In1 1_555 1_555
O7 C25 1_555 1_555
O8 In1 1_555 1_555
O9 In1 1_555 1_555
O10 C40 1_555 1_555
O11 C40 1_555 1_555
N2 C41 1_555 1_555
C5 H1 1_555 1_555
C6 H2 1_555 1_555
C7 C6 1_555 1_555
C8 H3 1_555 1_555
C9 H4 1_555 1_555
C10 H5 1_555 1_555
C11 C7 1_555 1_555
C12 H6 1_555 1_555
C13 C12 1_555 1_555
C14 C8 1_555 1_555
C15 H7 1_555 1_555
C16 H8 1_555 1_555
C17 O6 1_555 1_555
C18 C14 1_555 1_555
H9 C18 1_555 1_555
C19 C16 1_555 1_555
C20 C10 1_555 1_555
C21 C9 1_555 1_555
H10 C21 1_555 1_555
C22 O8 1_555 1_555
C23 C16 1_555 1_555
H11 C23 1_555 1_555
C24 C9 1_555 1_555
C25 C24 1_555 1_555
C26 C5 1_555 1_555
H12 C26 1_555 1_555
C27 C29 1_555 1_555
C28 C15 1_555 1_555
H13 C28 1_555 1_555
C29 C27A 1_555 1_555
C30 C5 1_555 1_555
C31 C22 1_555 1_555
C32 C35 1_555 1_555
C33 C17 1_555 1_555
C34 C33 1_555 1_555
H14 C34 1_555 1_555
C35 C12 1_555 1_555
H15 C35 1_555 1_555
C36 C13 1_555 1_555
H16 C36 1_555 1_555
C37 C7 1_555 1_555
H17 C37 1_555 1_555
C38 C6 1_555 1_555
H18 C38 1_555 1_555
C39 C32 1_555 1_555
H19 C39 1_555 1_555
C40 C32 1_555 1_555
C42 O3 1_555 1_555
C43 N2 1_555 1_555
C44 C42 1_555 1_555
O2A C22A 1_555 1_555
O8A C22A 1_555 1_555
C5A H1A 1_555 1_555
C15A H7A 1_555 1_555
C22A C31A 1_555 1_555
C26A C5A 1_555 1_555
H12A C26A 1_555 1_555
C27A C29A 1_555 1_555
C28A C15A 1_555 1_555
H13A C28A 1_555 1_555
C29A C27B 1_555 1_555
C30A C5A 1_555 1_555
C31A C26A 1_555 1_555
O2B C22B 1_555 1_555
O8B C22B 1_555 1_555
C5B H1B 1_555 1_555
C15B H7B 1_555 1_555
C22B C31B 1_555 1_555
C26B C5B 1_555 1_555
H12B C26B 1_555 1_555
C27B C29B 1_555 1_555
C28B C15B 1_555 1_555
H13B C28B 1_555 1_555
C29B C27 1_555 1_555
C30B C5B 1_555 1_555
C31B C26B 1_555 1_555
In1A O8A 1_555 1_555
Mn1A O2A 1_555 1_555
O3A Mn1A 1_555 1_555
O4A C25A 1_555 1_555
O5A In1A 1_555 1_555
O6A In1A 1_555 1_555
O7A C25A 1_555 1_555
O9A In1A 1_555 1_555
O10A C40A 1_555 1_555
O11A C40A 1_555 1_555
N2A C41A 1_555 1_555
C6A H2A 1_555 1_555
C7A C6A 1_555 1_555
C8A H3A 1_555 1_555
C9A H4A 1_555 1_555
C10A H5A 1_555 1_555
C11A C7A 1_555 1_555
C12A H6A 1_555 1_555
C13A C12A 1_555 1_555
C14A C8A 1_555 1_555
C16A H8A 1_555 1_555
C17A O5A 1_555 1_555
C18A C14A 1_555 1_555
H9A C18A 1_555 1_555
C19A C16A 1_555 1_555
C20A C10A 1_555 1_555
C21A C9A 1_555 1_555
H10A C21A 1_555 1_555
C23A C16A 1_555 1_555
H11A C23A 1_555 1_555
C24A C9A 1_555 1_555
C25A C24A 1_555 1_555
C32A C35A 1_555 1_555
C33A C17A 1_555 1_555
C34A C33A 1_555 1_555
H14A C34A 1_555 1_555
C35A C12A 1_555 1_555
H15A C35A 1_555 1_555
C36A C13A 1_555 1_555
H16A C36A 1_555 1_555
C37A C7A 1_555 1_555
H17A C37A 1_555 1_555
C38A C6A 1_555 1_555
H18A C38A 1_555 1_555
C39A C32A 1_555 1_555
H19A C39A 1_555 1_555
C40A C32A 1_555 1_555
C42A O3A 1_555 1_555
C43A N2A 1_555 1_555
C44A C42A 1_555 1_555
In1B O8B 1_555 1_555
Mn1B O2B 1_555 1_555
O3B Mn1B 1_555 1_555
O4B C25B 1_555 1_555
O5B In1B 1_555 1_555
O6B In1B 1_555 1_555
O7B C25B 1_555 1_555
O9B In1B 1_555 1_555
O10B C40B 1_555 1_555
O11B C40B 1_555 1_555
N2B C41B 1_555 1_555
C6B H2B 1_555 1_555
C7B C6B 1_555 1_555
C8B H3B 1_555 1_555
C9B H4B 1_555 1_555
C10B H5B 1_555 1_555
C11B C7B 1_555 1_555
C12B H6B 1_555 1_555
C13B C12B 1_555 1_555
C14B C8B 1_555 1_555
C16B H8B 1_555 1_555
C17B O5B 1_555 1_555
C18B C14B 1_555 1_555
H9B C18B 1_555 1_555
C19B C16B 1_555 1_555
C20B C10B 1_555 1_555
C21B C9B 1_555 1_555
H10B C21B 1_555 1_555
C23B C16B 1_555 1_555
H11B C23B 1_555 1_555
C24B C9B 1_555 1_555
C25B C24B 1_555 1_555
C32B C35B 1_555 1_555
C33B C17B 1_555 1_555
C34B C33B 1_555 1_555
H14B C34B 1_555 1_555
C35B C12B 1_555 1_555
H15B C35B 1_555 1_555
C36B C13B 1_555 1_555
H16B C36B 1_555 1_555
C37B C7B 1_555 1_555
H17B C37B 1_555 1_555
C38B C6B 1_555 1_555
H18B C38B 1_555 1_555
C39B C32B 1_555 1_555
H19B C39B 1_555 1_555
C40B C32B 1_555 1_555
C42B O3B 1_555 1_555
C43B N2B 1_555 1_555
C44B C42B 1_555 1_555
In1F O11B 1_555 1_555
In1G O11 1_555 1_555
In1H O11A 1_555 1_555
In1I O7A 1_555 1_555
In1J O7B 1_555 1_555
In1K O7 1_555 1_555
Mn1F O4A 1_555 1_555
Mn1G O4B 1_555 1_555
Mn1H O4 1_555 1_555
Mn1I O10B 1_555 1_555
Mn1J O10 1_555 1_555
Mn1K O10A 1_555 1_555
Mn1O O9 1_555 1_555
Mn1P O9A 1_555 1_555
Mn1Q O9B 1_555 1_555
O4C Mn1B 1_555 1_555
O4D Mn1 1_555 1_555
O4E Mn1A 1_555 1_555
O7I In1B 1_555 1_555
O7J In1 1_555 1_555
O7K In1A 1_555 1_555
O9O Mn1 1_555 1_555
O9P Mn1A 1_555 1_555
O9Q Mn1B 1_555 1_555
O10I Mn1A 1_555 1_555
O10J Mn1B 1_555 1_555
O10K Mn1 1_555 1_555
O11C In1A 1_555 1_555
O11D In1B 1_555 1_555
O11E In1 1_555 1_555
Mn1 O9 1_555 1_555
N2 C42 1_555 1_555
C8 C11 1_555 1_555
C10 C11 1_555 1_555
C13 C14 1_555 1_555
C15 C30 1_555 1_555
C18 C20 1_555 1_555
C19 C20 1_555 1_555
C19 C21 1_555 1_555
C23 C24 1_555 1_555
C26 C31 1_555 1_555
C27 C30 1_555 1_555
C28 C31 1_555 1_555
C33 C38 1_555 1_555
C34 C37 1_555 1_555
C36 C39 1_555 1_555
C15A C30A 1_555 1_555
C27A C30A 1_555 1_555
C28A C31A 1_555 1_555
C15B C30B 1_555 1_555
C27B C30B 1_555 1_555
C28B C31B 1_555 1_555
Mn1A O9A 1_555 1_555
O6A C17A 1_555 1_555
N2A C42A 1_555 1_555
C8A C11A 1_555 1_555
C10A C11A 1_555 1_555
C13A C14A 1_555 1_555
C18A C20A 1_555 1_555
C19A C20A 1_555 1_555
C19A C21A 1_555 1_555
C23A C24A 1_555 1_555
C33A C38A 1_555 1_555
C34A C37A 1_555 1_555
C36A C39A 1_555 1_555
Mn1B O9B 1_555 1_555
O6B C17B 1_555 1_555
N2B C42B 1_555 1_555
C8B C11B 1_555 1_555
C10B C11B 1_555 1_555
C13B C14B 1_555 1_555
C18B C20B 1_555 1_555
C19B C20B 1_555 1_555
C19B C21B 1_555 1_555
C23B C24B 1_555 1_555
C33B C38B 1_555 1_555
C34B C37B 1_555 1_555
C36B C39B 1_555 1_555
Mn1O O9O 1_555 1_555
Mn1P O9P 1_555 1_555
Mn1Q O9Q 1_555 1_555

#END
