
#######################################################################
#
#                 Cambridge Crystallographic Data Centre
#                                CCDC 
#
#######################################################################
#
# If this CIF has been generated from an entry in the Cambridge 
# Structural Database, then it will include bibliographic, chemical, 
# crystal, experimental, refinement or atomic coordinate data resulting 
# from the CCDC's data processing and validation procedures.
#
#######################################################################

data_PIDMEV
_chemical_formula_moiety         '(C46 H36 N2 O14 Zn3)n,4n(C2 H6 O1)'
_chemical_name_systematic        
"catena-(bis(\m~6~-4,4',4''-Nitrilotris(benzoato))-bis(ethanol)-tri-zinc tetrakis(ethanol) clathrate)"
_symmetry_cell_setting           monoclinic
_symmetry_space_group_name_H-M   'C 2/c'
_symmetry_Int_Tables_number      15
_space_group_name_Hall           '-C 2yc'
loop_
_symmetry_equiv_pos_site_id
_symmetry_equiv_pos_as_xyz
1 x,y,z
2 1/2+x,1/2+y,z
3 -x,y,1/2-z
4 1/2-x,1/2+y,1/2-z
5 -x,-y,-z
6 1/2-x,1/2-y,-z
7 x,-y,1/2+z
8 1/2+x,1/2-y,1/2+z
_cell_length_a                   15.7334(5)
_cell_length_b                   25.0527(9)
_cell_length_c                   16.8171(4)
_cell_angle_alpha                90
_cell_angle_beta                 113.526(2)
_cell_angle_gamma                90
_cell_volume                     6077.71
_exptl_crystal_colour            brown
_exptl_crystal_description       rod-shape
_cell_formula_units_Z            4
loop_
_atom_site_label
_atom_site_type_symbol
_atom_site_fract_x
_atom_site_fract_y
_atom_site_fract_z
Zn1 Zn -0.23612(4) 0.30516(2) 0.06891(4)
Zn2 Zn 0.0000 0.32908(2) 0.2500
N1 N -0.1673(2) 0.62984(13) 0.1036(2)
O1 O -0.0702(2) 0.38270(12) 0.1626(2)
O2 O -0.2236(2) 0.37696(12) 0.1181(2)
O3 O -0.4297(2) 0.79127(12) 0.1947(2)
O4 O -0.3527(2) 0.75756(13) 0.3247(2)
O5 O 0.1555(3) 0.70363(18) -0.0084(3)
O6 O 0.1550(2) 0.77180(17) 0.0742(3)
C1 C -0.1494(3) 0.40331(16) 0.1388(3)
C2 C -0.1555(3) 0.46265(15) 0.1319(3)
C3 C -0.0759(3) 0.49218(16) 0.1481(3)
H1 H -0.0193 0.4747 0.1649
C4 C -0.0789(3) 0.54621(16) 0.1401(3)
H2 H -0.0244 0.5651 0.1517
C5 C -0.1625(3) 0.57374(15) 0.1147(3)
C6 C -0.2433(3) 0.54461(17) 0.0993(3)
H3 H -0.2999 0.5621 0.0829
C7 C -0.2387(3) 0.48918(16) 0.1086(3)
H4 H -0.2924 0.4699 0.0989
C8 C -0.3702(3) 0.76039(16) 0.2454(3)
C9 C -0.3209(3) 0.72432(15) 0.2062(3)
C10 C -0.3280(3) 0.73205(17) 0.1226(3)
H5 H -0.3668 0.7587 0.0888
C11 C -0.2787(3) 0.70090(16) 0.0881(3)
H6 H -0.2834 0.7070 0.0320
C12 C -0.2221(3) 0.66044(15) 0.1376(3)
C13 C -0.2165(3) 0.65153(18) 0.2211(3)
H7 H -0.1799 0.6239 0.2542
C14 C -0.2648(3) 0.68333(17) 0.2548(3)
H8 H -0.2599 0.6774 0.3111
C15 C 0.1228(3) 0.7289(2) 0.0365(3)
C16 C 0.0439(3) 0.70450(17) 0.0510(3)
C17 C 0.0014(3) 0.65918(17) 0.0067(3)
H9 H 0.0210 0.6443 -0.0337
C18 C -0.0703(3) 0.63550(16) 0.0217(3)
H10 H -0.0997 0.6055 -0.0098
C19 C -0.0984(3) 0.65653(15) 0.0838(3)
C20 C -0.0592(3) 0.70374(17) 0.1255(3)
H11 H -0.0802 0.7193 0.1646
C21 C 0.0112(3) 0.72757(19) 0.1087(3)
H12 H 0.0370 0.7594 0.1362
O7 O -0.3335(4) 0.3397(3) -0.0598(3)
C22 C -0.4306(9) 0.3501(7) -0.0971(9)
H13 H -0.4422 0.3727 -0.1472
H14 H -0.4610 0.3163 -0.1191
C23 C -0.4716(17) 0.3704(9) -0.0561(17)
H15 H -0.4273 0.3836 -0.0017
H16 H -0.5103 0.3442 -0.0455
H17 H -0.5092 0.3994 -0.0888
Zn1B Zn 0.23612(4) 0.30516(2) 0.43109(4)
Zn1C Zn -0.26388(4) 0.80516(2) 0.43109(4)
Zn1D Zn 0.23612(4) 0.69484(2) -0.06891(4)
Zn1A Zn 0.26388(4) 0.80516(2) 0.06891(4)
Zn1F Zn -0.23612(4) 0.69484(2) 0.56891(4)
Zn2A Zn -0.5000 0.82908(2) 0.2500
Zn2A_2 Zn 0.5000 0.82908(2) 0.2500
N1B N 0.1673(2) 0.62984(13) 0.3964(2)
O1B O 0.0702(2) 0.38270(12) 0.3374(2)
O2B O 0.2236(2) 0.37696(12) 0.3819(2)
O3B O 0.4297(2) 0.79127(12) 0.3053(2)
O3A O 0.0703(2) 0.29127(12) 0.1947(2)
O3C O -0.0703(2) 0.29127(12) 0.3053(2)
O4B O 0.3527(2) 0.75756(13) 0.1753(2)
O4C O -0.1473(2) 0.25756(13) 0.1753(2)
O4A O 0.1473(2) 0.25756(13) 0.3247(2)
O5B O -0.1555(3) 0.70363(18) 0.5084(3)
O5D O -0.1555(3) 0.29637(18) 0.0084(3)
O5F O 0.1555(3) 0.29637(18) 0.4916(3)
O6B O -0.1550(2) 0.77180(17) 0.4258(3)
O6A O -0.3450(2) 0.27180(17) 0.0742(3)
O6C O 0.3450(2) 0.27180(17) 0.4258(3)
C1B C 0.1494(3) 0.40331(16) 0.3612(3)
C2B C 0.1555(3) 0.46265(15) 0.3681(3)
C3B C 0.0759(3) 0.49218(16) 0.3519(3)
H1B H 0.0193 0.4747 0.3351
C4B C 0.0789(3) 0.54621(16) 0.3599(3)
H2B H 0.0244 0.5651 0.3483
C5B C 0.1625(3) 0.57374(15) 0.3853(3)
C6B C 0.2433(3) 0.54461(17) 0.4007(3)
H3B H 0.2999 0.5621 0.4171
C7B C 0.2387(3) 0.48918(16) 0.3914(3)
H4B H 0.2924 0.4699 0.4011
C8B C 0.3702(3) 0.76039(16) 0.2546(3)
C9B C 0.3209(3) 0.72432(15) 0.2938(3)
C10B C 0.3280(3) 0.73205(17) 0.3774(3)
H5B H 0.3668 0.7587 0.4112
C11B C 0.2787(3) 0.70090(16) 0.4119(3)
H6B H 0.2834 0.7070 0.4680
C12B C 0.2221(3) 0.66044(15) 0.3624(3)
C13B C 0.2165(3) 0.65153(18) 0.2789(3)
H7B H 0.1799 0.6239 0.2458
C14B C 0.2648(3) 0.68333(17) 0.2452(3)
H8B H 0.2599 0.6774 0.1889
C15B C -0.1228(3) 0.7289(2) 0.4635(3)
C16B C -0.0439(3) 0.70450(17) 0.4490(3)
C17B C -0.0014(3) 0.65918(17) 0.4933(3)
H9B H -0.0210 0.6443 0.5337
C18B C 0.0703(3) 0.63550(16) 0.4783(3)
H10B H 0.0997 0.6055 0.5098
C19B C 0.0984(3) 0.65653(15) 0.4162(3)
C20B C 0.0592(3) 0.70374(17) 0.3745(3)
H11B H 0.0802 0.7193 0.3354
C21B C -0.0112(3) 0.72757(19) 0.3913(3)
H12B H -0.0370 0.7594 0.3638
O7B O 0.3335(4) 0.3397(3) 0.5598(3)
C22B C 0.4306(9) 0.3501(7) 0.5971(9)
H13B H 0.4422 0.3727 0.6472
H14B H 0.4610 0.3163 0.6191
C23B C 0.4716(17) 0.3704(9) 0.5561(17)
H15B H 0.4273 0.3836 0.5017
H16B H 0.5103 0.3442 0.5455
H17B H 0.5092 0.3994 0.5888
O8 O 0.3429(13) 0.0051(8) 0.3754(12)
C24 C 0.315(2) 0.0626(12) 0.4100(18)
H18 H 0.3365 0.0649 0.4725
H19 H 0.3325 0.0941 0.3866
C25 C 0.2334(16) 0.0514(9) 0.3738(14)
H20 H 0.2254 0.0137 0.3783
H21 H 0.2114 0.0613 0.3137
H22 H 0.1988 0.0704 0.4006
O9 O -0.326(2) 0.3572(10) 0.3499(19)
C26 C -0.3153(17) 0.3519(10) 0.2789(19)
H23 H -0.2518 0.3406 0.2938
H24 H -0.3548 0.3227 0.2473
C27 C -0.3306(16) 0.3905(10) 0.2272(15)
H25 H -0.3892 0.4064 0.2185
H26 H -0.3321 0.3779 0.1728
H27 H -0.2823 0.4165 0.2510
loop_
_geom_bond_atom_site_label_1
_geom_bond_atom_site_label_2
_geom_bond_site_symmetry_1
_geom_bond_site_symmetry_2
Zn1 O2 1_555 1_555
Zn2 O1 1_555 1_555
N1 C5 1_555 1_555
O1 C1 1_555 1_555
O2 C1 1_555 1_555
O3 C8 1_555 1_555
O4 C8 1_555 1_555
O5 C15 1_555 1_555
O6 C15 1_555 1_555
C1 C2 1_555 1_555
C2 C3 1_555 1_555
C3 H1 1_555 1_555
C4 C3 1_555 1_555
H2 C4 1_555 1_555
C5 C4 1_555 1_555
C6 C5 1_555 1_555
H3 C6 1_555 1_555
C7 C2 1_555 1_555
H4 C7 1_555 1_555
C8 C9 1_555 1_555
C9 C10 1_555 1_555
C10 H5 1_555 1_555
C11 C10 1_555 1_555
H6 C11 1_555 1_555
C12 N1 1_555 1_555
C13 C12 1_555 1_555
H7 C13 1_555 1_555
C14 C9 1_555 1_555
H8 C14 1_555 1_555
C15 C16 1_555 1_555
C16 C17 1_555 1_555
C17 H9 1_555 1_555
C18 C17 1_555 1_555
H10 C18 1_555 1_555
C19 N1 1_555 1_555
C20 C19 1_555 1_555
H11 C20 1_555 1_555
C21 C16 1_555 1_555
H12 C21 1_555 1_555
O7 Zn1 1_555 1_555
C22 O7 1_555 1_555
H13 C22 1_555 1_555
H14 C22 1_555 1_555
C23 C22 1_555 1_555
H15 C23 1_555 1_555
H16 C23 1_555 1_555
H17 C23 1_555 1_555
O8 C24 1_555 1_555
C24 H18 1_555 1_555
H19 C24 1_555 1_555
C25 C24 1_555 1_555
H20 C25 1_555 1_555
H21 C25 1_555 1_555
H22 C25 1_555 1_555
O9 C26 1_555 1_555
C26 H23 1_555 1_555
H24 C26 1_555 1_555
C27 C26 1_555 1_555
H25 C27 1_555 1_555
H26 C27 1_555 1_555
H27 C27 1_555 1_555
Zn1B O2B 1_555 1_555
Zn1C O4 1_555 1_555
Zn1D O5 1_555 1_555
Zn1A O6 1_555 1_555
Zn1F O5B 1_555 1_555
Zn2A O3 1_555 1_555
Zn2A_2 O3B 1_555 1_555
N1B C5B 1_555 1_555
O1B Zn2 1_555 1_555
O2B C1B 1_555 1_555
O3B C8B 1_555 1_555
O3A Zn2 1_555 1_555
O3C Zn2 1_555 1_555
O4B Zn1A 1_555 1_555
O4C Zn1 1_555 1_555
O4A Zn1B 1_555 1_555
O5B C15B 1_555 1_555
O5D Zn1 1_555 1_555
O5F Zn1B 1_555 1_555
O6B Zn1C 1_555 1_555
O6A Zn1 1_555 1_555
O6C Zn1B 1_555 1_555
C1B O1B 1_555 1_555
C2B C1B 1_555 1_555
C3B C2B 1_555 1_555
H1B C3B 1_555 1_555
C4B C3B 1_555 1_555
H2B C4B 1_555 1_555
C5B C4B 1_555 1_555
C6B C5B 1_555 1_555
H3B C6B 1_555 1_555
C7B C2B 1_555 1_555
H4B C7B 1_555 1_555
C8B O4B 1_555 1_555
C9B C8B 1_555 1_555
C10B C9B 1_555 1_555
H5B C10B 1_555 1_555
C11B C10B 1_555 1_555
H6B C11B 1_555 1_555
C12B N1B 1_555 1_555
C13B C12B 1_555 1_555
H7B C13B 1_555 1_555
C14B C9B 1_555 1_555
H8B C14B 1_555 1_555
C15B O6B 1_555 1_555
C16B C15B 1_555 1_555
C17B C16B 1_555 1_555
H9B C17B 1_555 1_555
C18B C17B 1_555 1_555
H10B C18B 1_555 1_555
C19B N1B 1_555 1_555
C20B C19B 1_555 1_555
H11B C20B 1_555 1_555
C21B C16B 1_555 1_555
H12B C21B 1_555 1_555
O7B Zn1B 1_555 1_555
C22B O7B 1_555 1_555
H13B C22B 1_555 1_555
H14B C22B 1_555 1_555
C23B C22B 1_555 1_555
H15B C23B 1_555 1_555
H16B C23B 1_555 1_555
H17B C23B 1_555 1_555
C6 C7 1_555 1_555
C11 C12 1_555 1_555
C13 C14 1_555 1_555
C18 C19 1_555 1_555
C20 C21 1_555 1_555
C6B C7B 1_555 1_555
C11B C12B 1_555 1_555
C13B C14B 1_555 1_555
C18B C19B 1_555 1_555
C20B C21B 1_555 1_555

#END
