
#######################################################################
#
#                 Cambridge Crystallographic Data Centre
#                                CCDC 
#
#######################################################################
#
# If this CIF has been generated from an entry in the Cambridge 
# Structural Database, then it will include bibliographic, chemical, 
# crystal, experimental, refinement or atomic coordinate data resulting 
# from the CCDC's data processing and validation procedures.
#
#######################################################################

data_DUMMUV
_chemical_formula_moiety         '(C38 H24 Cu2 N2 O8 Si1)n,n(H2 O1)'
_chemical_name_systematic        
"catena-[(\m-4,4'-bipyridine)-(\m-tetrakis(4-carboxylatophenyl)silane)-di-copper unknown solvate monohydrate]"
_symmetry_cell_setting           tetragonal
_symmetry_space_group_name_H-M   'P 42/m c m'
_symmetry_Int_Tables_number      132
_space_group_name_Hall           '-P 4c 2c'
loop_
_symmetry_equiv_pos_site_id
_symmetry_equiv_pos_as_xyz
1 x,y,z
2 -y,x,1/2+z
3 -x,-y,z
4 y,-x,1/2+z
5 x,-y,1/2-z
6 y,x,-z
7 -x,y,1/2-z
8 -y,-x,-z
9 -x,-y,-z
10 y,-x,1/2-z
11 x,y,-z
12 -y,x,1/2-z
13 -x,y,1/2+z
14 -y,-x,z
15 x,-y,1/2+z
16 y,x,z
_cell_length_a                   9.7078(3)
_cell_length_b                   9.7078(3)
_cell_length_c                   21.7592(15)
_cell_angle_alpha                90
_cell_angle_beta                 90
_cell_angle_gamma                90
_cell_volume                     2050.62
_exptl_crystal_colour            blue
_exptl_crystal_description       cubic
_cell_formula_units_Z            2
_chemical_properties_physical    'Air-sensitive, Moisture-sensitive'
_exptl_crystal_recrystallization_method water
_exptl_crystal_preparation       'Magnetic properties'
loop_
_atom_site_label
_atom_site_type_symbol
_atom_site_fract_x
_atom_site_fract_y
_atom_site_fract_z
O2 O 0.5000 0.5000 0.2500
C1 C 0.3658(4) 0.3658(4) 0.0810(2)
C2 C 0.2775(3) 0.2775(3) 0.1227(2)
C3 C 0.1111(3) 0.1111(3) 0.1984(2)
C4 C 0.0527(5) 0.9473(5) 0.0000
Cu1 Cu 0.40604(5) 0.59397(5) 0.0000
N1 N 0.2541(4) 0.7459(4) 0.0000
O1 O 0.3188(3) 0.4784(3) 0.06424(14)
Si1 Si 0.0000 0.0000 0.2500
C5 C 0.2987(12) 0.1385(11) 0.1278(7)
H1 H 0.3706 0.0974 0.1063
C6 C 0.2155(13) 0.0593(9) 0.1641(7)
H2 H 0.2314 -0.0351 0.1654
C7 C 0.130(9) 0.722(8) -0.032(4)
H3 H 0.0901 0.6387 -0.0607
C8 C 0.030(8) 0.823(6) -0.030(5)
H4 H -0.0266 0.8139 -0.0639
C9 C 0.3357(11) 0.1702(12) 0.1563(8)
H5 H 0.4298 0.1536 0.1536
C10 C 0.2552(11) 0.0885(12) 0.1937(8)
H6 H 0.2957 0.0178 0.2161
C1B C -0.3658(4) -0.3658(4) 0.0810(2)
C2B C -0.2775(3) -0.2775(3) 0.1227(2)
C3B C -0.1111(3) -0.1111(3) 0.1984(2)
O1B O -0.3188(3) -0.4784(3) 0.06424(14)
C5B C -0.2987(12) -0.1385(11) 0.1278(7)
H1B H -0.3706 -0.0974 0.1063
C6B C -0.2155(13) -0.0593(9) 0.1641(7)
H2B H -0.2314 0.0351 0.1654
C9B C -0.3357(11) -0.1702(12) 0.1563(8)
H5B H -0.4298 -0.1536 0.1536
C10B C -0.2552(11) -0.0885(12) 0.1937(8)
H6B H -0.2957 -0.0178 0.2161
C1D C 0.3658(4) -0.3658(4) 0.4190(2)
C2D C 0.2775(3) -0.2775(3) 0.3773(2)
C3D C 0.1111(3) -0.1111(3) 0.3016(2)
O1D O 0.3188(3) -0.4784(3) 0.43576(14)
C5D C 0.2987(12) -0.1385(11) 0.3722(7)
H1D H 0.3706 -0.0974 0.3937
C6D C 0.2155(13) -0.0593(9) 0.3359(7)
H2D H 0.2314 0.0351 0.3346
C9D C 0.3357(11) -0.1702(12) 0.3437(8)
H5D H 0.4298 -0.1536 0.3464
C10D C 0.2552(11) -0.0885(12) 0.3063(8)
H6D H 0.2957 -0.0178 0.2839
C1F C -0.3658(4) 0.3658(4) 0.4190(2)
C2F C -0.2775(3) 0.2775(3) 0.3773(2)
C3F C -0.1111(3) 0.1111(3) 0.3016(2)
O1F O -0.3188(3) 0.4784(3) 0.43576(14)
C5F C -0.2987(12) 0.1385(11) 0.3722(7)
H1F H -0.3706 0.0974 0.3937
C6F C -0.2155(13) 0.0593(9) 0.3359(7)
H2F H -0.2314 -0.0351 0.3346
C9F C -0.3357(11) 0.1702(12) 0.3437(8)
H5F H -0.4298 0.1536 0.3464
C10F C -0.2552(11) 0.0885(12) 0.3063(8)
H6F H -0.2957 0.0178 0.2839
O1I O 0.4784(3) -0.3188(3) 0.43576(14)
C5I C 0.1385(11) -0.2987(12) 0.3722(7)
H1I H 0.0974 -0.3706 0.3937
C6I C 0.0593(9) -0.2155(13) 0.3359(7)
H2I H -0.0351 -0.2314 0.3346
C9I C 0.1702(12) -0.3357(11) 0.3437(8)
H5I H 0.1536 -0.4298 0.3464
C10I C 0.0885(12) -0.2552(11) 0.3063(8)
H6I H 0.0178 -0.2957 0.2839
O1K O -0.4784(3) 0.3188(3) 0.43576(14)
C5K C -0.1385(11) 0.2987(12) 0.3722(7)
H1K H -0.0974 0.3706 0.3937
C6K C -0.0593(9) 0.2155(13) 0.3359(7)
H2K H 0.0351 0.2314 0.3346
C9K C -0.1702(12) 0.3357(11) 0.3437(8)
H5K H -0.1536 0.4298 0.3464
C10K C -0.0885(12) 0.2552(11) 0.3063(8)
H6K H -0.0178 0.2957 0.2839
O1M O -0.4784(3) -0.3188(3) 0.06424(14)
C5M C -0.1385(11) -0.2987(12) 0.1278(7)
H1M H -0.0974 -0.3706 0.1063
C6M C -0.0593(9) -0.2155(13) 0.1641(7)
H2M H 0.0351 -0.2314 0.1654
C9M C -0.1702(12) -0.3357(11) 0.1563(8)
H5M H -0.1536 -0.4298 0.1536
C10M C -0.0885(12) -0.2552(11) 0.1937(8)
H6M H -0.0178 -0.2957 0.2161
O1O O 0.4784(3) 0.3188(3) 0.06424(14)
C5O C 0.1385(11) 0.2987(12) 0.1278(7)
H1O H 0.0974 0.3706 0.1063
C6O C 0.0593(9) 0.2155(13) 0.1641(7)
H2O H -0.0351 0.2314 0.1654
C9O C 0.1702(12) 0.3357(11) 0.1563(8)
H5O H 0.1536 0.4298 0.1536
C10O C 0.0885(12) 0.2552(11) 0.1937(8)
H6O H 0.0178 0.2957 0.2161
C4B C -0.0527(5) 1.0527(5) 0.0000
N1B N -0.2541(4) 1.2541(4) 0.0000
C7B C -0.130(9) 1.278(8) -0.032(4)
H3B H -0.0901 1.3613 -0.0607
C8B C -0.030(8) 1.177(6) -0.030(5)
H4B H 0.0266 1.1861 -0.0639
C7E C -0.278(8) 1.130(9) 0.032(4)
H3E H -0.3613 1.0901 0.0607
C8E C -0.177(6) 1.030(8) 0.030(5)
H4E H -0.1861 0.9734 0.0639
C7G C 0.278(8) 0.870(9) 0.032(4)
H3G H 0.3613 0.9099 0.0607
C8G C 0.177(6) 0.970(8) 0.030(5)
H4G H 0.1861 1.0266 0.0639
C7H C -0.130(9) 1.278(8) 0.032(4)
H3H H -0.0901 1.3613 0.0607
C8H C -0.030(8) 1.177(6) 0.030(5)
H4H H 0.0266 1.1861 0.0639
C7J C 0.130(9) 0.722(8) 0.032(4)
H3J H 0.0901 0.6387 0.0607
C8J C 0.030(8) 0.823(6) 0.030(5)
H4J H -0.0266 0.8139 0.0639
C7M C 0.278(8) 0.870(9) -0.032(4)
H3M H 0.3613 0.9099 -0.0607
C8M C 0.177(6) 0.970(8) -0.030(5)
H4M H 0.1861 1.0266 -0.0639
C7O C -0.278(8) 1.130(9) -0.032(4)
H3O H -0.3613 1.0901 -0.0607
C8O C -0.177(6) 1.030(8) -0.030(5)
H4O H -0.1861 0.9734 -0.0639
Cu1B Cu 0.59396(5) 0.40603(5) 0.0000
Cu1_2 Cu -0.59396(5) -0.40603(5) 0.0000
Cu1A Cu -0.59397(5) 0.40604(5) 0.5000
Cu1A_2 Cu 0.40603(5) -0.59396(5) 0.5000
Cu1B_2 Cu -0.40604(5) -0.59397(5) 0.0000
Cu1B_3 Cu -0.40604(5) 1.40603(5) 0.0000
Cu1C Cu -0.40603(5) 0.59396(5) 0.5000
Cu1C_2 Cu 0.59397(5) -0.40604(5) 0.5000
N1B_2 N 0.7459(4) 0.2541(4) 0.0000
O1B_2 O 0.6812(3) 0.5216(3) 0.06424(14)
O1E O 0.4784(3) 0.3188(3) -0.06424(14)
O1G O 0.5216(3) 0.6812(3) -0.06424(14)
O1H O 0.6812(3) 0.5216(3) -0.06424(14)
O1J O 0.3188(3) 0.4784(3) -0.06424(14)
O1M_2 O 0.5216(3) 0.6812(3) 0.06424(14)
H7? H 0.5305 0.5836 0.2692
C11? C 0.128(10) 0.715(8) 0.011(8)
C12? C 0.027(9) 0.807(8) 0.011(5)
H8? H 0.1122 0.6218 -0.0151
H9? H -0.0506 0.7602 -0.0109
loop_
_geom_bond_atom_site_label_1
_geom_bond_atom_site_label_2
_geom_bond_site_symmetry_1
_geom_bond_site_symmetry_2
C1 C2 1_555 1_555
C2 C5 1_555 1_555
C3 Si1 1_555 1_555
C4 C8 1_555 1_555
Cu1 N1 1_555 1_555
N1 C7 1_555 1_555
O1 C1 1_555 1_555
Si1 C3B 1_555 1_555
C5 H1 1_555 1_555
C6 C3 1_555 1_555
H2 C6 1_555 1_555
C7 H3 1_555 1_555
C8 C7 1_555 1_555
H4 C8 1_555 1_555
C9 C2 1_555 1_555
H5 C9 1_555 1_555
C10 C3 1_555 1_555
H6 C10 1_555 1_555
C1B C2B 1_555 1_555
C2B C5B 1_555 1_555
C3B C6B 1_555 1_555
O1B C1B 1_555 1_555
C5B H1B 1_555 1_555
C6B C5B 1_555 1_555
H2B C6B 1_555 1_555
C9B C2B 1_555 1_555
H5B C9B 1_555 1_555
C10B C3B 1_555 1_555
H6B C10B 1_555 1_555
C1D C2D 1_555 1_555
C2D C5D 1_555 1_555
C3D Si1 1_555 1_555
O1D C1D 1_555 1_555
C5D H1D 1_555 1_555
C6D C3D 1_555 1_555
H2D C6D 1_555 1_555
C9D C2D 1_555 1_555
H5D C9D 1_555 1_555
C10D C3D 1_555 1_555
H6D C10D 1_555 1_555
C1F C2F 1_555 1_555
C2F C5F 1_555 1_555
C3F Si1 1_555 1_555
O1F C1F 1_555 1_555
C5F H1F 1_555 1_555
C6F C3F 1_555 1_555
H2F C6F 1_555 1_555
C9F C2F 1_555 1_555
H5F C9F 1_555 1_555
C10F C3F 1_555 1_555
H6F C10F 1_555 1_555
O1I C1D 1_555 1_555
C5I C2D 1_555 1_555
H1I C5I 1_555 1_555
C6I C3D 1_555 1_555
H2I C6I 1_555 1_555
C9I C2D 1_555 1_555
H5I C9I 1_555 1_555
C10I C3D 1_555 1_555
H6I C10I 1_555 1_555
O1K C1F 1_555 1_555
C5K C2F 1_555 1_555
H1K C5K 1_555 1_555
C6K C3F 1_555 1_555
H2K C6K 1_555 1_555
C9K C2F 1_555 1_555
H5K C9K 1_555 1_555
C10K C3F 1_555 1_555
H6K C10K 1_555 1_555
O1M C1B 1_555 1_555
C5M C2B 1_555 1_555
H1M C5M 1_555 1_555
C6M C3B 1_555 1_555
H2M C6M 1_555 1_555
C9M C2B 1_555 1_555
H5M C9M 1_555 1_555
C10M C3B 1_555 1_555
H6M C10M 1_555 1_555
O1O C1 1_555 1_555
C5O C2 1_555 1_555
H1O C5O 1_555 1_555
C6O C3 1_555 1_555
H2O C6O 1_555 1_555
C9O C2 1_555 1_555
H5O C9O 1_555 1_555
C10O C3 1_555 1_555
H6O C10O 1_555 1_555
C4B C4 1_555 1_555
N1B C7B 1_555 1_555
C7B H3B 1_555 1_555
C8B C4B 1_555 1_555
H4B C8B 1_555 1_555
C7E N1B 1_555 1_555
H3E C7E 1_555 1_555
C8E C4B 1_555 1_555
H4E C8E 1_555 1_555
C7G N1 1_555 1_555
H3G C7G 1_555 1_555
C8G C4 1_555 1_555
H4G C8G 1_555 1_555
C7H N1B 1_555 1_555
H3H C7H 1_555 1_555
C8H C4B 1_555 1_555
H4H C8H 1_555 1_555
C7J N1 1_555 1_555
H3J C7J 1_555 1_555
C8J C4 1_555 1_555
H4J C8J 1_555 1_555
C7M N1 1_555 1_555
H3M C7M 1_555 1_555
C8M C4 1_555 1_555
H4M C8M 1_555 1_555
C7O N1B 1_555 1_555
H3O C7O 1_555 1_555
C8O C4B 1_555 1_555
H4O C8O 1_555 1_555
Cu1B O1O 1_555 1_555
Cu1_2 O1M 1_555 1_555
Cu1A O1K 1_555 1_555
Cu1A_2 O1D 1_555 1_555
Cu1B_2 O1B 1_555 1_555
Cu1B_3 N1B 1_555 1_555
Cu1C O1F 1_555 1_555
Cu1C_2 O1I 1_555 1_555
N1B_2 Cu1B 1_555 1_555
O1B_2 Cu1B 1_555 1_555
O1E Cu1B 1_555 1_555
O1G Cu1 1_555 1_555
O1H Cu1B 1_555 1_555
O1J Cu1 1_555 1_555
O1M_2 Cu1 1_555 1_555
Cu1 O1 1_555 1_555
C5 C6 1_555 1_555
C9 C10 1_555 1_555
C9B C10B 1_555 1_555
C5D C6D 1_555 1_555
C9D C10D 1_555 1_555
C5F C6F 1_555 1_555
C9F C10F 1_555 1_555
C5I C6I 1_555 1_555
C9I C10I 1_555 1_555
C5K C6K 1_555 1_555
C9K C10K 1_555 1_555
C5M C6M 1_555 1_555
C9M C10M 1_555 1_555
C5O C6O 1_555 1_555
C9O C10O 1_555 1_555
C7B C8B 1_555 1_555
C7E C8E 1_555 1_555
C7G C8G 1_555 1_555
C7H C8H 1_555 1_555
C7J C8J 1_555 1_555
C7M C8M 1_555 1_555
C7O C8O 1_555 1_555

#END
