
#######################################################################
#
#                 Cambridge Crystallographic Data Centre
#                                CCDC 
#
#######################################################################
#
# If this CIF has been generated from an entry in the Cambridge 
# Structural Database, then it will include bibliographic, chemical, 
# crystal, experimental, refinement or atomic coordinate data resulting 
# from the CCDC's data processing and validation procedures.
#
#######################################################################

data_DUMMOP
_chemical_formula_moiety         '(C38 H24 N2 O8 Si1 Zn2)n'
_chemical_name_systematic        
"catena-[(\m-4,4'-bipyridine)-(\m-tetrakis(4-carboxylatophenyl)silane)-di-zinc unknown solvate]"
_symmetry_cell_setting           tetragonal
_symmetry_space_group_name_H-M   'P 42/m m c'
_symmetry_Int_Tables_number      131
_space_group_name_Hall           '-P 4c 2'
loop_
_symmetry_equiv_pos_site_id
_symmetry_equiv_pos_as_xyz
1 x,y,z
2 -x,-y,z
3 -y,x,1/2+z
4 y,-x,1/2+z
5 -x,y,-z
6 x,-y,-z
7 y,x,1/2-z
8 -y,-x,1/2-z
9 -x,-y,-z
10 x,y,-z
11 y,-x,1/2-z
12 -y,x,1/2-z
13 x,-y,z
14 -x,y,z
15 -y,-x,1/2+z
16 y,x,1/2+z
_cell_length_a                   13.9160(12)
_cell_length_b                   13.9160(12)
_cell_length_c                   21.142(4)
_cell_angle_alpha                90
_cell_angle_beta                 90
_cell_angle_gamma                90
_cell_volume                     4094.26
_exptl_crystal_colour            colorless
_exptl_crystal_description       cuboid
_cell_formula_units_Z            2
loop_
_atom_site_label
_atom_site_type_symbol
_atom_site_fract_x
_atom_site_fract_y
_atom_site_fract_z
Zn1 Zn 0.5000 0.103341(19) 0.0000
Si1 Si 0.0000 0.0000 0.2500
N1 N 0.5000 0.24608(14) 0.0000
C1 C 0.27483(13) 0.0000 0.12193(9)
C2 C 0.11008(14) 0.0000 0.19912(9)
O1 O 0.39765(9) 0.07929(8) 0.06567(7)
C3 C 0.36405(15) 0.0000 0.08132(9)
C4 C 0.21576(18) 0.07877(19) 0.12468(14)
H1 H 0.2311 0.1349 0.1003
C5 C 0.13567(19) 0.07754(19) 0.16307(12)
H2 H 0.0951 0.1334 0.1640
C6 C 0.16707(18) 0.08283(19) 0.19251(15)
H3 H 0.1489 0.1403 0.2146
C7 C 0.2475(2) 0.08386(19) 0.15409(14)
H4 H 0.2851 0.1414 0.1499
C8 C 0.5000 0.44759(16) 0.0000
C9 C 0.4287(3) 0.3974(2) 0.0318(3)
H5 H 0.3790 0.4316 0.0538
C10 C 0.4292(3) 0.2974(2) 0.0310(2)
H6 H 0.3797 0.2629 0.0530
C1A C -0.27483(13) 0.0000 0.12193(9)
C2A C -0.11008(14) 0.0000 0.19912(9)
O1A O -0.39765(9) -0.07929(8) 0.06567(7)
C3A C -0.36405(15) 0.0000 0.08132(9)
C4A C -0.21576(18) -0.07877(19) 0.12468(14)
H1A H -0.2311 -0.1349 0.1003
C5A C -0.13567(19) -0.07754(19) 0.16307(12)
H2A H -0.0951 -0.1334 0.1640
C6A C -0.16707(18) -0.08283(19) 0.19251(15)
H3A H -0.1489 -0.1403 0.2146
C7A C -0.2475(2) -0.08386(19) 0.15409(14)
H4A H -0.2851 -0.1414 0.1499
C1F C 0.0000 0.27483(13) 0.37807(9)
C2F C 0.0000 0.11008(14) 0.30088(9)
O1F O 0.07929(8) 0.39765(9) 0.43433(7)
C3F C 0.0000 0.36405(15) 0.41868(9)
C4F C 0.07877(19) 0.21576(18) 0.37532(14)
H1F H 0.1349 0.2311 0.3997
C5F C 0.07754(19) 0.13567(19) 0.33693(12)
H2F H 0.1334 0.0951 0.3360
C6F C 0.08283(19) 0.16707(18) 0.30749(15)
H3F H 0.1403 0.1489 0.2854
C7F C 0.08386(19) 0.2475(2) 0.34591(14)
H4F H 0.1414 0.2851 0.3501
C1G C 0.0000 -0.27483(13) 0.37807(9)
C2G C 0.0000 -0.11008(14) 0.30088(9)
O1G O -0.07929(8) -0.39765(9) 0.43433(7)
C3G C 0.0000 -0.36405(15) 0.41868(9)
C4G C -0.07877(19) -0.21576(18) 0.37532(14)
H1G H -0.1349 -0.2311 0.3997
C5G C -0.07754(19) -0.13567(19) 0.33693(12)
H2G H -0.1334 -0.0951 0.3360
C6G C -0.08283(19) -0.16707(18) 0.30749(15)
H3G H -0.1403 -0.1489 0.2854
C7G C -0.08386(19) -0.2475(2) 0.34591(14)
H4G H -0.1414 -0.2851 0.3501
O1J O 0.07929(8) -0.39765(9) 0.43433(7)
C4J C 0.07877(19) -0.21576(18) 0.37532(14)
H1J H 0.1349 -0.2311 0.3997
C5J C 0.07754(19) -0.13567(19) 0.33693(12)
H2J H 0.1334 -0.0951 0.3360
C6J C 0.08283(19) -0.16707(18) 0.30749(15)
H3J H 0.1403 -0.1489 0.2854
C7J C 0.08386(19) -0.2475(2) 0.34591(14)
H4J H 0.1414 -0.2851 0.3501
O1K O -0.07929(8) 0.39765(9) 0.43433(7)
C4K C -0.07877(19) 0.21576(18) 0.37532(14)
H1K H -0.1349 0.2311 0.3997
C5K C -0.07754(19) 0.13567(19) 0.33693(12)
H2K H -0.1334 0.0951 0.3360
C6K C -0.08283(19) 0.16707(18) 0.30749(15)
H3K H -0.1403 0.1489 0.2854
C7K C -0.08386(19) 0.2475(2) 0.34591(14)
H4K H -0.1414 0.2851 0.3501
O1L O 0.39765(9) -0.07929(8) 0.06567(7)
C4L C 0.21576(18) -0.07877(19) 0.12468(14)
H1L H 0.2311 -0.1349 0.1003
C5L C 0.13567(19) -0.07754(19) 0.16307(12)
H2L H 0.0951 -0.1334 0.1640
C6L C 0.16707(18) -0.08283(19) 0.19251(15)
H3L H 0.1489 -0.1403 0.2146
C7L C 0.2475(2) -0.08386(19) 0.15409(14)
H4L H 0.2851 -0.1414 0.1499
O1M O -0.39765(9) 0.07929(8) 0.06567(7)
C4M C -0.21576(18) 0.07877(19) 0.12468(14)
H1M H -0.2311 0.1349 0.1003
C5M C -0.13567(19) 0.07754(19) 0.16307(12)
H2M H -0.0951 0.1334 0.1640
C6M C -0.16707(18) 0.08283(19) 0.19251(15)
H3M H -0.1489 0.1403 0.2146
C7M C -0.2475(2) 0.08386(19) 0.15409(14)
H4M H -0.2851 0.1414 0.1499
N1A N 0.5000 0.75392(14) 0.0000
C8A C 0.5000 0.55241(16) 0.0000
C9A C 0.5713(3) 0.6026(2) 0.0318(3)
H5A H 0.6210 0.5684 0.0538
C10A C 0.5708(3) 0.7026(2) 0.0310(2)
H6A H 0.6203 0.7371 0.0530
C9D C 0.5713(3) 0.3974(2) -0.0318(3)
H5D H 0.6210 0.4316 -0.0538
C10D C 0.5708(3) 0.2974(2) -0.0310(2)
H6D H 0.6203 0.2629 -0.0530
C9E C 0.4287(3) 0.6026(2) -0.0318(3)
H5E H 0.3790 0.5684 -0.0538
C10E C 0.4292(3) 0.7026(2) -0.0310(2)
H6E H 0.3797 0.7371 -0.0530
C9H C 0.5713(3) 0.6026(2) -0.0318(3)
H5H H 0.6210 0.5684 -0.0538
C10H C 0.5708(3) 0.7026(2) -0.0310(2)
H6H H 0.6203 0.7371 -0.0530
C9I C 0.4287(3) 0.3974(2) -0.0318(3)
H5I H 0.3790 0.4316 -0.0538
C10I C 0.4292(3) 0.2974(2) -0.0310(2)
H6I H 0.3797 0.2629 -0.0530
C9L C 0.4287(3) 0.6026(2) 0.0318(3)
H5L H 0.3790 0.5684 0.0538
C10L C 0.4292(3) 0.7026(2) 0.0310(2)
H6L H 0.3797 0.7371 0.0530
C9M C 0.5713(3) 0.3974(2) 0.0318(3)
H5M H 0.6210 0.4316 0.0538
C10M C 0.5708(3) 0.2974(2) 0.0310(2)
H6M H 0.6203 0.2629 0.0530
Zn1A Zn 0.5000 -0.103341(19) 0.0000
Zn1_2 Zn -0.5000 0.103341(19) 0.0000
Zn1A_2 Zn -0.5000 -0.103341(19) 0.0000
Zn1A_3 Zn 0.5000 0.896659(19) 0.0000
Zn1B Zn -0.103341(19) -0.5000 0.5000
Zn1B_2 Zn -0.103341(19) 0.5000 0.5000
Zn1C Zn 0.103341(19) -0.5000 0.5000
Zn1C_2 Zn 0.103341(19) 0.5000 0.5000
N1A_2 N 0.5000 -0.24608(14) 0.0000
O1A_2 O 0.60235(9) -0.07929(8) 0.06567(7)
O1D O 0.60235(9) 0.07929(8) -0.06567(7)
O1E O 0.39765(9) -0.07929(8) -0.06567(7)
O1H O 0.60235(9) -0.07929(8) -0.06567(7)
O1I O 0.39765(9) 0.07929(8) -0.06567(7)
O1M_2 O 0.60235(9) 0.07929(8) 0.06567(7)
C11? C 0.4142(2) 0.3965(2) 0.0000
H7? H 0.3543 0.4306 0.0000
C12? C 0.4149(2) 0.2966(2) 0.0000
H8? H 0.3551 0.2621 0.0000
loop_
_geom_bond_atom_site_label_1
_geom_bond_atom_site_label_2
_geom_bond_site_symmetry_1
_geom_bond_site_symmetry_2
Zn1 N1 1_555 1_555
Si1 C2 1_555 1_555
N1 C10 1_555 1_555
C1 C3 1_555 1_555
C2 C5 1_555 1_555
O1 Zn1 1_555 1_555
C3 O1 1_555 1_555
C4 C1 1_555 1_555
H1 C4 1_555 1_555
C5 C4 1_555 1_555
H2 C5 1_555 1_555
C6 C2 1_555 1_555
H3 C6 1_555 1_555
C7 C1 1_555 1_555
H4 C7 1_555 1_555
C8 C9 1_555 1_555
C9 H5 1_555 1_555
C10 C9 1_555 1_555
H6 C10 1_555 1_555
C1A C3A 1_555 1_555
C2A Si1 1_555 1_555
O1A C3A 1_555 1_555
C3A O1M 1_555 1_555
C4A C1A 1_555 1_555
H1A C4A 1_555 1_555
C5A C2A 1_555 1_555
H2A C5A 1_555 1_555
C6A C2A 1_555 1_555
H3A C6A 1_555 1_555
C7A C1A 1_555 1_555
H4A C7A 1_555 1_555
C1F C3F 1_555 1_555
C2F Si1 1_555 1_555
O1F C3F 1_555 1_555
C3F O1K 1_555 1_555
C4F C1F 1_555 1_555
H1F C4F 1_555 1_555
C5F C2F 1_555 1_555
H2F C5F 1_555 1_555
C6F C2F 1_555 1_555
H3F C6F 1_555 1_555
C7F C1F 1_555 1_555
H4F C7F 1_555 1_555
C1G C3G 1_555 1_555
C2G Si1 1_555 1_555
O1G C3G 1_555 1_555
C3G O1J 1_555 1_555
C4G C1G 1_555 1_555
H1G C4G 1_555 1_555
C5G C2G 1_555 1_555
H2G C5G 1_555 1_555
C6G C2G 1_555 1_555
H3G C6G 1_555 1_555
C7G C1G 1_555 1_555
H4G C7G 1_555 1_555
O1J Zn1C 1_555 1_555
C4J C1G 1_555 1_555
H1J C4J 1_555 1_555
C5J C2G 1_555 1_555
H2J C5J 1_555 1_555
C6J C2G 1_555 1_555
H3J C6J 1_555 1_555
C7J C1G 1_555 1_555
H4J C7J 1_555 1_555
O1K Zn1B_2 1_555 1_555
C4K C1F 1_555 1_555
H1K C4K 1_555 1_555
C5K C2F 1_555 1_555
H2K C5K 1_555 1_555
C6K C2F 1_555 1_555
H3K C6K 1_555 1_555
C7K C1F 1_555 1_555
H4K C7K 1_555 1_555
O1L C3 1_555 1_555
C4L C1 1_555 1_555
H1L C4L 1_555 1_555
C5L C2 1_555 1_555
H2L C5L 1_555 1_555
C6L C2 1_555 1_555
H3L C6L 1_555 1_555
C7L C1 1_555 1_555
H4L C7L 1_555 1_555
O1M Zn1_2 1_555 1_555
C4M C1A 1_555 1_555
H1M C4M 1_555 1_555
C5M C2A 1_555 1_555
H2M C5M 1_555 1_555
C6M C2A 1_555 1_555
H3M C6M 1_555 1_555
C7M C1A 1_555 1_555
H4M C7M 1_555 1_555
N1A C10A 1_555 1_555
C8A C8 1_555 1_555
C9A C8A 1_555 1_555
H5A C9A 1_555 1_555
C10A C9A 1_555 1_555
H6A C10A 1_555 1_555
C9D C8 1_555 1_555
H5D C9D 1_555 1_555
C10D N1 1_555 1_555
H6D C10D 1_555 1_555
C9E C8A 1_555 1_555
H5E C9E 1_555 1_555
C10E N1A 1_555 1_555
H6E C10E 1_555 1_555
C9H C8A 1_555 1_555
H5H C9H 1_555 1_555
C10H N1A 1_555 1_555
H6H C10H 1_555 1_555
C9I C8 1_555 1_555
H5I C9I 1_555 1_555
C10I N1 1_555 1_555
H6I C10I 1_555 1_555
C9L C8A 1_555 1_555
H5L C9L 1_555 1_555
C10L N1A 1_555 1_555
H6L C10L 1_555 1_555
C9M C8 1_555 1_555
H5M C9M 1_555 1_555
C10M N1 1_555 1_555
H6M C10M 1_555 1_555
Zn1A O1L 1_555 1_555
Zn1A_2 O1A 1_555 1_555
Zn1A_3 N1A 1_555 1_555
Zn1B O1G 1_555 1_555
Zn1C_2 O1F 1_555 1_555
N1A_2 Zn1A 1_555 1_555
O1A_2 Zn1A 1_555 1_555
O1D Zn1 1_555 1_555
O1E Zn1A 1_555 1_555
O1H Zn1A 1_555 1_555
O1I Zn1 1_555 1_555
O1M_2 Zn1 1_555 1_555
C6 C7 1_555 1_555
C4A C5A 1_555 1_555
C6A C7A 1_555 1_555
C4F C5F 1_555 1_555
C6F C7F 1_555 1_555
C4G C5G 1_555 1_555
C6G C7G 1_555 1_555
C4J C5J 1_555 1_555
C6J C7J 1_555 1_555
C4K C5K 1_555 1_555
C6K C7K 1_555 1_555
C4L C5L 1_555 1_555
C6L C7L 1_555 1_555
C4M C5M 1_555 1_555
C6M C7M 1_555 1_555
C9D C10D 1_555 1_555
C9E C10E 1_555 1_555
C9H C10H 1_555 1_555
C9I C10I 1_555 1_555
C9L C10L 1_555 1_555
C9M C10M 1_555 1_555

#END
