
#######################################################################
#
#                 Cambridge Crystallographic Data Centre
#                                CCDC 
#
#######################################################################
#
# If this CIF has been generated from an entry in the Cambridge 
# Structural Database, then it will include bibliographic, chemical, 
# crystal, experimental, refinement or atomic coordinate data resulting 
# from the CCDC's data processing and validation procedures.
#
#######################################################################

data_SARHEA
_chemical_formula_moiety         '(C8 H2 Fe2 O6)n,1.22n(C3 D8)'
_chemical_name_systematic        
'catena-((\m~8~-2,5-dioxido-1,4-benzenedicarboxylate)-di-iron(ii) deuteropropane solvate)'
_symmetry_cell_setting           rhombohedral
_symmetry_space_group_name_H-M   'R -3'
_symmetry_Int_Tables_number      148
_space_group_name_Hall           '-R 3'
loop_
_symmetry_equiv_pos_site_id
_symmetry_equiv_pos_as_xyz
1 x,y,z
2 -y,x-y,z
3 -x+y,-x,z
4 1/3+x,2/3+y,2/3+z
5 1/3-y,2/3+x-y,2/3+z
6 1/3-x+y,2/3-x,2/3+z
7 2/3+x,1/3+y,1/3+z
8 2/3-y,1/3+x-y,1/3+z
9 2/3-x+y,1/3-x,1/3+z
10 -x,-y,-z
11 y,-x+y,-z
12 x-y,x,-z
13 2/3-x,1/3-y,1/3-z
14 2/3+y,1/3-x+y,1/3-z
15 2/3+x-y,1/3+x,1/3-z
16 1/3-x,2/3-y,2/3-z
17 1/3+y,2/3-x+y,2/3-z
18 1/3+x-y,2/3+x,2/3-z
_cell_length_a                   26.0468(6)
_cell_length_b                   26.0468(6)
_cell_length_c                   6.82816(22)
_cell_angle_alpha                90
_cell_angle_beta                 90
_cell_angle_gamma                120
_cell_volume                     4011.84
_cell_formula_units_Z            9
loop_
_atom_site_label
_atom_site_type_symbol
_atom_site_fract_x
_atom_site_fract_y
_atom_site_fract_z
_atom_site_U_iso_or_equiv
_atom_site_thermal_displace_type
Fe1 Fe 0.37994(26) 0.34825(28) 0.1455(9) 0.0117 Uiso
O1 O 0.3278(5) 0.2944(4) 0.3505(17) 0.0220 Uiso
O2 O 0.3025(5) 0.2197(5) 0.5667(17) 0.0218 Uiso
O3 O 0.3453(5) 0.2675(4) 0.0072(17) 0.0218 Uiso
C1 C 0.3174(4) 0.2452(4) 0.4163(13) 0.0024 Uiso
C2 C 0.3289(4) 0.20592(34) 0.3004(13) 0.0023 Uiso
C3 C 0.3431(4) 0.2241(4) 0.0906(12) 0.0024 Uiso
C4 C 0.3173(4) 0.1522(4) 0.3584(13) 0.0025 Uiso
H1 H 0.3010(6) 0.1345(6) 0.4962(28) 0.0010 Uiso
Fe1L Fe 0.28673(26) -0.01492(28) 0.1878(9) 0.0117 Uiso
Fe1G Fe 0.31842(28) 0.36502(38) 0.4788(9) 0.0117 Uiso
Fe1E Fe 0.30164(38) 0.28673(26) -0.1878(9) 0.0117 Uiso
Fe1E_2 Fe 0.30164(38) 0.28673(26) 0.8122(9) 0.0117 Uiso
Fe1J Fe 0.34825(28) -0.03169(38) -0.1455(9) 0.0117 Uiso
Fe1Q Fe 0.36502(38) 0.04661(26) -0.4788(9) 0.0117 Uiso
Fe1Q_2 Fe 0.36502(38) 0.04661(26) 0.5212(9) 0.0117 Uiso
O1L O 0.3389(5) 0.0389(4) -0.0172(17) 0.0220 Uiso
O1E O 0.2999(6) 0.3389(5) 0.0172(17) 0.0220 Uiso
O1Q O 0.3667(6) -0.0055(5) 0.3162(17) 0.0220 Uiso
O2L O 0.3642(5) 0.1136(5) -0.2334(17) 0.0218 Uiso
O2G O 0.4470(5) 0.4161(7) -0.1000(17) 0.0218 Uiso
O2J O 0.2197(5) -0.0828(7) 0.4333(17) 0.0218 Uiso
O3L O 0.3214(5) 0.0658(4) 0.3261(17) 0.0218 Uiso
O3G O 0.3992(4) 0.4111(6) 0.3405(17) 0.0218 Uiso
O3J O 0.2675(4) -0.0778(6) -0.0072(17) 0.0218 Uiso
C1L C 0.3493(4) 0.0881(4) -0.0830(13) 0.0024 Uiso
C2L C 0.3378(4) 0.12741(34) 0.0329(13) 0.0023 Uiso
C3L C 0.3236(4) 0.1092(4) 0.2427(12) 0.0024 Uiso
C4L C 0.3494(4) 0.1811(4) -0.0251(13) 0.0025 Uiso
H1L H 0.3657(6) 0.1988(6) -0.1629(28) 0.0010 Uiso
C5 C 0.5236(8) 0.8635(8) 0.6456(24) 0.0396 Uani
C6 C 0.5027(8) 0.8566(8) 0.8531(26) 0.0484 Uani
D1 D 0.5103(8) 0.8872(7) 0.5562(27) 0.0502 Uani
D2 D 0.5690(6) 0.8772(7) 0.6448(22) 0.0491 Uani
D3 D 0.5335(9) 0.8923(8) 0.937(4) 0.1158 Uani
D4 D 0.4655(8) 0.8618(6) 0.867(4) 0.0987 Uani
D5 D 0.4991(11) 0.8181(9) 0.9245(32) 0.1851 Uani
C7 C 0.4909(9) 0.8037(13) 0.570(6) 0.2904 Uani
D6 D 0.4578(17) 0.7927(16) 0.458(6) 0.5822 Uani
D7 D 0.4695(7) 0.7786(7) 0.708(6) 0.3280 Uani
D8 D 0.5190(13) 0.7880(32) 0.502(7) 0.7022 Uani
loop_
_atom_site_aniso_label
_atom_site_aniso_U_11
_atom_site_aniso_U_22
_atom_site_aniso_U_33
_atom_site_aniso_U_23
_atom_site_aniso_U_13
_atom_site_aniso_U_12
C5 0.040(10) 0.037(10) 0.044(13) 0.000(11) 0.000(11) 0.021(7)
C6 0.049(13) 0.048(13) 0.044(14) -0.001(12) -0.003(12) 0.021(9)
D1 0.058(13) 0.051(11) 0.040(12) -0.035(10) -0.015(10) 0.026(9)
D2 0.027(9) 0.083(11) 0.034(10) -0.051(8) 0.047(7) 0.025(7)
D3 0.143(17) 0.032(10) 0.218(31) 0.049(15) 0.042(20) 0.078(8)
D4 0.120(13) 0.048(9) 0.192(23) -0.088(13) -0.062(15) 0.090(7)
D5 0.196(23) 0.118(17) 0.182(22) -0.161(14) 0.037(18) 0.034(14)
C7 0.015(13) 0.290(24) 0.59(5) 0.213(27) -0.005(19) 0.094(11)
D6 0.52(5) 0.48(4) 0.80(9) 0.40(4) -0.08(5) 0.290(28)
D7 0.129(9) 0.167(10) 0.80(6) -0.126(17) 0.119(17) 0.158(6)
D8 0.18(5) 0.80(13) 0.80(11) 0.35(10) -0.15(5) 0.00(6)
loop_
_geom_bond_atom_site_label_1
_geom_bond_atom_site_label_2
_geom_bond_site_symmetry_1
_geom_bond_site_symmetry_2
Fe1 O1 1_555 1_555
O1 C1 1_555 1_555
O2 C1 1_555 1_555
O3 Fe1 1_555 1_555
C1 C2 1_555 1_555
C2 C3 1_555 1_555
C3 O3 1_555 1_555
C4 C2 1_555 1_555
H1 C4 1_555 1_555
C5 C6 1_555 1_555
C6 D3 1_555 1_555
D1 C5 1_555 1_555
D2 C5 1_555 1_555
D4 C6 1_555 1_555
D5 C6 1_555 1_555
C7 C5 1_555 1_555
D6 C7 1_555 1_555
D7 C7 1_555 1_555
D8 C7 1_555 1_555
Fe1L O1L 1_555 1_555
Fe1G O1 1_555 1_555
Fe1E O3 1_555 1_555
Fe1E_2 O2 1_555 1_555
Fe1J O1L 1_555 1_555
Fe1Q O2L 1_555 1_555
Fe1Q_2 O1Q 1_555 1_555
O1L C1L 1_555 1_555
O1E Fe1 1_555 1_555
O1Q Fe1L 1_555 1_555
O2L C1L 1_555 1_555
O2G Fe1 1_555 1_555
O2J Fe1L 1_555 1_555
O3L Fe1L 1_555 1_555
O3G Fe1 1_555 1_555
O3J Fe1L 1_555 1_555
C1L C2L 1_555 1_555
C2L C3L 1_555 1_555
C3L C4 1_555 1_555
C4L C3 1_555 1_555
H1L C4L 1_555 1_555
Fe1G O3G 1_555 1_555
Fe1E O1E 1_555 1_555
Fe1J O3J 1_555 1_555
Fe1Q_2 O3L 1_555 1_555
O3L C3L 1_555 1_555
C2L C4L 1_555 1_555

#END
