
#######################################################################
#
#                 Cambridge Crystallographic Data Centre
#                                CCDC 
#
#######################################################################
#
# If this CIF has been generated from an entry in the Cambridge 
# Structural Database, then it will include bibliographic, chemical, 
# crystal, experimental, refinement or atomic coordinate data resulting 
# from the CCDC's data processing and validation procedures.
#
#######################################################################

data_COJGEO
_chemical_formula_moiety         
'(C80 H56 Cu2 N8 O28 Zn6)n,10n(C3 H7 N1 O1),10n(H2 O1)'
_chemical_name_systematic        
"catena-[(\m~4~-Benzene-1,4-dicarboxylato-O,O,O',O'',O'',O''')-tetrakis(\m~4~-benzene-1,4-dicarboxylato-O,O',O'',O''')-(\m~4~-benzene-1,4-dicarboxylato-O,O,O',O')-bis(\m~3~-N,N'-bis(5-methyl-4-oxypyridine-3-methylidene)ethylenediamine)-di-copper-hexa-zinc dimethylformamide solvate decahydrate]"
_symmetry_cell_setting           monoclinic
_symmetry_space_group_name_H-M   'P 21/c'
_symmetry_Int_Tables_number      14
_space_group_name_Hall           '-P 2ybc'
loop_
_symmetry_equiv_pos_site_id
_symmetry_equiv_pos_as_xyz
1 x,y,z
2 -x,1/2+y,1/2-z
3 -x,-y,-z
4 x,1/2-y,1/2+z
_cell_length_a                   41.254(4)
_cell_length_b                   9.4592(9)
_cell_length_c                   18.4138(16)
_cell_angle_alpha                90
_cell_angle_beta                 98.645(3)
_cell_angle_gamma                90
_cell_volume                     7103.98
_exptl_crystal_colour            green
_exptl_crystal_description       plate
_cell_formula_units_Z            2
loop_
_atom_site_label
_atom_site_type_symbol
_atom_site_fract_x
_atom_site_fract_y
_atom_site_fract_z
Zn1 Zn 0.5000 0.5000 0.5000
Zn2 Zn 0.420187(9) 0.54361(4) 0.47050(2)
Zn3 Zn 0.079746(9) 0.95731(4) 0.53075(2)
Zn4 Zn 0.0000 1.0000 0.5000
Cu1 Cu 0.250076(12) 0.80855(7) 0.46796(3)
O1 O 0.42568(5) 0.3914(2) 0.54580(12)
O2 O 0.48047(5) 0.3635(2) 0.56230(12)
O3 O 0.47315(5) 0.0691(2) 0.90122(12)
O4 O 0.41900(5) 0.0444(2) 0.87513(11)
O5 O 0.46083(5) 0.6528(2) 0.50963(12)
O6 O 0.43051(5) 0.7755(2) 0.42334(13)
O7 O 0.07665(5) 1.0583(2) 0.62008(12)
O8 O 0.02123(5) 1.0569(2) 0.60403(12)
O9 O 0.02461(5) 1.3576(2) 0.94771(12)
O10 O 0.07715(5) 1.4080(3) 0.94882(12)
O11 O 0.03946(5) 0.8461(2) 0.49490(12)
O12 O 0.06687(6) 0.7248(2) 0.58455(13)
O13 O 0.28250(6) 0.6992(3) 0.52931(16)
O14 O 0.22148(5) 0.7702(3) 0.53688(14)
N1 N 0.37588(6) 0.6030(3) 0.48858(15)
N2 N 0.12544(6) 0.8902(3) 0.53010(15)
N4 N 0.28133(12) 0.8983(6) 0.4133(3)
N5 N 0.21814(7) 0.9140(4) 0.40411(16)
C1 C 0.45199(8) 0.3473(3) 0.58038(18)
C2 C 0.45061(8) 0.2677(4) 0.65078(18)
C3 C 0.42050(8) 0.2368(4) 0.67046(18)
H1 H 0.4009 0.2572 0.6380
C4 C 0.41914(8) 0.1755(4) 0.73800(19)
H2 H 0.3984 0.1568 0.7524
C5 C 0.44732(8) 0.1410(4) 0.78515(18)
C6 C 0.47703(8) 0.1709(4) 0.7615(2)
H3 H 0.4968 0.1484 0.7928
C7 C 0.47875(8) 0.2317(4) 0.69456(18)
H4 H 0.4994 0.2483 0.6792
C8 C 0.44704(8) 0.0783(4) 0.86016(18)
C9 C 0.45499(8) 0.7655(4) 0.47065(19)
C10 C 0.47824(8) 0.8862(4) 0.48549(19)
C11 C 0.50211(8) 0.8900(4) 0.54868(19)
H5 H 0.5028(5) 0.806(3) 0.5834(13)
C12 C 0.47704(8) 0.9981(4) 0.4386(2)
H6 H 0.4600(7) 0.999(3) 0.4018(17)
C13 C 0.04903(8) 1.0819(4) 0.64091(19)
C14 C 0.04910(7) 1.1438(3) 0.71606(18)
C15 C 0.07910(9) 1.1804(4) 0.7564(2)
H7 H 0.0990 1.1637 0.7378
C16 C 0.07913(9) 1.2422(4) 0.8247(2)
H8 H 0.0995 1.2646 0.8538
C17 C 0.05057(8) 1.2718(4) 0.85151(19)
C18 C 0.02095(8) 1.2324(4) 0.80946(19)
H9 H 0.0009 1.2498 0.8273
C19 C 0.02075(8) 1.1683(4) 0.74228(18)
H10 H 0.0005 1.1410 0.7141
C20 C 0.05066(8) 1.3523(4) 0.92098(19)
C21 C 0.04334(8) 0.7328(4) 0.5347(2)
C22 C 0.02039(7) 0.6112(4) 0.51697(19)
C23 C -0.00072(8) 0.6158(4) 0.45091(19)
C24 C 0.02165(8) 0.5004(4) 0.5663(2)
C25 C 0.36225(8) 0.5500(4) 0.5437(2)
H11 H 0.3749 0.4856 0.5759
C26 C 0.33214(9) 0.5801(5) 0.5572(2)
C27 C 0.31129(9) 0.6691(5) 0.5130(2)
C28 C 0.32587(9) 0.7324(4) 0.4541(2)
C29 C 0.35730(9) 0.6919(5) 0.4440(2)
H12 H 0.3701(8) 0.738(4) 0.4170(19)
C30 C 0.31885(10) 0.5116(5) 0.6250(2)
H13 H 0.3357 0.4501 0.6516
H14 H 0.2992 0.4558 0.6077
H15 H 0.3134 0.5864 0.6580
C34 C 0.30813(19) 0.8194(10) 0.3969(5)
H21 H 0.3145 0.8231 0.3495
C35 C 0.26592(15) 1.0000(7) 0.3617(4)
H22 H 0.2696 1.0949 0.3840
H23 H 0.2773 0.9978 0.3180
C36 C 0.23199(17) 0.9840(8) 0.3375(4)
H24 H 0.2280 0.9225 0.2936
H25 H 0.2215 1.0769 0.3253
C37 C 0.18890(9) 0.9410(5) 0.4113(2)
H26 H 0.1746(7) 0.986(3) 0.3721(17)
C38 C 0.17491(9) 0.8909(5) 0.4746(2)
C39 C 0.14129(9) 0.9249(4) 0.4764(2)
H27 H 0.1306(7) 0.971(3) 0.4285(16)
C40 C 0.14140(8) 0.8180(4) 0.5877(2)
H28 H 0.1331(6) 0.786(3) 0.6346(14)
C41 C 0.17340(9) 0.7792(4) 0.5912(2)
C42 C 0.19177(9) 0.8112(4) 0.5331(2)
C43 C 0.19135(9) 0.6951(5) 0.6556(2)
H29 H 0.1767 0.6798 0.6921
H30 H 0.2107 0.7478 0.6780
H31 H 0.1981 0.6036 0.6379
Zn1C Zn 0.5000 0.0000 1.0000
Zn1_2 Zn 0.5000 1.5000 0.5000
Zn1C_2 Zn 0.5000 1.0000 0.0000
Zn2B Zn 0.579813(9) 0.45639(4) 0.52950(2)
Zn2C Zn 0.420187(9) -0.04361(4) 0.97050(2)
Zn2B_2 Zn 0.579813(9) 1.45639(4) 0.52950(2)
Zn2A Zn 0.579813(9) 1.04361(4) 0.02950(2)
Zn3B Zn 0.920254(9) 0.04269(4) 0.46925(2)
Zn3C Zn 0.079746(9) 1.54269(4) 1.03075(2)
Zn3B_2 Zn -0.079746(9) 0.04269(4) 0.46925(2)
Zn3C_2 Zn 0.079746(9) 1.54269(4) 0.03075(2)
Zn4C Zn 0.0000 1.5000 1.0000
Zn4_2 Zn 0.0000 0.0000 0.5000
Zn4C_2 Zn 0.0000 1.5000 0.0000
Cu1B Cu 0.749924(12) 0.19145(7) 0.53204(3)
O1B O 0.57432(5) 0.6086(2) 0.45420(12)
O2B O 0.51953(5) 0.6365(2) 0.43770(12)
O3B O 0.52685(5) 0.9309(2) 0.09878(12)
O3C O 0.47315(5) 0.4309(2) 0.40122(12)
O3A O 0.52685(5) 0.5691(2) 0.59878(12)
O4B O 0.58100(5) 0.9556(2) 0.12487(11)
O4C O 0.41900(5) 0.4556(2) 0.37513(11)
O4A O 0.58100(5) 0.5444(2) 0.62487(11)
O5B O 0.53917(5) 1.3472(2) 0.49037(12)
O5B_2 O 0.53917(5) 0.3472(2) 0.49037(12)
O6B O 0.56949(5) 1.2245(2) 0.57666(13)
O6B_2 O 0.56949(5) 0.2245(2) 0.57666(13)
O7C O 0.07665(5) 1.4417(2) 0.12008(12)
O7B O 0.92335(5) -0.0583(2) 0.37992(12)
O8C O 0.02123(5) 1.4431(2) 0.10403(12)
O8B O -0.02123(5) 0.9431(2) 0.39597(12)
O9C O 0.02461(5) 1.1424(2) 0.44771(12)
O9A O -0.02461(5) 0.8576(2) 0.55229(12)
O10C O 0.07715(5) 1.0920(3) 0.44882(12)
O10A O 0.92285(5) -0.0920(3) 0.55118(12)
O11B O -0.03946(5) 0.1539(2) 0.50510(12)
O11B_2 O -0.03946(5) 1.1539(2) 0.50510(12)
O11B_3 O 0.96054(5) 0.1539(2) 0.50510(12)
O12B O -0.06687(6) 0.2752(2) 0.41545(13)
O13B O 0.71750(6) 0.3008(3) 0.47069(16)
O14B O 0.77852(5) 0.2298(3) 0.46312(14)
N1B N 0.62412(6) 0.3970(3) 0.51142(15)
N2B N 0.87456(6) 0.1098(3) 0.46990(15)
N4B N 0.71867(12) 0.1017(6) 0.5867(3)
N5B N 0.78186(7) 0.0860(4) 0.59589(16)
C1B C 0.54801(8) 0.6527(3) 0.41962(18)
C2B C 0.54939(8) 0.7323(4) 0.34922(18)
C3B C 0.57950(8) 0.7632(4) 0.32954(18)
H1B H 0.5991 0.7428 0.3620
C4B C 0.58086(8) 0.8245(4) 0.26200(19)
H2B H 0.6016 0.8432 0.2476
C5B C 0.55268(8) 0.8590(4) 0.21485(18)
C6B C 0.52297(8) 0.8291(4) 0.2385(2)
H3B H 0.5032 0.8516 0.2072
C7B C 0.52125(8) 0.7683(4) 0.30544(18)
H4B H 0.5006 0.7517 0.3208
C8B C 0.55296(8) 0.9217(4) 0.13984(18)
C9B C 0.54501(8) 1.2345(4) 0.52935(19)
C10B C 0.52176(8) 1.1138(4) 0.51451(19)
C11B C 0.49789(8) 1.1100(4) 0.45132(19)
H5B H 0.4972(5) 1.194(3) 0.4166(13)
C12B C 0.52296(8) 1.0019(4) 0.5614(2)
H6B H 0.5400(7) 1.001(3) 0.5982(17)
C13C C 0.04903(8) 1.4181(4) 0.14091(19)
C14C C 0.04910(7) 1.3562(3) 0.21606(18)
C15C C 0.07910(9) 1.3196(4) 0.2564(2)
H7C H 0.0990 1.3363 0.2378
C16C C 0.07913(9) 1.2578(4) 0.3247(2)
H8C H 0.0995 1.2354 0.3538
C17C C 0.05057(8) 1.2282(4) 0.35151(19)
C18C C 0.02095(8) 1.2676(4) 0.30946(19)
H9C H 0.0009 1.2502 0.3273
C19C C 0.02075(8) 1.3317(4) 0.24228(18)
H10C H 0.0005 1.3590 0.2141
C20C C 0.05066(8) 1.1477(4) 0.42098(19)
C21B C -0.04334(8) 0.2672(4) 0.4653(2)
C22B C -0.02039(7) 0.3888(4) 0.48303(19)
C23B C 0.00072(8) 0.3842(4) 0.54909(19)
C24B C -0.02165(8) 0.4996(4) 0.4337(2)
C25B C 0.63775(8) 0.4500(4) 0.4563(2)
H11B H 0.6251 0.5144 0.4241
C26B C 0.66786(9) 0.4199(5) 0.4428(2)
C27B C 0.68871(9) 0.3309(5) 0.4870(2)
C28B C 0.67413(9) 0.2676(4) 0.5459(2)
C29B C 0.64270(9) 0.3081(5) 0.5560(2)
H12B H 0.6299(8) 0.262(4) 0.5830(19)
C30B C 0.68115(10) 0.4884(5) 0.3750(2)
H13B H 0.6643 0.5499 0.3484
H14B H 0.7008 0.5442 0.3923
H15B H 0.6866 0.4136 0.3420
C34B C 0.69187(19) 0.1806(10) 0.6031(5)
H21B H 0.6855 0.1769 0.6505
C35B C 0.73408(15) 0.0000(7) 0.6383(4)
H22B H 0.7304 -0.0949 0.6160
H23B H 0.7227 0.0022 0.6820
C36B C 0.76801(17) 0.0160(8) 0.6625(4)
H24B H 0.7720 0.0775 0.7064
H25B H 0.7785 -0.0769 0.6747
C37B C 0.81110(9) 0.0590(5) 0.5887(2)
H26B H 0.8254(7) 0.014(3) 0.6279(17)
C38B C 0.82509(9) 0.1091(5) 0.5254(2)
C39B C 0.85871(9) 0.0751(4) 0.5236(2)
H27B H 0.8694(7) 0.029(3) 0.5715(16)
C40B C 0.85860(8) 0.1820(4) 0.4123(2)
H28B H 0.8669(6) 0.214(3) 0.3654(14)
C41B C 0.82660(9) 0.2208(4) 0.4088(2)
C42B C 0.80823(9) 0.1888(4) 0.4669(2)
C43B C 0.80865(9) 0.3049(5) 0.3444(2)
H29B H 0.8233 0.3202 0.3079
H30B H 0.7893 0.2522 0.3220
H31B H 0.8019 0.3964 0.3621
N3? N 0.27484(18) 0.8223(9) 0.3827(5)
C31? C 0.3095(3) 0.8554(12) 0.4071(6)
H16? H 0.3202 0.9396 0.3958
C32? C 0.2599(3) 0.9093(16) 0.3284(7)
H17? H 0.2728 0.9968 0.3254
H18? H 0.2572 0.8611 0.2801
C33? C 0.2320(3) 0.9371(15) 0.3475(7)
H19? H 0.2162 0.8970 0.3069
H20? H 0.2301 1.0409 0.3412
loop_
_geom_bond_atom_site_label_1
_geom_bond_atom_site_label_2
_geom_bond_site_symmetry_1
_geom_bond_site_symmetry_2
Zn1 O2 1_555 1_555
Zn2 O1 1_555 1_555
Zn3 O7 1_555 1_555
Zn4 O8 1_555 1_555
Cu1 O13 1_555 1_555
O1 C1 1_555 1_555
O2 C1 1_555 1_555
O3 C8 1_555 1_555
O4 C8 1_555 1_555
O5 Zn1 1_555 1_555
O6 Zn2 1_555 1_555
O7 C13 1_555 1_555
O8 C13 1_555 1_555
O9 C20 1_555 1_555
O10 C20 1_555 1_555
O11 Zn3 1_555 1_555
O12 C21 1_555 1_555
O13 C27 1_555 1_555
O14 Cu1 1_555 1_555
N1 Zn2 1_555 1_555
N2 Zn3 1_555 1_555
N4 Cu1 1_555 1_555
N5 Cu1 1_555 1_555
C1 C2 1_555 1_555
C2 C3 1_555 1_555
C3 H1 1_555 1_555
C4 C3 1_555 1_555
H2 C4 1_555 1_555
C5 C4 1_555 1_555
C6 C5 1_555 1_555
H3 C6 1_555 1_555
C7 C2 1_555 1_555
H4 C7 1_555 1_555
C8 C5 1_555 1_555
C9 O5 1_555 1_555
C10 C9 1_555 1_555
C11 C10 1_555 1_555
H5 C11 1_555 1_555
C12 C10 1_555 1_555
H6 C12 1_555 1_555
C13 C14 1_555 1_555
C14 C15 1_555 1_555
C15 H7 1_555 1_555
C16 C15 1_555 1_555
H8 C16 1_555 1_555
C17 C16 1_555 1_555
C18 C17 1_555 1_555
H9 C18 1_555 1_555
C19 C14 1_555 1_555
H10 C19 1_555 1_555
C20 C17 1_555 1_555
C21 O11 1_555 1_555
C22 C21 1_555 1_555
C23 C22 1_555 1_555
C24 C22 1_555 1_555
C25 N1 1_555 1_555
H11 C25 1_555 1_555
C26 C25 1_555 1_555
C27 C26 1_555 1_555
C28 C27 1_555 1_555
C29 N1 1_555 1_555
H12 C29 1_555 1_555
C30 C26 1_555 1_555
H13 C30 1_555 1_555
H14 C30 1_555 1_555
H15 C30 1_555 1_555
C34 N4 1_555 1_555
H21 C34 1_555 1_555
C35 N4 1_555 1_555
H22 C35 1_555 1_555
H23 C35 1_555 1_555
C36 N5 1_555 1_555
H24 C36 1_555 1_555
H25 C36 1_555 1_555
C37 N5 1_555 1_555
H26 C37 1_555 1_555
C38 C37 1_555 1_555
C39 N2 1_555 1_555
H27 C39 1_555 1_555
C40 N2 1_555 1_555
H28 C40 1_555 1_555
C41 C40 1_555 1_555
C42 O14 1_555 1_555
C43 C41 1_555 1_555
H29 C43 1_555 1_555
H30 C43 1_555 1_555
H31 C43 1_555 1_555
Zn1C O3 1_555 1_555
Zn1_2 O5B 1_555 1_555
Zn1C_2 O3B 1_555 1_555
Zn2B O1B 1_555 1_555
Zn2C O4 1_555 1_555
Zn2B_2 O5B 1_555 1_555
Zn2A O4B 1_555 1_555
Zn3B O7B 1_555 1_555
Zn3C O10 1_555 1_555
Zn3B_2 O11B 1_555 1_555
Zn3C_2 O7C 1_555 1_555
Zn4C O9 1_555 1_555
Zn4_2 O11B 1_555 1_555
Zn4C_2 O8C 1_555 1_555
Cu1B O13B 1_555 1_555
O1B C1B 1_555 1_555
O2B Zn1 1_555 1_555
O3B C8B 1_555 1_555
O3C Zn1 1_555 1_555
O3A Zn1 1_555 1_555
O4B C8B 1_555 1_555
O4C Zn2 1_555 1_555
O4A Zn2B 1_555 1_555
O5B C9B 1_555 1_555
O5B_2 Zn1 1_555 1_555
O6B Zn2B_2 1_555 1_555
O6B_2 Zn2B 1_555 1_555
O7C C13C 1_555 1_555
O8C C13C 1_555 1_555
O8B Zn4 1_555 1_555
O9C Zn4 1_555 1_555
O9A Zn4 1_555 1_555
O10C Zn3 1_555 1_555
O10A Zn3B 1_555 1_555
O11B C21B 1_555 1_555
O11B_2 Zn4 1_555 1_555
O11B_3 Zn3B 1_555 1_555
O12B C21B 1_555 1_555
O13B C27B 1_555 1_555
O14B Cu1B 1_555 1_555
N1B Zn2B 1_555 1_555
N2B Zn3B 1_555 1_555
N4B Cu1B 1_555 1_555
N5B Cu1B 1_555 1_555
C1B O2B 1_555 1_555
C2B C1B 1_555 1_555
C3B C2B 1_555 1_555
H1B C3B 1_555 1_555
C4B C3B 1_555 1_555
H2B C4B 1_555 1_555
C5B C4B 1_555 1_555
C6B C5B 1_555 1_555
H3B C6B 1_555 1_555
C7B C2B 1_555 1_555
H4B C7B 1_555 1_555
C8B C5B 1_555 1_555
C9B O6B 1_555 1_555
C10B C9B 1_555 1_555
C11B C12 1_555 1_555
H5B C11B 1_555 1_555
C12B C11 1_555 1_555
H6B C12B 1_555 1_555
C13C C14C 1_555 1_555
C14C C15C 1_555 1_555
C15C H7C 1_555 1_555
C16C C15C 1_555 1_555
H8C C16C 1_555 1_555
C17C C16C 1_555 1_555
C18C C17C 1_555 1_555
H9C C18C 1_555 1_555
C19C C14C 1_555 1_555
H10C C19C 1_555 1_555
C20C O9C 1_555 1_555
C21B C22B 1_555 1_555
C22B C23B 1_555 1_555
C23B C24 1_555 1_555
C24B C23 1_555 1_555
C25B N1B 1_555 1_555
H11B C25B 1_555 1_555
C26B C25B 1_555 1_555
C27B C26B 1_555 1_555
C28B C27B 1_555 1_555
C29B N1B 1_555 1_555
H12B C29B 1_555 1_555
C30B C26B 1_555 1_555
H13B C30B 1_555 1_555
H14B C30B 1_555 1_555
H15B C30B 1_555 1_555
C34B N4B 1_555 1_555
H21B C34B 1_555 1_555
C35B N4B 1_555 1_555
H22B C35B 1_555 1_555
H23B C35B 1_555 1_555
C36B N5B 1_555 1_555
H24B C36B 1_555 1_555
H25B C36B 1_555 1_555
C37B N5B 1_555 1_555
H26B C37B 1_555 1_555
C38B C37B 1_555 1_555
C39B N2B 1_555 1_555
H27B C39B 1_555 1_555
C40B N2B 1_555 1_555
H28B C40B 1_555 1_555
C41B C40B 1_555 1_555
C42B O14B 1_555 1_555
C43B C41B 1_555 1_555
H29B C43B 1_555 1_555
H30B C43B 1_555 1_555
H31B C43B 1_555 1_555
Zn2 O5 1_555 1_555
Zn4 O11 1_555 1_555
O6 C9 1_555 1_555
C6 C7 1_555 1_555
C18 C19 1_555 1_555
C28 C29 1_555 1_555
C28 C34 1_555 1_555
C35 C36 1_555 1_555
C38 C39 1_555 1_555
C38 C42 1_555 1_555
C41 C42 1_555 1_555
Zn2B O5B_2 1_555 1_555
O10C C20C 1_555 1_555
C6B C7B 1_555 1_555
C10B C11B 1_555 1_555
C10B C12B 1_555 1_555
C17C C20C 1_555 1_555
C18C C19C 1_555 1_555
C22B C24B 1_555 1_555
C28B C29B 1_555 1_555
C28B C34B 1_555 1_555
C35B C36B 1_555 1_555
C38B C39B 1_555 1_555
C38B C42B 1_555 1_555
C41B C42B 1_555 1_555

#END
