
#######################################################################
#
#                 Cambridge Crystallographic Data Centre
#                                CCDC 
#
#######################################################################
#
# If this CIF has been generated from an entry in the Cambridge 
# Structural Database, then it will include bibliographic, chemical, 
# crystal, experimental, refinement or atomic coordinate data resulting 
# from the CCDC's data processing and validation procedures.
#
#######################################################################

data_YOPLUM
_chemical_formula_moiety         '(C38 H24 Cu3 N6 O6 2+)n,2(Cl1 O4 1-),H2 O1'
_chemical_name_systematic        
"catena-[bis(\m~3~-carbonato)-tris(\m~2~-4,4'-ethyne-1,2-diyldipyridine)-tri-copper diperchlorate monohydrate]"
_symmetry_cell_setting           hexagonal
_symmetry_space_group_name_H-M   'P 6/m'
_symmetry_Int_Tables_number      175
_space_group_name_Hall           '-P 6'
loop_
_symmetry_equiv_pos_site_id
_symmetry_equiv_pos_as_xyz
1 x,y,z
2 -y,x-y,z
3 -x+y,-x,z
4 -x,-y,z
5 y,-x+y,z
6 x-y,x,z
7 -x,-y,-z
8 y,-x+y,-z
9 x-y,x,-z
10 x,y,-z
11 -y,x-y,-z
12 -x+y,-x,-z
_cell_length_a                   9.2000(2)
_cell_length_b                   9.2000(2)
_cell_length_c                   13.6033(3)
_cell_angle_alpha                90
_cell_angle_beta                 90
_cell_angle_gamma                120
_cell_volume                     997.127
_exptl_crystal_colour            blue
_exptl_crystal_description       'hexagonal prism'
_cell_formula_units_Z            1
loop_
_atom_site_label
_atom_site_type_symbol
_atom_site_fract_x
_atom_site_fract_y
_atom_site_fract_z
Cu1 Cu 0.5000 0.0000 0.5000
O1 O 0.5118(3) 0.2182(4) 0.5000
C1 C 0.6667 0.3333 0.5000
N1 N 0.5000 0.0000 0.3529(3)
C2 C 0.4105(4) 0.0543(4) 0.3029(2)
H1 H 0.3479 0.0933 0.3385
C3 C 0.4063(4) 0.0554(4) 0.2013(2)
H2 H 0.3409 0.0932 0.1676
C4 C 0.5000 0.0000 0.1494(4)
C5 C 0.5000 0.0000 0.0444(4)
O1A O 0.7818(4) 0.2936(5) 0.5000
O1B O 0.7064(5) 0.4882(3) 0.5000
C2C C 0.5895(4) -0.0543(4) 0.3029(2)
H1C H 0.6521 -0.0933 0.3385
C3C C 0.5937(4) -0.0554(4) 0.2013(2)
H2C H 0.6591 -0.0932 0.1676
N1F N 0.5000 0.0000 -0.3529(3)
C2F C 0.5895(4) -0.0543(4) -0.3029(2)
H1F H 0.6521 -0.0933 -0.3385
C3F C 0.5937(4) -0.0554(4) -0.2013(2)
H2F H 0.6591 -0.0932 -0.1676
C4F C 0.5000 0.0000 -0.1494(4)
C5F C 0.5000 0.0000 -0.0444(4)
C2I C 0.4105(4) 0.0543(4) -0.3029(2)
H1I H 0.3479 0.0933 -0.3385
C3I C 0.4063(4) 0.0554(4) -0.2013(2)
H2I H 0.3409 0.0932 -0.1676
Cu1A Cu 1.0000 0.5000 0.5000
N1A N 1.0000 0.5000 0.3529(3)
C2A C 0.9457(4) 0.3562(6) 0.3029(2)
H1A H 0.9067 0.2546 0.3385
C3A C 0.9446(4) 0.3509(6) 0.2013(2)
H2A H 0.9068 0.2477 0.1676
C4A C 1.0000 0.5000 0.1494(4)
C5A C 1.0000 0.5000 0.0444(4)
C2D C 1.0543(4) 0.6438(6) 0.3029(2)
H1D H 1.0933 0.7454 0.3385
C3D C 1.0554(4) 0.6491(6) 0.2013(2)
H2D H 1.0932 0.7523 0.1676
N1G N 1.0000 0.5000 -0.3529(3)
C2G C 1.0543(4) 0.6438(6) -0.3029(2)
H1G H 1.0933 0.7454 -0.3385
C3G C 1.0554(4) 0.6491(6) -0.2013(2)
H2G H 1.0932 0.7523 -0.1676
C4G C 1.0000 0.5000 -0.1494(4)
C5G C 1.0000 0.5000 -0.0444(4)
C2J C 0.9457(4) 0.3562(6) -0.3029(2)
H1J H 0.9067 0.2546 -0.3385
C3J C 0.9446(4) 0.3509(6) -0.2013(2)
H2J H 0.9068 0.2477 -0.1676
Cu1B Cu 0.5000 0.5000 0.5000
N1B N 0.5000 0.5000 0.3529(3)
C2B C 0.6438(6) 0.5895(4) 0.3029(2)
H1B H 0.7454 0.6521 0.3385
C3B C 0.6491(6) 0.5937(4) 0.2013(2)
H2B H 0.7523 0.6591 0.1676
C4B C 0.5000 0.5000 0.1494(4)
C5B C 0.5000 0.5000 0.0444(4)
C2E C 0.3562(6) 0.4105(4) 0.3029(2)
H1E H 0.2546 0.3479 0.3385
C3E C 0.3509(6) 0.4063(4) 0.2013(2)
H2E H 0.2477 0.3409 0.1676
N1H N 0.5000 0.5000 -0.3529(3)
C2H C 0.3562(6) 0.4105(4) -0.3029(2)
H1H H 0.2546 0.3479 -0.3385
C3H C 0.3509(6) 0.4063(4) -0.2013(2)
H2H H 0.2477 0.3409 -0.1676
C4H C 0.5000 0.5000 -0.1494(4)
C5H C 0.5000 0.5000 -0.0444(4)
C2K C 0.6438(6) 0.5895(4) -0.3029(2)
H1K H 0.7454 0.6521 -0.3385
C3K C 0.6491(6) 0.5937(4) -0.2013(2)
H2K H 0.7523 0.6591 -0.1676
O1C O 0.4882(3) -0.2182(4) 0.5000
C1C C 0.3333 -0.3333 0.5000
O1D O 0.2182(4) -0.2936(5) 0.5000
O1E O 0.2936(5) -0.4882(3) 0.5000
Cu1_2 Cu 0.5000 0.0000 -0.5000
Cu1A_2 Cu 0.0000 -0.5000 0.5000
Cu1A_3 Cu 1.0000 0.5000 -0.5000
Cu1B_2 Cu 0.5000 -0.5000 0.5000
Cu1B_3 Cu 0.5000 0.5000 -0.5000
O1C_2 O 0.4882(3) 0.7818(4) 0.5000
O1D_2 O 1.2182(4) 0.7064(5) 0.5000
O1E_2 O 0.2936(5) 0.5118(3) 0.5000
O1E_3 O 1.2936(5) 0.5118(3) 0.5000
N1F_2 N 0.5000 0.0000 0.6471(3)
N1G_2 N 1.0000 0.5000 0.6471(3)
N1H_2 N 0.5000 0.5000 0.6471(3)
Cl1? Cl 0.019(2) 0.0061(18) -0.0076(9)
O2? O 0.181(3) 0.029(5) 0.0113(19)
O3? O -0.099(3) -0.108(2) 0.0614(13)
O4? O -0.029(4) -0.056(2) -0.1053(10)
O5? O 0.028(4) 0.166(2) -0.0011(17)
Cl2? Cl 0.006(6) 0.005(3) 0.4875(5)
O6? O -0.006(8) -0.061(4) 0.3918(8)
O7? O 0.177(6) 0.117(5) 0.512(2)
O8? O -0.088(7) 0.091(4) 0.489(3)
O9? O -0.067(6) -0.131(3) 0.5556(13)
O10? O 0.004(8) -0.051(5) 0.2589(9)
loop_
_geom_bond_atom_site_label_1
_geom_bond_atom_site_label_2
_geom_bond_site_symmetry_1
_geom_bond_site_symmetry_2
Cu1 O1 1_555 1_555
O1 C1 1_555 1_555
C1 O1A 1_555 1_555
N1 Cu1 1_555 1_555
C2 N1 1_555 1_555
H1 C2 1_555 1_555
C3 C2 1_555 1_555
H2 C3 1_555 1_555
C4 C3 1_555 1_555
C5 C4 1_555 1_555
O1A Cu1 1_555 1_555
O1B C1 1_555 1_555
C2C N1 1_555 1_555
H1C C2C 1_555 1_555
C3C C4 1_555 1_555
H2C C3C 1_555 1_555
N1F C2F 1_555 1_555
C2F H1F 1_555 1_555
C3F C2F 1_555 1_555
H2F C3F 1_555 1_555
C4F C3F 1_555 1_555
C5F C5 1_555 1_555
C2I N1F 1_555 1_555
H1I C2I 1_555 1_555
C3I C4F 1_555 1_555
H2I C3I 1_555 1_555
Cu1A O1A 1_555 1_555
N1A Cu1A 1_555 1_555
C2A N1A 1_555 1_555
H1A C2A 1_555 1_555
C3A C2A 1_555 1_555
H2A C3A 1_555 1_555
C4A C3A 1_555 1_555
C5A C4A 1_555 1_555
C2D N1A 1_555 1_555
H1D C2D 1_555 1_555
C3D C4A 1_555 1_555
H2D C3D 1_555 1_555
N1G C2G 1_555 1_555
C2G H1G 1_555 1_555
C3G C2G 1_555 1_555
H2G C3G 1_555 1_555
C4G C3G 1_555 1_555
C5G C5A 1_555 1_555
C2J N1G 1_555 1_555
H1J C2J 1_555 1_555
C3J C4G 1_555 1_555
H2J C3J 1_555 1_555
Cu1B O1 1_555 1_555
N1B Cu1B 1_555 1_555
C2B N1B 1_555 1_555
H1B C2B 1_555 1_555
C3B C2B 1_555 1_555
H2B C3B 1_555 1_555
C4B C3B 1_555 1_555
C5B C4B 1_555 1_555
C2E N1B 1_555 1_555
H1E C2E 1_555 1_555
C3E C4B 1_555 1_555
H2E C3E 1_555 1_555
N1H C2H 1_555 1_555
C2H H1H 1_555 1_555
C3H C2H 1_555 1_555
H2H C3H 1_555 1_555
C4H C3H 1_555 1_555
C5H C5B 1_555 1_555
C2K N1H 1_555 1_555
H1K C2K 1_555 1_555
C3K C4H 1_555 1_555
H2K C3K 1_555 1_555
O1C Cu1 1_555 1_555
C1C O1C 1_555 1_555
O1D Cu1 1_555 1_555
O1E C1C 1_555 1_555
Cu1_2 N1F 1_555 1_555
Cu1A_2 O1D 1_555 1_555
Cu1A_3 N1G 1_555 1_555
Cu1B_2 O1C 1_555 1_555
Cu1B_3 N1H 1_555 1_555
O1C_2 Cu1B 1_555 1_555
O1D_2 Cu1A 1_555 1_555
O1E_2 Cu1B 1_555 1_555
O1E_3 Cu1A 1_555 1_555
N1F_2 Cu1 1_555 1_555
N1G_2 Cu1A 1_555 1_555
N1H_2 Cu1B 1_555 1_555
O1B Cu1A 1_555 1_555
O1B Cu1B 1_555 1_555
C2C C3C 1_555 1_555
C4F C5F 1_555 1_555
C2I C3I 1_555 1_555
C2D C3D 1_555 1_555
C4G C5G 1_555 1_555
C2J C3J 1_555 1_555
C2E C3E 1_555 1_555
C4H C5H 1_555 1_555
C2K C3K 1_555 1_555
C1C O1D 1_555 1_555
O1E Cu1A_2 1_555 1_555
O1E Cu1B_2 1_555 1_555

#END
