
#######################################################################
#
#                 Cambridge Crystallographic Data Centre
#                                CCDC 
#
#######################################################################
#
# If this CIF has been generated from an entry in the Cambridge 
# Structural Database, then it will include bibliographic, chemical, 
# crystal, experimental, refinement or atomic coordinate data resulting 
# from the CCDC's data processing and validation procedures.
#
#######################################################################

data_VIQBII
_chemical_formula_moiety         '(C40 H50 N4 O9 Si2 Zn2)n,1.66n(H2 O1)'
_chemical_name_systematic        
"catena-[bis(\m~2~-4,4'-Ethene-1,2-diyldipyridine)-(\m~2~-4,4'-(1,1,3,3-tetramethyldisiloxane-1,3-diyl)dibutanoato)-bis(acetato-O,O')-di-zinc hydrate]"
_symmetry_cell_setting           trigonal
_symmetry_space_group_name_H-M   'P -3 1 c'
_symmetry_Int_Tables_number      163
_space_group_name_Hall           '-P 3 2c'
loop_
_symmetry_equiv_pos_site_id
_symmetry_equiv_pos_as_xyz
1 x,y,z
2 -y,x-y,z
3 -x+y,-x,z
4 -y,-x,1/2-z
5 -x+y,y,1/2-z
6 x,x-y,1/2-z
7 -x,-y,-z
8 y,-x+y,-z
9 x-y,x,-z
10 y,x,1/2+z
11 x-y,-y,1/2+z
12 -x,-x+y,1/2+z
_cell_length_a                   34.426(8)
_cell_length_b                   34.426(8)
_cell_length_c                   8.7042(10)
_cell_angle_alpha                90
_cell_angle_beta                 90
_cell_angle_gamma                120
_cell_volume                     8933.73
_cell_formula_units_Z            6
loop_
_atom_site_label
_atom_site_type_symbol
_atom_site_fract_x
_atom_site_fract_y
_atom_site_fract_z
Zn1 Zn 0.69644(4) 0.61428(4) 0.38082(13)
Si1 Si 0.88772(11) 0.80424(12) 0.4226(3)
O1 O 0.9080(2) 0.8161(4) 0.2500
O2 O 0.7524(3) 0.6696(3) 0.4996(8)
O3 O 0.6946(2) 0.6739(3) 0.4286(8)
N1 N 0.6330(3) 0.5820(3) 0.2816(9)
C1 C 0.5522(4) 0.5397(5) 0.1205(12)
C2 C 0.7312(4) 0.6897(4) 0.4930(10)
C3 C 0.6090(4) 0.6017(4) 0.2519(12)
H1 H 0.6195 0.6306 0.2883
C4 C 0.5702(4) 0.5821(5) 0.1723(13)
H2 H 0.5557 0.5981 0.1527
C5 C 0.8258(4) 0.7732(4) 0.4154(10)
H3 H 0.8161 0.7910 0.3578
H4 H 0.8161 0.7456 0.3591
C6 C 0.8020(3) 0.7616(4) 0.5708(12)
H5 H 0.8111 0.7432 0.6279
H6 H 0.8119 0.7891 0.6282
C7 C 0.9094(5) 0.7724(6) 0.5244(17)
H7 H 0.8922 0.7412 0.4671
H8 H 0.8987 0.7623 0.6172
H9 H 0.9336 0.7779 0.4988
C8 C 0.6166(4) 0.5409(5) 0.2288(15)
H10 H 0.6328 0.5264 0.2473
C9 C 0.9078(5) 0.8587(5) 0.524(2)
H11 H 0.9400 0.8750 0.5258
H12 H 0.8972 0.8759 0.4701
H13 H 0.8965 0.8533 0.6271
C10 C 0.5772(4) 0.5181(5) 0.1484(15)
H14 H 0.5673 0.4891 0.1132
C11 C 0.7518(4) 0.7372(4) 0.5616(12)
H15 H 0.7427 0.7547 0.4994
H16 H 0.7398 0.7350 0.6640
N2 N 0.7363(4) 0.6367(5) 0.1859(11)
C12 C 0.5091(4) 0.5180(4) 0.0298(14)
H17 H 0.4949 0.5348 0.0190
O4 O 0.7106(4) 0.5650(5) 0.4382(17)
C13 C 0.7806(4) 0.6415(8) -0.105(2)
C14 C 0.7190(3) 0.6362(3) 0.0457(9)
H18 H 0.6904 0.6325 0.0407
C15 C 0.7411(3) 0.6407(4) -0.0876(11)
H19 H 0.7278 0.6435 -0.1766
O5 O 0.6723(5) 0.5713(6) 0.6082(17)
C16 C 0.6919(8) 0.5510(9) 0.555(3)
C17 C 0.6937(14) 0.5259(13) 0.703(4)
H20 H 0.7248 0.5368 0.7237
H21 H 0.6799 0.5309 0.7907
H22 H 0.6790 0.4944 0.6807
C18 C 0.8003(3) 0.6385(4) -0.2435(11)
H23 H 0.7850 0.6364 -0.3338
C19 C 0.7765(5) 0.6391(6) 0.169(2)
H24 H 0.7903 0.6371 0.2582
C20 C 0.7988(7) 0.6443(7) 0.0356(17)
H25 H 0.8282 0.6502 0.0406
Si1D Si 0.91652(16) 0.80424(12) 0.0774(3)
O2D O 0.9172(4) 0.6696(3) 0.0004(8)
O3D O 0.9793(4) 0.6739(3) 0.0714(8)
C2D C 0.9585(6) 0.6897(4) 0.0070(10)
C5D C 0.9474(6) 0.7732(4) 0.0846(10)
H3D H 0.9749 0.7910 0.1422
H4D H 0.9295 0.7456 0.1409
C6D C 0.9596(5) 0.7616(4) -0.0708(12)
H5D H 0.9321 0.7432 -0.1279
H6D H 0.9772 0.7891 -0.1282
C7D C 0.8630(8) 0.7724(6) -0.0244(17)
H7D H 0.8490 0.7412 0.0329
H8D H 0.8636 0.7623 -0.1172
H9D H 0.8443 0.7779 0.0012
C9D C 0.9509(7) 0.8587(5) -0.024(2)
H11D H 0.9350 0.8750 -0.0258
H12D H 0.9787 0.8759 0.0299
H13D H 0.9568 0.8533 -0.1271
C11D C 0.9854(6) 0.7372(4) -0.0616(12)
H15D H 1.0120 0.7547 0.0006
H16D H 0.9952 0.7350 -0.1640
N1F N 0.3670(3) 0.4180(3) -0.2816(9)
C1F C 0.4478(4) 0.4603(5) -0.1205(12)
C3F C 0.3910(4) 0.3983(4) -0.2519(12)
H1F H 0.3805 0.3694 -0.2883
C4F C 0.4298(4) 0.4179(5) -0.1723(13)
H2F H 0.4443 0.4019 -0.1527
C8F C 0.3834(4) 0.4591(5) -0.2288(15)
H10F H 0.3672 0.4736 -0.2473
C10F C 0.4228(4) 0.4819(5) -0.1484(15)
H14F H 0.4327 0.5109 -0.1132
C12F C 0.4909(4) 0.4820(4) -0.0298(14)
H17F H 0.5051 0.4652 -0.0190
N2D N 0.9004(6) 0.6367(5) -0.6859(11)
C13D C 0.8609(9) 0.6415(8) -0.395(2)
C14D C 0.9172(4) 0.6362(3) -0.5457(9)
H18D H 0.9421 0.6325 -0.5407
C15D C 0.8996(5) 0.6407(4) -0.4124(11)
H19D H 0.9157 0.6435 -0.3234
C18D C 0.8382(5) 0.6385(4) -0.2565(11)
H23D H 0.8514 0.6364 -0.1662
C19D C 0.8626(8) 0.6391(6) -0.669(2)
H24D H 0.8468 0.6371 -0.7582
C20D C 0.8455(10) 0.6443(7) -0.5356(17)
H25D H 0.8220 0.6502 -0.5406
Zn1D Zn 0.91784(6) 0.61428(4) -0.88082(13)
O4D O 0.8544(6) 0.5650(5) -0.9382(17)
O5D O 0.8990(8) 0.5713(6) -1.1082(17)
C16D C 0.8591(12) 0.5510(9) -1.055(3)
C17D C 0.8322(19) 0.5259(13) -1.203(4)
H20D H 0.8120 0.5368 -1.2237
H21D H 0.8510 0.5309 -1.2907
H22D H 0.8154 0.4944 -1.1807
Zn1D_2 Zn 0.91784(6) 0.61428(4) 0.11918(13)
Zn1F Zn 0.30356(4) 0.38572(4) -0.38082(13)
O2D_2 O 0.9172(4) 0.6696(3) -0.9996(8)
O3D_2 O 0.9793(4) 0.6739(3) -0.9286(8)
N1D N 0.9490(4) 0.5820(3) -0.7816(9)
O6 O 1.0000 1.0000 0.5000
O7 O 0.5770(18) 0.3656(17) 0.557(6)
H26 H 0.5872 0.3773 0.4693
H27 H 0.5543 0.3396 0.5445
O8 O 0.544(4) 0.325(4) 0.394(12)
H28? H 0.6980 0.6457 0.0507
C21? C 0.7616(4) 0.6104(6) 0.166(2)
H29? H 0.7696 0.6009 0.2549
H30? H 0.7879 0.6429 -0.3320
C22? C 0.7852(7) 0.6161(7) 0.0356(18)
H31? H 0.814(6) 0.604(6) 0.07(2)
N3? N 0.7267(5) 0.6181(5) 0.1719(12)
C23? C 0.7009(14) 0.5135(12) 0.615(5)
H32? H 0.6959 0.4918 0.5372
H33? H 0.7316 0.5277 0.6487
H34? H 0.6814 0.4988 0.7009
C24? C 0.7752(6) 0.6317(8) -0.092(2)
O9? O 1.0000 1.0000 0.302(15)
H35? H 0.9798 1.0000 0.3587
H36? H 1.0202 1.0000 0.3587
H37? H 0.5188 0.3022 0.3993
H38? H 0.5585 0.3114 0.4058
O10? O 0.523(5) 0.330(5) 0.510(18)
H39? H 0.5191 0.3272 0.4130
H40? H 0.4988 0.3102 0.5541
O11? O 0.5952(15) 0.3881(15) 0.667(5)
H41? H 0.9866 0.9731 0.5325
H42? H 1.0000 1.0000 0.4024
H43? H 0.6189 0.4079 0.6229
H44? H 0.5986 0.3910 0.7639
loop_
_geom_bond_atom_site_label_1
_geom_bond_atom_site_label_2
_geom_bond_site_symmetry_1
_geom_bond_site_symmetry_2
Zn1 O2 1_555 1_555
Si1 O1 1_555 1_555
O1 Si1D 1_555 1_555
O2 C2 1_555 1_555
O3 Zn1 1_555 1_555
N1 Zn1 1_555 1_555
C1 C4 1_555 1_555
C2 O3 1_555 1_555
C3 N1 1_555 1_555
H1 C3 1_555 1_555
C4 C3 1_555 1_555
H2 C4 1_555 1_555
C5 Si1 1_555 1_555
H3 C5 1_555 1_555
H4 C5 1_555 1_555
C6 C5 1_555 1_555
H5 C6 1_555 1_555
H6 C6 1_555 1_555
C7 Si1 1_555 1_555
H7 C7 1_555 1_555
H8 C7 1_555 1_555
H9 C7 1_555 1_555
C8 N1 1_555 1_555
H10 C8 1_555 1_555
C9 Si1 1_555 1_555
H11 C9 1_555 1_555
H12 C9 1_555 1_555
H13 C9 1_555 1_555
C10 C1 1_555 1_555
H14 C10 1_555 1_555
C11 C2 1_555 1_555
H15 C11 1_555 1_555
H16 C11 1_555 1_555
N2 Zn1 1_555 1_555
C12 C1 1_555 1_555
H17 C12 1_555 1_555
O4 Zn1 1_555 1_555
C13 C15 1_555 1_555
C14 N2 1_555 1_555
H18 C14 1_555 1_555
C15 C14 1_555 1_555
H19 C15 1_555 1_555
O5 Zn1 1_555 1_555
C16 O4 1_555 1_555
C17 C16 1_555 1_555
H20 C17 1_555 1_555
H21 C17 1_555 1_555
H22 C17 1_555 1_555
C18 C13 1_555 1_555
H23 C18 1_555 1_555
C19 N2 1_555 1_555
H24 C19 1_555 1_555
C20 C13 1_555 1_555
H25 C20 1_555 1_555
O7 H26 1_555 1_555
H27 O7 1_555 1_555
Si1D C5D 1_555 1_555
O2D C2D 1_555 1_555
O3D C2D 1_555 1_555
C2D C11D 1_555 1_555
C5D H3D 1_555 1_555
H4D C5D 1_555 1_555
C6D C5D 1_555 1_555
H5D C6D 1_555 1_555
H6D C6D 1_555 1_555
C7D Si1D 1_555 1_555
H7D C7D 1_555 1_555
H8D C7D 1_555 1_555
H9D C7D 1_555 1_555
C9D Si1D 1_555 1_555
H11D C9D 1_555 1_555
H12D C9D 1_555 1_555
H13D C9D 1_555 1_555
C11D C6D 1_555 1_555
H15D C11D 1_555 1_555
H16D C11D 1_555 1_555
N1F C3F 1_555 1_555
C1F C4F 1_555 1_555
C3F H1F 1_555 1_555
C4F C3F 1_555 1_555
H2F C4F 1_555 1_555
C8F N1F 1_555 1_555
H10F C8F 1_555 1_555
C10F C1F 1_555 1_555
H14F C10F 1_555 1_555
C12F C12 1_555 1_555
H17F C12F 1_555 1_555
N2D C14D 1_555 1_555
C13D C15D 1_555 1_555
C14D H18D 1_555 1_555
C15D C14D 1_555 1_555
H19D C15D 1_555 1_555
C18D C18 1_555 1_555
H23D C18D 1_555 1_555
C19D N2D 1_555 1_555
H24D C19D 1_555 1_555
C20D C13D 1_555 1_555
H25D C20D 1_555 1_555
Zn1D N2D 1_555 1_555
O4D Zn1D 1_555 1_555
O5D Zn1D 1_555 1_555
C16D O4D 1_555 1_555
C17D C16D 1_555 1_555
H20D C17D 1_555 1_555
H21D C17D 1_555 1_555
H22D C17D 1_555 1_555
Zn1D_2 O2D 1_555 1_555
Zn1F N1F 1_555 1_555
O2D_2 Zn1D 1_555 1_555
O3D_2 Zn1D 1_555 1_555
N1D Zn1D 1_555 1_555
C6 C11 1_555 1_555
C8 C10 1_555 1_555
O5 C16 1_555 1_555
C19 C20 1_555 1_555
O3D Zn1D_2 1_555 1_555
C1F C12F 1_555 1_555
C8F C10F 1_555 1_555
C13D C18D 1_555 1_555
C19D C20D 1_555 1_555
O5D C16D 1_555 1_555

#END
