
#######################################################################
#
#                 Cambridge Crystallographic Data Centre
#                                CCDC 
#
#######################################################################
#
# If this CIF has been generated from an entry in the Cambridge 
# Structural Database, then it will include bibliographic, chemical, 
# crystal, experimental, refinement or atomic coordinate data resulting 
# from the CCDC's data processing and validation procedures.
#
#######################################################################

data_FIHRIZ
_chemical_formula_moiety         '(C32 H24 N4 Ni3 O14)n,3n(C4 H9 N1 O1)'
_chemical_name_systematic        
'catena-[(\m~4~-Terephthalato)-bis(\m~3~-terephthalato)-bis(\m~2~-pyrazine)-bis(\m~2~-aqua)-tri-nickel N,N-dimethylformamide solvate]'
_symmetry_cell_setting           monoclinic
_symmetry_space_group_name_H-M   'C 2/c'
_symmetry_Int_Tables_number      15
_space_group_name_Hall           '-C 2yc'
loop_
_symmetry_equiv_pos_site_id
_symmetry_equiv_pos_as_xyz
1 x,y,z
2 -x,y,1/2-z
3 1/2+x,1/2+y,z
4 1/2-x,1/2+y,1/2-z
5 -x,-y,-z
6 x,-y,1/2+z
7 1/2-x,1/2-y,-z
8 1/2+x,1/2-y,1/2+z
_cell_length_a                   18.3877(7)
_cell_length_b                   22.2348(8)
_cell_length_c                   13.2146(5)
_cell_angle_alpha                90
_cell_angle_beta                 93.580(3)
_cell_angle_gamma                90
_cell_volume                     5392.2
_exptl_crystal_colour            green
_exptl_crystal_description       Prism
_cell_formula_units_Z            4
loop_
_atom_site_label
_atom_site_type_symbol
_atom_site_fract_x
_atom_site_fract_y
_atom_site_fract_z
Ni1 Ni 1.19284(5) 0.78228(4) 0.74501(6)
Ni2 Ni 1.2500 0.7500 0.5000
O1 O 1.3031(3) 0.7821(2) 0.7387(3)
N1 N 1.0774(3) 0.7844(3) 0.7560(4)
O2 O 1.1877(2) 0.6912(2) 0.7283(3)
O3 O 1.3013(3) 0.3746(2) 0.7257(3)
O4 O 1.3379(3) 0.7809(2) 0.5802(4)
O5 O 1.1782(2) 0.7986(2) 0.5882(3)
N2 N 1.2201(3) 0.7651(3) 0.9035(4)
O6 O 1.2487(3) 0.6751(2) 0.5883(4)
O7 O 1.2721(4) 0.4014(3) 0.8819(4)
C1 C 1.1995(4) 0.7165(3) 0.9514(5)
H1 H 1.1642 0.6917 0.9198
C2 C 1.2712(4) 0.7990(3) 0.9524(5)
H2 H 1.2875 0.8336 0.9215
C3 C 1.2739(4) 0.4938(4) 0.6574(6)
H3 H 1.2913 0.4670 0.6106
C4 C 1.3487(4) 0.7822(3) 0.6744(5)
C5 C 1.2222(4) 0.6587(3) 0.6693(5)
C6 C 1.4277(4) 0.7840(3) 0.7139(5)
C7 C 1.2330(4) 0.5936(3) 0.6978(5)
C8 C 1.2801(4) 0.4117(3) 0.7903(5)
C9 C 1.0378(4) 0.8347(4) 0.7526(7)
H4 H 1.0620 0.8715 0.7539
C10 C 1.2593(4) 0.5532(3) 0.6300(5)
H5 H 1.2674 0.5659 0.5646
C11 C 1.2623(4) 0.4751(3) 0.7552(5)
C12 C 1.2179(4) 0.5743(3) 0.7945(6)
H6 H 1.1979 0.6006 0.8398
C13 C 1.2332(5) 0.5151(4) 0.8225(6)
H7 H 1.2239 0.5021 0.8874
C14 C 1.4821(4) 0.7848(4) 0.6465(6)
H8 H 1.4704 0.7851 0.5770
C15 C 1.4453(4) 0.7851(4) 0.8163(6)
H9 H 1.4084 0.7860 0.8613
C16 C 1.0372(4) 0.7341(4) 0.7544(8)
H10 H 1.0612 0.6973 0.7595
O1A O 1.6969(3) 0.7821(2) 0.7613(3)
O4A O 1.6621(3) 0.7809(2) 0.9198(4)
C4A C 1.6513(4) 0.7822(3) 0.8256(5)
C6A C 1.5723(4) 0.7840(3) 0.7861(5)
C14A C 1.5179(4) 0.7848(4) 0.8535(6)
H8A H 1.5296 0.7851 0.9230
C15A C 1.5547(4) 0.7851(4) 0.6837(6)
H9A H 1.5916 0.7860 0.6387
N1A N 0.9226(3) 0.7844(3) 0.7440(4)
C9A C 0.9622(4) 0.8347(4) 0.7474(7)
H4A H 0.9380 0.8715 0.7461
C16A C 0.9628(4) 0.7341(4) 0.7456(8)
H10A H 0.9388 0.6973 0.7405
N2F N 1.2799(3) 0.7349(3) 1.0965(4)
C1F C 1.3005(4) 0.7835(3) 1.0486(5)
H1F H 1.3358 0.8083 1.0802
C2F C 1.2288(4) 0.7010(3) 1.0476(5)
H2F H 1.2125 0.6664 1.0785
Ni1A Ni 0.80716(5) 0.78228(4) 0.75499(6)
O2A O 0.8123(2) 0.6912(2) 0.7717(3)
O3A O 0.6987(3) 0.3746(2) 0.7743(3)
O5A O 0.8218(2) 0.7986(2) 0.9118(3)
O6A O 0.7513(3) 0.6751(2) 0.9117(4)
O7A O 0.7279(4) 0.4014(3) 0.6181(4)
C3A C 0.7261(4) 0.4938(4) 0.8426(6)
H3A H 0.7087 0.4670 0.8894
C5A C 0.7778(4) 0.6587(3) 0.8307(5)
C7A C 0.7670(4) 0.5936(3) 0.8022(5)
C8A C 0.7199(4) 0.4117(3) 0.7097(5)
C10A C 0.7407(4) 0.5532(3) 0.8700(5)
H5A H 0.7326 0.5659 0.9354
C11A C 0.7377(4) 0.4751(3) 0.7448(5)
C12A C 0.7821(4) 0.5743(3) 0.7055(6)
H6A H 0.8021 0.6006 0.6602
C13A C 0.7668(5) 0.5151(4) 0.6775(6)
H7A H 0.7761 0.5021 0.6126
Ni1A_2 Ni 1.80716(5) 0.78228(4) 0.75499(6)
Ni1B Ni 0.69284(5) 0.28228(4) 0.74501(6)
Ni1C Ni 1.30716(5) 0.28228(4) 0.75499(6)
Ni1F Ni 1.30716(5) 0.71772(4) 1.25499(6)
Ni2A Ni 0.7500 0.7500 1.0000
Ni2A_2 Ni 1.7500 0.7500 1.0000
O1A_2 O 0.6969(3) 0.7821(2) 0.7613(3)
O3B O 0.8013(3) 0.8746(2) 0.7257(3)
O3C O 1.1987(3) 0.8746(2) 0.7743(3)
O4F O 1.1621(3) 0.7191(2) 0.4198(4)
O5F O 1.3218(2) 0.7014(2) 0.4118(3)
N2A N 0.7799(3) 0.7651(3) 0.5965(4)
O6F O 1.2513(3) 0.8249(2) 0.4117(4)
N3 N 0.4807(6) 0.9137(4) 0.5092(8)
O8 O 0.5893(6) 0.8915(5) 0.4710(9)
C17 C 0.5494(8) 0.9142(4) 0.5320(10)
C18 C 0.4523(9) 0.8863(6) 0.4123(12)
H11 H 0.4922 0.8712 0.3763
H12 H 0.4265 0.9162 0.3718
H13 H 0.4199 0.8539 0.4261
C19 C 0.4313(10) 0.9403(6) 0.5799(14)
H14 H 0.4591 0.9559 0.6379
H15 H 0.3982 0.9101 0.6012
H16 H 0.4042 0.9724 0.5467
C20 C 0.5771(8) 0.9425(6) 0.6317(11)
H17 H 0.6293 0.9396 0.6385
H18 H 0.5566 0.9217 0.6869
H19 H 0.5629 0.9840 0.6326
O9 O 1.0352(5) 0.8387(3) 0.5162(7)
C21 C 0.8978(10) 0.8501(7) 0.4713(13)
H20 H 0.9249 0.8369 0.5316
H21 H 0.8655 0.8187 0.4470
H22 H 0.8699 0.8851 0.4864
C22 C 1.0225(10) 0.8565(4) 0.4287(9)
C23 C 1.0754(12) 0.8705(8) 0.3544(15)
H23 H 1.1232 0.8722 0.3818
N4 N 0.9476(9) 0.8647(6) 0.3942(14)
C24 C 0.9338(17) 0.8862(10) 0.2890(14)
H24 H 0.9256 0.9272 0.2949
loop_
_geom_bond_atom_site_label_1
_geom_bond_atom_site_label_2
_geom_bond_site_symmetry_1
_geom_bond_site_symmetry_2
Ni1 O1 1_555 1_555
Ni2 O4 1_555 1_555
O1 C4 1_555 1_555
N1 Ni1 1_555 1_555
O2 Ni1 1_555 1_555
O3 C8 1_555 1_555
O4 C4 1_555 1_555
O5 Ni1 1_555 1_555
N2 Ni1 1_555 1_555
O6 Ni2 1_555 1_555
O7 C8 1_555 1_555
C1 N2 1_555 1_555
H1 C1 1_555 1_555
C2 N2 1_555 1_555
H2 C2 1_555 1_555
C3 H3 1_555 1_555
C4 C6 1_555 1_555
C5 O2 1_555 1_555
C6 C14 1_555 1_555
C7 C5 1_555 1_555
C8 C11 1_555 1_555
C9 N1 1_555 1_555
H4 C9 1_555 1_555
C10 C3 1_555 1_555
H5 C10 1_555 1_555
C11 C3 1_555 1_555
C12 C7 1_555 1_555
H6 C12 1_555 1_555
C13 C11 1_555 1_555
H7 C13 1_555 1_555
C14 H8 1_555 1_555
C15 C6 1_555 1_555
H9 C15 1_555 1_555
C16 N1 1_555 1_555
H10 C16 1_555 1_555
N3 C17 1_555 1_555
O8 C17 1_555 1_555
C17 C20 1_555 1_555
C18 N3 1_555 1_555
H11 C18 1_555 1_555
H12 C18 1_555 1_555
H13 C18 1_555 1_555
C19 N3 1_555 1_555
H14 C19 1_555 1_555
H15 C19 1_555 1_555
H16 C19 1_555 1_555
C20 H17 1_555 1_555
H18 C20 1_555 1_555
H19 C20 1_555 1_555
O9 C22 1_555 1_555
C21 H20 1_555 1_555
H21 C21 1_555 1_555
H22 C21 1_555 1_555
C22 C23 1_555 1_555
C23 H23 1_555 1_555
N4 C21 1_555 1_555
C24 N4 1_555 1_555
H24 C24 1_555 1_555
O1A C4A 1_555 1_555
O4A C4A 1_555 1_555
C4A C6A 1_555 1_555
C6A C14A 1_555 1_555
C14A C15 1_555 1_555
H8A C14A 1_555 1_555
C15A C14 1_555 1_555
H9A C15A 1_555 1_555
N1A C9A 1_555 1_555
C9A C9 1_555 1_555
H4A C9A 1_555 1_555
C16A C16 1_555 1_555
H10A C16A 1_555 1_555
N2F C1F 1_555 1_555
C1F C2 1_555 1_555
H1F C1F 1_555 1_555
C2F C1 1_555 1_555
H2F C2F 1_555 1_555
Ni1A N1A 1_555 1_555
O2A Ni1A 1_555 1_555
O3A C8A 1_555 1_555
O5A Ni1A 1_555 1_555
O6A C5A 1_555 1_555
O7A C8A 1_555 1_555
C3A H3A 1_555 1_555
C5A O2A 1_555 1_555
C7A C5A 1_555 1_555
C8A C11A 1_555 1_555
C10A C3A 1_555 1_555
H5A C10A 1_555 1_555
C11A C3A 1_555 1_555
C12A C7A 1_555 1_555
H6A C12A 1_555 1_555
C13A C11A 1_555 1_555
H7A C13A 1_555 1_555
Ni1A_2 O1A 1_555 1_555
Ni1B O3A 1_555 1_555
Ni1C O3 1_555 1_555
Ni1F N2F 1_555 1_555
Ni2A O5A 1_555 1_555
Ni2A_2 O4A 1_555 1_555
O1A_2 Ni1A 1_555 1_555
O3B Ni1A 1_555 1_555
O3C Ni1 1_555 1_555
O4F Ni2 1_555 1_555
O5F Ni2 1_555 1_555
N2A Ni1A 1_555 1_555
O6F Ni2 1_555 1_555
Ni2 O5 1_555 1_555
O6 C5 1_555 1_555
C7 C10 1_555 1_555
C12 C13 1_555 1_555
C22 N4 1_555 1_555
C6A C15A 1_555 1_555
N1A C16A 1_555 1_555
N2F C2F 1_555 1_555
O6A Ni2A 1_555 1_555
C7A C10A 1_555 1_555
C12A C13A 1_555 1_555

#END
