
#######################################################################
#
#                 Cambridge Crystallographic Data Centre
#                                CCDC 
#
#######################################################################
#
# If this CIF has been generated from an entry in the Cambridge 
# Structural Database, then it will include bibliographic, chemical, 
# crystal, experimental, refinement or atomic coordinate data resulting 
# from the CCDC's data processing and validation procedures.
#
#######################################################################

data_KEDQAN
_chemical_formula_moiety         '(C39 H25 N1 O7 Zn2)n,2n(C3 H7 N1 O1)'
_chemical_name_systematic        
"catena-((\m~6~-tris(4'-Carboxylatobiphenyl-4-yl)amine)-(\m~2~-hydroxo)-di-zinc(ii) N,N-dimethylformamide solvate)"
_symmetry_cell_setting           orthorhombic
_symmetry_space_group_name_H-M   'P c c a'
_symmetry_Int_Tables_number      54
_space_group_name_Hall           '-P 2a 2ac'
loop_
_symmetry_equiv_pos_site_id
_symmetry_equiv_pos_as_xyz
1 x,y,z
2 1/2-x,-y,z
3 -x,y,1/2-z
4 1/2+x,-y,1/2-z
5 -x,-y,-z
6 1/2+x,y,-z
7 x,-y,1/2+z
8 1/2-x,y,1/2+z
_cell_length_a                   11.980(2)
_cell_length_b                   18.625(4)
_cell_length_c                   17.982(4)
_cell_angle_alpha                90
_cell_angle_beta                 90
_cell_angle_gamma                90
_cell_volume                     4012.28
_exptl_crystal_colour            yellow
_exptl_crystal_description       block
_cell_formula_units_Z            4
loop_
_atom_site_label
_atom_site_type_symbol
_atom_site_fract_x
_atom_site_fract_y
_atom_site_fract_z
Zn1 Zn -0.38990(2) 0.490870(17) 0.197350(16)
O1 O -0.2500 -0.5000 -0.35254(16)
H1 H -0.2500 -0.5000 -0.4043
C1 C -0.3845(3) -0.27880(18) 0.20708(17)
H2 H -0.3745 -0.2928 0.2563
O2 O -0.42306(17) 0.38932(10) 0.21561(12)
C2 C -0.4316(3) 0.23959(16) 0.20231(18)
H3 H -0.3843 0.2642 0.1701
C3 C -0.5000 -0.1050(2) 0.2500
C4 C -0.4491(3) -0.21982(15) 0.19116(15)
C5 C -0.5000 0.1265(2) 0.2500
N1 N -0.5000 -0.18067(17) 0.2500
C6 C -0.5000 0.35845(19) 0.2500
C7 C -0.5000 0.27785(19) 0.2500
C8 C -0.3274(3) -0.3454(2) -0.05418(17)
H4 H -0.3969 -0.3262 -0.0658
C9 C -0.4325(3) 0.16557(17) 0.20183(19)
H5 H -0.3869 0.1412 0.1685
C10 C -0.5000 0.0469(2) 0.2500
C11 C -0.2854(3) -0.33776(16) 0.01772(16)
C12 C -0.3469(3) -0.29836(16) 0.07693(16)
C13 C -0.4153(3) 0.00747(16) 0.2166(2)
H6 H -0.3574 0.0318 0.1931
C14 C -0.3342(3) -0.31753(16) 0.15068(16)
H7 H -0.2909 -0.3573 0.1626
C15 C -0.4143(3) -0.06660(16) 0.2170(2)
H8 H -0.3553 -0.0910 0.1949
C16 C -0.1811(3) -0.36722(18) 0.03282(16)
H9 H -0.1512 -0.3628 0.0803
C17 C -0.4658(3) -0.20126(18) 0.11744(18)
H10 H -0.5109 -0.1622 0.1057
C18 C -0.4156(3) -0.2405(2) 0.06079(18)
H11 H -0.4283 -0.2277 0.0115
O3 O -0.13960(17) -0.45150(12) -0.21489(11)
O4 O -0.00559(17) -0.47355(12) -0.13234(11)
C19 C -0.1631(2) -0.40982(15) -0.09275(15)
C20 C -0.1207(2) -0.40304(18) -0.02173(18)
H12 H -0.0513 -0.4226 -0.0103
C21 C -0.2674(3) -0.3812(2) -0.10836(18)
H13 H -0.2972 -0.3862 -0.1558
C22 C -0.0980(2) -0.44770(15) -0.15069(16)
Zn1B Zn -0.61010(2) 0.490870(17) 0.302650(16)
Zn1G Zn -0.11010(2) -0.509130(17) -0.302650(16)
Zn1E Zn 0.11010(2) -0.509130(17) -0.197350(16)
Zn1E_2 Zn -0.88990(2) -0.509130(17) 0.802650(16)
Zn1G_2 Zn -1.11010(2) -0.509130(17) 0.697350(16)
Zn1F Zn -0.38990(2) -0.490870(17) -0.302650(16)
O1F O -0.2500 0.5000 0.14746(16)
H1F H -0.2500 0.5000 0.0957
C1B C -0.6155(3) -0.27880(18) 0.29292(17)
H2B H -0.6255 -0.2928 0.2437
O2B O -0.57694(17) 0.38932(10) 0.28439(12)
O2G O -0.07694(17) -0.61068(10) -0.28439(12)
C2B C -0.5684(3) 0.23959(16) 0.29769(18)
H3B H -0.6157 0.2642 0.3299
C4B C -0.5509(3) -0.21982(15) 0.30884(15)
C8B C -0.6726(3) -0.3454(2) 0.55418(17)
H4B H -0.6031 -0.3262 0.5658
C9B C -0.5675(3) 0.16557(17) 0.29817(19)
H5B H -0.6131 0.1412 0.3315
C11B C -0.7146(3) -0.33776(16) 0.48228(16)
C12B C -0.6531(3) -0.29836(16) 0.42307(16)
C13B C -0.5847(3) 0.00747(16) 0.2834(2)
H6B H -0.6426 0.0318 0.3069
C14B C -0.6658(3) -0.31753(16) 0.34932(16)
H7B H -0.7091 -0.3573 0.3374
C15B C -0.5857(3) -0.06660(16) 0.2830(2)
H8B H -0.6447 -0.0910 0.3051
C16B C -0.8189(3) -0.36722(18) 0.46718(16)
H9B H -0.8488 -0.3628 0.4197
C17B C -0.5342(3) -0.20126(18) 0.38256(18)
H10B H -0.4891 -0.1622 0.3943
C18B C -0.5844(3) -0.2405(2) 0.43921(18)
H11B H -0.5717 -0.2277 0.4885
O3B O -0.86040(17) -0.45150(12) 0.71489(11)
O3G O -0.36040(17) 0.54850(12) 0.28511(11)
O4B O -0.99441(17) -0.47355(12) 0.63234(11)
O4E O -0.50559(17) 0.52645(12) 0.13234(11)
O4B_2 O 0.00559(17) -0.47355(12) -0.36766(11)
C19B C -0.8369(2) -0.40982(15) 0.59275(15)
C20B C -0.8793(2) -0.40304(18) 0.52173(18)
H12B H -0.9487 -0.4226 0.5103
C21B C -0.7326(3) -0.3812(2) 0.60836(18)
H13B H -0.7028 -0.3862 0.6558
C22B C -0.9020(2) -0.44770(15) 0.65069(16)
N2 N -0.2899(7) 0.8912(6) 0.9510(4)
C23 C -0.2719(7) 0.8482(8) 0.8876(6)
H14 H -0.3360 0.8183 0.8792
H15 H -0.2074 0.8185 0.8953
H16 H -0.2600 0.8784 0.8451
O5 O -0.2096(9) 0.9016(7) 1.0553(6)
C24 C -0.3904(9) 0.9387(8) 0.9512(7)
H17 H -0.3771 0.9795 0.9198
H18 H -0.4052 0.9546 1.0010
H19 H -0.4536 0.9123 0.9328
C25 C -0.2267(11) 0.8824(10) 1.0096(5)
H20 H -0.1830 0.8418 1.0024
loop_
_geom_bond_atom_site_label_1
_geom_bond_atom_site_label_2
_geom_bond_site_symmetry_1
_geom_bond_site_symmetry_2
Zn1 O2 1_555 1_555
O1 H1 1_555 1_555
C1 H2 1_555 1_555
O2 C6 1_555 1_555
C2 H3 1_555 1_555
C3 N1 1_555 1_555
C4 C1 1_555 1_555
C5 C9 1_555 1_555
N1 C4 1_555 1_555
C6 C7 1_555 1_555
C7 C2 1_555 1_555
C8 H4 1_555 1_555
C9 C2 1_555 1_555
H5 C9 1_555 1_555
C10 C5 1_555 1_555
C11 C8 1_555 1_555
C12 C11 1_555 1_555
C13 C10 1_555 1_555
H6 C13 1_555 1_555
C14 C1 1_555 1_555
H7 C14 1_555 1_555
C15 C3 1_555 1_555
H8 C15 1_555 1_555
C16 C11 1_555 1_555
H9 C16 1_555 1_555
C17 C4 1_555 1_555
H10 C17 1_555 1_555
C18 C12 1_555 1_555
H11 C18 1_555 1_555
O3 C22 1_555 1_555
O4 C22 1_555 1_555
C19 C20 1_555 1_555
C20 C16 1_555 1_555
H12 C20 1_555 1_555
C21 C8 1_555 1_555
H13 C21 1_555 1_555
C22 C19 1_555 1_555
N2 C23 1_555 1_555
C23 H14 1_555 1_555
H15 C23 1_555 1_555
H16 C23 1_555 1_555
O5 C25 1_555 1_555
C24 N2 1_555 1_555
H17 C24 1_555 1_555
H18 C24 1_555 1_555
H19 C24 1_555 1_555
C25 N2 1_555 1_555
H20 C25 1_555 1_555
Zn1B O2B 1_555 1_555
Zn1G O1 1_555 1_555
Zn1E O4 1_555 1_555
Zn1E_2 O3B 1_555 1_555
Zn1G_2 O4B 1_555 1_555
Zn1F O1 1_555 1_555
O1F Zn1 1_555 1_555
H1F O1F 1_555 1_555
C1B H2B 1_555 1_555
O2B C6 1_555 1_555
O2G Zn1G 1_555 1_555
C2B C7 1_555 1_555
H3B C2B 1_555 1_555
C4B N1 1_555 1_555
C8B H4B 1_555 1_555
C9B C5 1_555 1_555
H5B C9B 1_555 1_555
C11B C8B 1_555 1_555
C12B C11B 1_555 1_555
C13B C10 1_555 1_555
H6B C13B 1_555 1_555
C14B C1B 1_555 1_555
H7B C14B 1_555 1_555
C15B C3 1_555 1_555
H8B C15B 1_555 1_555
C16B C11B 1_555 1_555
H9B C16B 1_555 1_555
C17B C4B 1_555 1_555
H10B C17B 1_555 1_555
C18B C12B 1_555 1_555
H11B C18B 1_555 1_555
O3B C22B 1_555 1_555
O3G Zn1 1_555 1_555
O4B C22B 1_555 1_555
O4E Zn1 1_555 1_555
O4B_2 Zn1G 1_555 1_555
C19B C20B 1_555 1_555
C20B C16B 1_555 1_555
H12B C20B 1_555 1_555
C21B C8B 1_555 1_555
H13B C21B 1_555 1_555
C22B C19B 1_555 1_555
C12 C14 1_555 1_555
C13 C15 1_555 1_555
C17 C18 1_555 1_555
O3 Zn1G 1_555 1_555
C19 C21 1_555 1_555
C1B C4B 1_555 1_555
C2B C9B 1_555 1_555
C12B C14B 1_555 1_555
C13B C15B 1_555 1_555
C17B C18B 1_555 1_555
C19B C21B 1_555 1_555

#END
