
#######################################################################
#
#                 Cambridge Crystallographic Data Centre
#                                CCDC 
#
#######################################################################
#
# If this CIF has been generated from an entry in the Cambridge 
# Structural Database, then it will include bibliographic, chemical, 
# crystal, experimental, refinement or atomic coordinate data resulting 
# from the CCDC's data processing and validation procedures.
#
#######################################################################

data_JAZHOK
_chemical_name_common            FDM-5
_chemical_formula_moiety         '(C40 H28 Cu9 N20 O24 Zn6 1+)n,H5 O4 Zn1 1-'
_chemical_name_systematic        
'catena-[decakis(\m-pyrazol-1-yl-4-carboxylato)-tetra-aqua-nona-copper(i)-hexa-zinc(ii) trihydroxo-aqua-zinc unknown solvate]'
_symmetry_cell_setting           tetragonal
_symmetry_space_group_name_H-M   'I 4/m'
_symmetry_Int_Tables_number      87
_space_group_name_Hall           '-I 4'
loop_
_symmetry_equiv_pos_site_id
_symmetry_equiv_pos_as_xyz
1 x,y,z
2 -x,-y,z
3 -y,x,z
4 y,-x,z
5 1/2+x,1/2+y,1/2+z
6 1/2-x,1/2-y,1/2+z
7 1/2-y,1/2+x,1/2+z
8 1/2+y,1/2-x,1/2+z
9 -x,-y,-z
10 x,y,-z
11 y,-x,-z
12 -y,x,-z
13 1/2-x,1/2-y,1/2-z
14 1/2+x,1/2+y,1/2-z
15 1/2+y,1/2-x,1/2-z
16 1/2-y,1/2+x,1/2-z
_cell_length_a                   30.220(2)
_cell_length_b                   30.220(2)
_cell_length_c                   34.323(6)
_cell_angle_alpha                90
_cell_angle_beta                 90
_cell_angle_gamma                90
_cell_volume                     31345.4
_exptl_crystal_colour            blue
_exptl_crystal_description       block
_cell_formula_units_Z            8
loop_
_atom_site_label
_atom_site_type_symbol
_atom_site_fract_x
_atom_site_fract_y
_atom_site_fract_z
_atom_site_U_iso_or_equiv
_atom_site_thermal_displace_type
Zn1 Zn 0.25633(5) 1.05262(5) 1.0000 0.0624 Uani
O1 O 0.3091(4) 1.0102(4) 0.9765(5) 0.2447 Uani
C1 C 0.3289(9) 0.9978(9) 1.0000 0.2253 Uani
Zn2 Zn 0.65913(5) 0.60373(5) 0.5000 0.0653 Uani
Zn3 Zn 0.71146(5) 0.95607(5) 0.82114(5) 0.1002 Uani
Zn4 Zn 0.62344(5) 0.94579(4) 0.76382(4) 0.0849 Uani
Cu1 Cu 0.83135(5) 0.68455(5) 0.67363(5) 0.1030 Uani
Cu2 Cu 0.57502(7) 0.92669(9) 1.0000 0.1037 Uani
Cu3 Cu 0.73947(6) 0.74441(6) 0.67180(6) 0.1280 Uani
Cu4 Cu 0.82335(6) 0.76375(7) 0.73381(6) 0.1341 Uani
Cu5 Cu 0.48537(5) 0.94359(8) 0.95143(5) 0.1317 Uani
N1 N 0.7884(3) 0.6740(3) 0.6374(2) 0.0897 Uani
N2 N 0.8734(3) 0.7293(3) 0.7338(3) 0.1153 Uani
N3 N 0.7475(3) 0.6984(3) 0.6380(3) 0.1053 Uani
N4 N 0.7387(4) 0.7921(4) 0.7053(4) 0.1420 Uani
N5 N 0.7750(4) 0.7993(3) 0.7315(3) 0.1330 Uani
N6 N 0.8766(3) 0.6943(3) 0.7078(3) 0.1010 Uani
C2 C 0.7458(3) 0.6469(3) 0.5903(3) 0.0807 Uani
C3 C 0.7852(3) 0.6436(3) 0.6113(3) 0.0903 Uani
H1 H 0.8071 0.6216 0.6068 0.1090 Uiso
C4 C 0.7314(4) 0.6192(3) 0.5587(3) 0.0847 Uani
C5 C 0.9142(4) 0.6747(4) 0.7148(3) 0.0997 Uani
H2 H 0.9253 0.6503 0.7004 0.1190 Uiso
C6 C 0.7235(4) 0.6814(4) 0.6081(4) 0.1107 Uani
H3 H 0.6951 0.6918 0.6005 0.1330 Uiso
C7 C 0.7001(7) 0.8884(5) 0.7609(5) 0.1343 Uani
C8 C 0.9359(4) 0.6938(4) 0.7458(3) 0.0963 Uani
C9 C 0.7635(5) 0.8345(5) 0.7548(4) 0.1387 Uani
H4 H 0.7803 0.8456 0.7760 0.1670 Uiso
C10 C 0.7228(5) 0.8510(4) 0.7420(4) 0.1257 Uani
C11 C 0.7082(4) 0.8234(4) 0.7126(4) 0.1180 Uani
H5 H 0.6806 0.8261 0.6995 0.1420 Uiso
C12 C 0.9086(4) 0.7292(5) 0.7558(4) 0.1190 Uani
H6 H 0.9148 0.7502 0.7757 0.1430 Uiso
O2 O 0.7583(2) 0.5915(2) 0.5449(2) 0.0960 Uani
O3 O 0.6926(3) 0.6263(2) 0.5445(2) 0.1003 Uani
O4 O 0.7227(3) 0.9097(3) 0.7868(3) 0.1340 Uani
O5 O 0.6626(3) 0.8991(3) 0.7477(3) 0.1207 Uani
O6 O 0.6028(2) 0.9395(2) 0.8157(2) 0.1053 Uani
O7 O 1.0018(3) 0.6497(3) 0.7498(3) 0.1377 Uani
O8 O 0.9915(2) 0.7061(3) 0.7922(3) 0.1260 Uani
O9 O 0.6639(3) 0.9404(3) 0.8530(2) 0.1343 Uani
C13 C 0.6233(5) 0.9388(4) 0.8490(3) 0.0977 Uani
C14 C 0.5958(4) 0.9342(3) 0.8848(3) 0.0923 Uani
C15 C 0.6098(4) 0.9290(4) 0.9216(3) 0.1000 Uani
H7 H 0.6400 0.9264 0.9288 0.1200 Uiso
C16 C 0.9796(4) 0.6821(5) 0.7645(3) 0.1143 Uani
C17 C 0.5486(4) 0.9357(5) 0.8891(4) 0.1280 Uani
H8 H 0.5281 0.9378 0.8682 0.1540 Uiso
N7 N 0.5755(3) 0.9279(3) 0.9478(3) 0.0997 Uani
N8 N 0.5382(3) 0.9338(4) 0.9251(3) 0.1193 Uani
C18 C 0.5331(5) 0.6490(4) 0.5000 0.0690 Uani
O10 O 0.6108(3) 0.6458(3) 0.5000 0.1223 Uani
C19 C 0.5268(4) 0.6924(6) 0.5000 0.0880 Uani
H9 H 0.5500 0.7137 0.5000 0.1060 Uiso
N9 N 0.4831(3) 0.7027(3) 0.5000 0.0773 Uani
C20 C 0.4920(5) 0.6307(5) 0.5000 0.0937 Uani
H10 H 0.4862 0.5998 0.5000 0.1130 Uiso
N10 N 0.4611(3) 0.6619(3) 0.5000 0.0670 Uani
O11 O 0.7680(3) 0.9577(3) 0.8518(3) 0.1463 Uani
O12 O 0.5735(5) 0.9414(4) 0.7280(4) 0.2190 Uani
N11 N 0.4356(3) 0.9556(3) 0.9802(3) 0.1223 Uani
C21 C 0.3958(4) 0.9704(5) 0.9690(6) 0.1670 Uani
H11 H 0.3869 0.9746 0.9428 0.2000 Uiso
C22 C 0.3706(6) 0.9783(7) 1.0000 0.1610 Uani
C23 C 0.5763(6) 0.6282(7) 0.5000 0.1013 Uani
O13 O 0.5762(5) 0.5908(6) 0.5169(5) 0.1320 Uani
O1I O 0.3091(4) 1.0102(4) 1.0235(5) 0.2447 Uani
N11I N 0.4356(3) 0.9556(3) 1.0198(3) 0.1223 Uani
C21I C 0.3958(4) 0.9704(5) 1.0310(6) 0.1670 Uani
H11I H 0.3869 0.9746 1.0572 0.2000 Uiso
O13I O 0.5762(5) 0.5908(6) 0.4831(5) 0.1320 Uani
Zn3D Zn 0.21146(5) 1.45607(5) 1.32114(5) 0.1002 Uani
Zn4D Zn 0.12344(5) 1.44579(4) 1.26382(4) 0.0849 Uani
Cu1D Cu 0.33135(5) 1.18455(5) 1.17363(5) 0.1030 Uani
Cu3D Cu 0.23947(6) 1.24441(6) 1.17180(6) 0.1280 Uani
Cu4D Cu 0.32335(6) 1.26375(7) 1.23381(6) 0.1341 Uani
Cu5D Cu -0.01463(5) 1.44359(8) 1.45143(5) 0.1317 Uani
N1D N 0.2884(3) 1.1740(3) 1.1374(2) 0.0897 Uani
N2D N 0.3734(3) 1.2293(3) 1.2338(3) 0.1153 Uani
N3D N 0.2475(3) 1.1984(3) 1.1380(3) 0.1053 Uani
N4D N 0.2387(4) 1.2921(4) 1.2053(4) 0.1420 Uani
N5D N 0.2750(4) 1.2993(3) 1.2315(3) 0.1330 Uani
N6D N 0.3766(3) 1.1943(3) 1.2078(3) 0.1010 Uani
C2D C 0.2458(3) 1.1469(3) 1.0903(3) 0.0807 Uani
C3D C 0.2852(3) 1.1436(3) 1.1113(3) 0.0903 Uani
H1D H 0.3071 1.1216 1.1068 0.1090 Uiso
C4D C 0.2314(4) 1.1192(3) 1.0587(3) 0.0847 Uani
C5D C 0.4142(4) 1.1747(4) 1.2148(3) 0.0997 Uani
H2D H 0.4253 1.1503 1.2004 0.1190 Uiso
C6D C 0.2235(4) 1.1814(4) 1.1081(4) 0.1107 Uani
H3D H 0.1951 1.1918 1.1005 0.1330 Uiso
C7D C 0.2001(7) 1.3884(5) 1.2609(5) 0.1343 Uani
C8D C 0.4359(4) 1.1938(4) 1.2458(3) 0.0963 Uani
C9D C 0.2635(5) 1.3345(5) 1.2548(4) 0.1387 Uani
H4D H 0.2803 1.3456 1.2760 0.1670 Uiso
C10D C 0.2228(5) 1.3510(4) 1.2420(4) 0.1257 Uani
C11D C 0.2082(4) 1.3234(4) 1.2126(4) 0.1180 Uani
H5D H 0.1806 1.3261 1.1995 0.1420 Uiso
C12D C 0.4086(4) 1.2292(5) 1.2558(4) 0.1190 Uani
H6D H 0.4148 1.2502 1.2757 0.1430 Uiso
O2D O 0.2583(2) 1.0915(2) 1.0449(2) 0.0960 Uani
O3D O 0.1926(3) 1.1263(2) 1.0445(2) 0.1003 Uani
O4D O 0.2227(3) 1.4097(3) 1.2868(3) 0.1340 Uani
O5D O 0.1626(3) 1.3991(3) 1.2477(3) 0.1207 Uani
O6D O 0.1028(2) 1.4395(2) 1.3157(2) 0.1053 Uani
O7D O 0.5018(3) 1.1497(3) 1.2498(3) 0.1377 Uani
O8D O 0.4915(2) 1.2061(3) 1.2922(3) 0.1260 Uani
O9D O 0.1639(3) 1.4404(3) 1.3530(2) 0.1343 Uani
C13D C 0.1233(5) 1.4388(4) 1.3490(3) 0.0977 Uani
C14D C 0.0958(4) 1.4342(3) 1.3848(3) 0.0923 Uani
C15D C 0.1098(4) 1.4290(4) 1.4216(3) 0.1000 Uani
H7D H 0.1400 1.4264 1.4288 0.1200 Uiso
C16D C 0.4796(4) 1.1821(5) 1.2645(3) 0.1143 Uani
C17D C 0.0486(4) 1.4357(5) 1.3891(4) 0.1280 Uani
H8D H 0.0281 1.4378 1.3682 0.1540 Uiso
N7D N 0.0755(3) 1.4279(3) 1.4478(3) 0.0997 Uani
N8D N 0.0382(3) 1.4338(4) 1.4251(3) 0.1193 Uani
O11D O 0.2680(3) 1.4577(3) 1.3518(3) 0.1463 Uani
O12D O 0.0735(5) 1.4414(4) 1.2280(4) 0.2190 Uani
Zn1D Zn 0.75633(5) 0.55262(5) 0.5000 0.0624 Uani
Zn1F Zn 0.44738(5) 0.75633(5) 0.5000 0.0624 Uani
Zn2B Zn 0.39627(5) 0.65913(5) 0.5000 0.0653 Uani
Zn2D Zn 0.15913(5) 1.10373(5) 1.0000 0.0653 Uani
Zn3B Zn 1.04393(5) 0.71146(5) 0.82114(5) 0.1002 Uani
Zn3F Zn 0.54393(5) 1.21146(5) 1.32114(5) 0.1002 Uani
Zn4B Zn 1.05421(4) 0.62344(5) 0.76382(4) 0.0849 Uani
Zn4F Zn 0.55421(4) 1.12344(5) 1.26382(4) 0.0849 Uani
Cu2D Cu 0.07502(7) 1.42669(9) 1.5000 0.1037 Uani
Cu5I Cu 0.48537(5) 0.94359(8) 1.04857(5) 0.1317 Uani
O2M O 0.2583(2) 1.0915(2) 0.9551(2) 0.0960 Uani
O3I O 0.6926(3) 0.6263(2) 0.4555(2) 0.1003 Uani
O7C O 0.6497(3) 0.9982(3) 0.7498(3) 0.1377 Uani
O7G O 0.1497(3) 1.4982(3) 1.2498(3) 0.1377 Uani
O8C O 0.7061(3) 1.0085(2) 0.7922(3) 0.1260 Uani
O8G O 0.2061(3) 1.5085(2) 1.2922(3) 0.1260 Uani
N7I N 0.5755(3) 0.9279(3) 1.0522(3) 0.0997 Uani
N9G N 0.2027(3) 1.0169(3) 1.0000 0.0773 Uani
N10C N 0.6619(3) 0.5389(3) 0.5000 0.0670 Uani
N11D N -0.0644(3) 1.4556(3) 1.4802(3) 0.1223 Uani
loop_
_atom_site_aniso_label
_atom_site_aniso_U_11
_atom_site_aniso_U_22
_atom_site_aniso_U_33
_atom_site_aniso_U_23
_atom_site_aniso_U_13
_atom_site_aniso_U_12
Zn1 0.0435(10) 0.0586(11) 0.0851(11) 0.000 0.000 0.0032(7)
O1 0.104(8) 0.211(10) 0.419(18) 0.139(10) 0.033(9) 0.004(7)
C1 0.096(19) 0.21(2) 0.37(3) 0.000 0.000 -0.038(18)
Zn2 0.0446(10) 0.0539(10) 0.0975(12) 0.000 0.000 -0.0015(7)
Zn3 0.1040(12) 0.0869(11) 0.1096(11) 0.0152(8) -0.0222(9) 0.0129(8)
Zn4 0.0952(10) 0.0748(9) 0.0847(9) -0.0031(7) -0.0082(7) 0.0152(7)
Cu1 0.0928(12) 0.1039(13) 0.1123(12) -0.0292(9) -0.0361(9) 0.0247(9)
Cu2 0.0694(14) 0.158(2) 0.0838(14) 0.000 0.000 0.0320(14)
Cu3 0.1156(14) 0.1191(15) 0.1494(16) -0.0627(12) -0.0360(12) 0.0449(11)
Cu4 0.1173(15) 0.1306(16) 0.1545(18) -0.0564(13) -0.0230(12) 0.0334(12)
Cu5 0.0699(11) 0.210(2) 0.1153(14) 0.0189(13) -0.0045(10) 0.0256(12)
N1 0.089(6) 0.078(6) 0.102(6) -0.020(5) -0.030(5) 0.022(5)
N2 0.088(7) 0.129(9) 0.129(8) -0.052(7) -0.042(6) 0.034(6)
N3 0.079(6) 0.109(7) 0.128(7) -0.053(6) -0.029(5) 0.029(5)
N4 0.113(8) 0.131(9) 0.182(11) -0.070(8) -0.022(8) 0.063(7)
N5 0.142(10) 0.105(8) 0.152(10) -0.062(7) -0.018(8) 0.017(7)
N6 0.090(7) 0.098(7) 0.115(7) -0.024(6) -0.029(5) 0.038(6)
C2 0.060(6) 0.066(7) 0.116(8) -0.021(6) -0.006(6) 0.015(5)
C3 0.083(7) 0.070(7) 0.118(8) -0.041(6) -0.052(6) 0.038(5)
C4 0.103(9) 0.067(7) 0.084(7) -0.019(6) -0.001(7) -0.008(7)
C5 0.095(9) 0.109(9) 0.095(8) -0.035(7) -0.007(7) 0.006(7)
C6 0.089(8) 0.100(9) 0.143(10) -0.051(8) -0.033(8) 0.007(7)
C7 0.192(18) 0.093(11) 0.118(12) -0.037(9) 0.031(12) 0.025(11)
C8 0.097(9) 0.092(9) 0.100(8) -0.018(7) 0.016(7) -0.020(7)
C9 0.162(14) 0.128(12) 0.126(11) -0.050(10) -0.028(10) 0.006(10)
C10 0.162(14) 0.098(10) 0.117(10) -0.030(9) -0.018(9) 0.031(9)
C11 0.127(10) 0.103(10) 0.124(10) -0.032(8) 0.018(8) 0.052(8)
C12 0.087(9) 0.149(13) 0.121(10) -0.042(9) -0.020(8) 0.002(8)
O2 0.097(5) 0.075(5) 0.116(5) -0.031(4) -0.025(4) 0.024(4)
O3 0.100(6) 0.091(5) 0.110(5) -0.013(4) -0.017(5) 0.018(4)
O4 0.144(8) 0.127(8) 0.131(7) -0.026(6) 0.015(6) 0.026(6)
O5 0.135(8) 0.084(6) 0.143(7) -0.007(5) 0.002(6) 0.030(5)
O6 0.107(6) 0.125(6) 0.084(5) -0.010(4) -0.008(4) -0.013(5)
O7 0.121 0.169 0.123 -0.038 -0.022 0.024
O8 0.087 0.166 0.125 -0.049 -0.026 0.023
O9 0.123(7) 0.191(9) 0.089(5) 0.024(5) 0.014(5) 0.094(7)
C13 0.133(11) 0.102(9) 0.058(7) -0.011(6) 0.001(8) 0.062(8)
C14 0.092(9) 0.091(8) 0.094(9) -0.008(6) -0.015(7) 0.046(6)
C15 0.081(8) 0.143(11) 0.076(7) 0.009(7) -0.001(6) 0.042(7)
C16 0.082 0.177 0.084 -0.041 -0.019 -0.02
C17 0.074(9) 0.223(16) 0.087(9) -0.004(9) -0.005(7) 0.000(9)
N7 0.071(6) 0.130(8) 0.098(7) -0.008(6) -0.012(6) 0.017(5)
N8 0.097(8) 0.186(11) 0.075(7) 0.005(6) -0.004(6) 0.008(7)
C18 0.075(9) 0.040(7) 0.092(9) 0.000 0.000 0.018(7)
O10 0.043(6) 0.100(8) 0.224(14) 0.000 0.000 -0.010(6)
C19 0.035 0.116 0.113 0 0 0.022
N9 0.046 0.054 0.132 0 0 0.004
C20 0.068(10) 0.061(10) 0.152(14) 0.000 0.000 0.007(9)
N10 0.049 0.04 0.112 0 0 -0.007
O11 0.146(8) 0.146(8) 0.147(8) 0.037(6) -0.016(6) -0.032(6)
O12 0.276(15) 0.180(11) 0.201(12) 0.048(9) -0.102(11) -0.078(10)
N11 0.064(6) 0.138(8) 0.165(9) 0.028(6) -0.014(5) 0.044(5)
C21 0.070(10) 0.160(12) 0.271(18) 0.044(12) -0.030(10) 0.016(9)
C22 0.044(12) 0.119(14) 0.32(3) 0.000 0.000 0.011(11)
C23 0.078(11) 0.095(11) 0.131(12) 0.000 0.000 0.017(10)
O13 0.083(9) 0.154(12) 0.159(15) -0.004(10) -0.015(8) 0.044(9)
O1I 0.104 0.211 0.419 -0.139 -0.033 0.004
N11I 0.064 0.138 0.165 -0.028 0.014 0.044
C21I 0.07 0.16 0.271 -0.044 0.03 0.016
O13I 0.083 0.154 0.159 0.004 0.015 0.044
Zn3D 0.104 0.0869 0.1096 0.0152 -0.0222 0.0129
Zn4D 0.0952 0.0748 0.0847 -0.0031 -0.0082 0.0152
Cu1D 0.0928 0.1039 0.1123 -0.0292 -0.0361 0.0247
Cu3D 0.1156 0.1191 0.1494 -0.0627 -0.036 0.0449
Cu4D 0.1173 0.1306 0.1545 -0.0564 -0.023 0.0334
Cu5D 0.0699 0.21 0.1153 0.0189 -0.0045 0.0256
N1D 0.089 0.078 0.102 -0.02 -0.03 0.022
N2D 0.088 0.129 0.129 -0.052 -0.042 0.034
N3D 0.079 0.109 0.128 -0.053 -0.029 0.029
N4D 0.113 0.131 0.182 -0.07 -0.022 0.063
N5D 0.142 0.105 0.152 -0.062 -0.018 0.017
N6D 0.09 0.098 0.115 -0.024 -0.029 0.038
C2D 0.06 0.066 0.116 -0.021 -0.006 0.015
C3D 0.083 0.07 0.118 -0.041 -0.052 0.038
C4D 0.103 0.067 0.084 -0.019 -0.001 -0.008
C5D 0.095 0.109 0.095 -0.035 -0.007 0.006
C6D 0.089 0.1 0.143 -0.051 -0.033 0.007
C7D 0.192 0.093 0.118 -0.037 0.031 0.025
C8D 0.097 0.092 0.1 -0.018 0.016 -0.02
C9D 0.162 0.128 0.126 -0.05 -0.028 0.006
C10D 0.162 0.098 0.117 -0.03 -0.018 0.031
C11D 0.127 0.103 0.124 -0.032 0.018 0.052
C12D 0.087 0.149 0.121 -0.042 -0.02 0.002
O2D 0.097 0.075 0.116 -0.031 -0.025 0.024
O3D 0.1 0.091 0.11 -0.013 -0.017 0.018
O4D 0.144 0.127 0.131 -0.026 0.015 0.026
O5D 0.135 0.084 0.143 -0.007 0.002 0.03
O6D 0.107 0.125 0.084 -0.01 -0.008 -0.013
O7D 0.121 0.169 0.123 -0.038 -0.022 0.024
O8D 0.087 0.166 0.125 -0.049 -0.026 0.023
O9D 0.123 0.191 0.089 0.024 0.014 0.094
C13D 0.133 0.102 0.058 -0.011 0.001 0.062
C14D 0.092 0.091 0.094 -0.008 -0.015 0.046
C15D 0.081 0.143 0.076 0.009 -0.001 0.042
C16D 0.082 0.177 0.084 -0.041 -0.019 -0.02
C17D 0.074 0.223 0.087 -0.004 -0.005 0
N7D 0.071 0.13 0.098 -0.008 -0.012 0.017
N8D 0.097 0.186 0.075 0.005 -0.004 0.008
O11D 0.146 0.146 0.147 0.037 -0.016 -0.032
O12D 0.276 0.18 0.201 0.048 -0.102 -0.078
Zn1D 0.0435 0.0586 0.0851 0 0 0.0032
Zn1F 0.0586 0.0435 0.0851 0 0 -0.0032
Zn2B 0.0539 0.0446 0.0975 0 0 0.0015
Zn2D 0.0446 0.0539 0.0975 0 0 -0.0015
Zn3B 0.0869 0.104 0.1096 -0.0222 -0.0152 -0.0129
Zn3F 0.0869 0.104 0.1096 -0.0222 -0.0152 -0.0129
Zn4B 0.0748 0.0952 0.0847 -0.0082 0.0031 -0.0152
Zn4F 0.0748 0.0952 0.0847 -0.0082 0.0031 -0.0152
Cu2D 0.0694 0.158 0.0838 0 0 0.032
Cu5I 0.0699 0.21 0.1153 -0.0189 0.0045 0.0256
O2M 0.097 0.075 0.116 0.031 0.025 0.024
O3I 0.1 0.091 0.11 0.013 0.017 0.018
O7C 0.169 0.121 0.123 0.022 -0.038 -0.024
O7G 0.169 0.121 0.123 0.022 -0.038 -0.024
O8C 0.166 0.087 0.125 0.026 -0.049 -0.023
O8G 0.166 0.087 0.125 0.026 -0.049 -0.023
N7I 0.071 0.13 0.098 0.008 0.012 0.017
N9G 0.054 0.046 0.132 0 0 -0.004
N10C 0.04 0.049 0.112 0 0 0.007
N11D 0.064 0.138 0.165 0.028 -0.014 0.044
loop_
_geom_bond_atom_site_label_1
_geom_bond_atom_site_label_2
_geom_bond_site_symmetry_1
_geom_bond_site_symmetry_2
Zn1 O1 1_555 1_555
O1 C1 1_555 1_555
C1 C22 1_555 1_555
Zn2 O3 1_555 1_555
Zn3 O4 1_555 1_555
Zn4 O5 1_555 1_555
Cu1 N1 1_555 1_555
Cu2 N7 1_555 1_555
Cu3 N3 1_555 1_555
Cu4 N2 1_555 1_555
Cu5 N8 1_555 1_555
N1 N3 1_555 1_555
N2 N6 1_555 1_555
N3 C6 1_555 1_555
N4 Cu3 1_555 1_555
N5 Cu4 1_555 1_555
N6 Cu1 1_555 1_555
C2 C3 1_555 1_555
C3 N1 1_555 1_555
H1 C3 1_555 1_555
C4 C2 1_555 1_555
C5 N6 1_555 1_555
H2 C5 1_555 1_555
C6 C2 1_555 1_555
H3 C6 1_555 1_555
C7 C10 1_555 1_555
C8 C5 1_555 1_555
C9 N5 1_555 1_555
H4 C9 1_555 1_555
C10 C9 1_555 1_555
C11 N4 1_555 1_555
H5 C11 1_555 1_555
C12 N2 1_555 1_555
H6 C12 1_555 1_555
O2 C4 1_555 1_555
O3 C4 1_555 1_555
O4 C7 1_555 1_555
O5 C7 1_555 1_555
O6 Zn4 1_555 1_555
O7 C16 1_555 1_555
O8 C16 1_555 1_555
O9 Zn3 1_555 1_555
C13 O6 1_555 1_555
C14 C13 1_555 1_555
C15 C14 1_555 1_555
H7 C15 1_555 1_555
C16 C8 1_555 1_555
C17 C14 1_555 1_555
H8 C17 1_555 1_555
N7 C15 1_555 1_555
N8 C17 1_555 1_555
C18 C19 1_555 1_555
O10 Zn2 1_555 1_555
C19 H9 1_555 1_555
N9 C19 1_555 1_555
C20 C18 1_555 1_555
H10 C20 1_555 1_555
N10 N9 1_555 1_555
O11 Zn3 1_555 1_555
O12 Zn4 1_555 1_555
N11 Cu5 1_555 1_555
C21 N11 1_555 1_555
H11 C21 1_555 1_555
C22 C21 1_555 1_555
C23 C18 1_555 1_555
O13 C23 1_555 1_555
O1I Zn1 1_555 1_555
N11I N11 1_555 1_555
C21I C22 1_555 1_555
H11I C21I 1_555 1_555
O13I C23 1_555 1_555
Zn3D O4D 1_555 1_555
Zn4D O5D 1_555 1_555
Cu1D N1D 1_555 1_555
Cu3D N3D 1_555 1_555
Cu4D N2D 1_555 1_555
Cu5D N8D 1_555 1_555
N1D N3D 1_555 1_555
N2D N6D 1_555 1_555
N3D C6D 1_555 1_555
N4D Cu3D 1_555 1_555
N5D Cu4D 1_555 1_555
N6D Cu1D 1_555 1_555
C2D C3D 1_555 1_555
C3D N1D 1_555 1_555
H1D C3D 1_555 1_555
C4D C2D 1_555 1_555
C5D N6D 1_555 1_555
H2D C5D 1_555 1_555
C6D C2D 1_555 1_555
H3D C6D 1_555 1_555
C7D C10D 1_555 1_555
C8D C5D 1_555 1_555
C9D N5D 1_555 1_555
H4D C9D 1_555 1_555
C10D C9D 1_555 1_555
C11D N4D 1_555 1_555
H5D C11D 1_555 1_555
C12D N2D 1_555 1_555
H6D C12D 1_555 1_555
O2D Zn1 1_555 1_555
O3D C4D 1_555 1_555
O4D C7D 1_555 1_555
O5D C7D 1_555 1_555
O6D Zn4D 1_555 1_555
O7D C16D 1_555 1_555
O8D C16D 1_555 1_555
O9D Zn3D 1_555 1_555
C13D O6D 1_555 1_555
C14D C13D 1_555 1_555
C15D C14D 1_555 1_555
H7D C15D 1_555 1_555
C16D C8D 1_555 1_555
C17D C14D 1_555 1_555
H8D C17D 1_555 1_555
N7D C15D 1_555 1_555
N8D C17D 1_555 1_555
O11D Zn3D 1_555 1_555
O12D Zn4D 1_555 1_555
Zn1D O2 1_555 1_555
Zn1F N9 1_555 1_555
Zn2B N10 1_555 1_555
Zn2D O3D 1_555 1_555
Zn3B O8 1_555 1_555
Zn3F O8D 1_555 1_555
Zn4B O7 1_555 1_555
Zn4F O7D 1_555 1_555
Cu2D N7D 1_555 1_555
Cu5I N11I 1_555 1_555
O2M Zn1 1_555 1_555
O3I Zn2 1_555 1_555
O7C Zn4 1_555 1_555
O7G Zn4D 1_555 1_555
O8C Zn3 1_555 1_555
O8G Zn3D 1_555 1_555
N7I Cu2 1_555 1_555
N9G Zn1 1_555 1_555
N10C Zn2 1_555 1_555
N11D Cu5D 1_555 1_555
C1 O1I 1_555 1_555
N4 N5 1_555 1_555
C8 C12 1_555 1_555
C10 C11 1_555 1_555
O9 C13 1_555 1_555
N7 N8 1_555 1_555
O10 C23 1_555 1_555
C20 N10 1_555 1_555
N11I C21I 1_555 1_555
N4D N5D 1_555 1_555
C4D O2D 1_555 1_555
C8D C12D 1_555 1_555
C10D C11D 1_555 1_555
O9D C13D 1_555 1_555
N7D N8D 1_555 1_555

#END
