
#######################################################################
#
#                 Cambridge Crystallographic Data Centre
#                                CCDC 
#
#######################################################################
#
# If this CIF has been generated from an entry in the Cambridge 
# Structural Database, then it will include bibliographic, chemical, 
# crystal, experimental, refinement or atomic coordinate data resulting 
# from the CCDC's data processing and validation procedures.
#
#######################################################################

data_JAZJAY
_chemical_name_common            FDM-7
_chemical_formula_moiety         
'(C76 H54 Cu12 N26 O53 Zn12 4-)n,4(H7 O4 Zn1 1+)'
_chemical_name_systematic        
'catena-[tetrakis(triaqua-hydroxo-zinc(ii)) bis(\m-naphthalene-2,6-dicarboxylato)-tridecakis(\m-pyrazolato-4-carboxylato)-tris(\m-oxido)-tetrakis(\m-hydroxo)-dodecahydroxo-dodeca-copper(ii)-dodeca-zinc(ii) unknown solvate]'
_symmetry_cell_setting           tetragonal
_symmetry_space_group_name_H-M   'P 42/m m c'
_symmetry_Int_Tables_number      131
_space_group_name_Hall           '-P 4c 2'
loop_
_symmetry_equiv_pos_site_id
_symmetry_equiv_pos_as_xyz
1 x,y,z
2 -x,-y,z
3 -y,x,1/2+z
4 y,-x,1/2+z
5 -x,y,-z
6 x,-y,-z
7 y,x,1/2-z
8 -y,-x,1/2-z
9 -x,-y,-z
10 x,y,-z
11 y,-x,1/2-z
12 -y,x,1/2-z
13 x,-y,z
14 -x,y,z
15 -y,-x,1/2+z
16 y,x,1/2+z
_cell_length_a                   25.4241(7)
_cell_length_b                   25.4241(7)
_cell_length_c                   30.4446(8)
_cell_angle_alpha                90
_cell_angle_beta                 90
_cell_angle_gamma                90
_cell_volume                     19678.9
_exptl_crystal_colour            blue
_exptl_crystal_description       block
_cell_formula_units_Z            2
loop_
_atom_site_label
_atom_site_type_symbol
_atom_site_fract_x
_atom_site_fract_y
_atom_site_fract_z
Zn1 Zn 0.34497(2) 0.5000 0.05072(2)
Zn2 Zn 0.25559(3) 0.43682(4) 0.0000
Zn3 Zn 0.0000 0.06163(3) 0.21286(2)
Cu1 Cu 0.22061(7) 0.26289(8) 0.20261(5)
Cu2 Cu 0.32049(4) 0.32049(4) 0.2500
C1 C 0.3204(3) 0.3739(3) 0.1646(2)
H1 H 0.3508 0.3947 0.1700
C2 C 0.2890(3) 0.3759(3) 0.1263(2)
C3 C 0.2499(3) 0.3402(3) 0.1334(3)
H2 H 0.2215 0.3329 0.1141
C4 C 0.2961(2) 0.4094(3) 0.0887(2)
C5 C 0.4686(3) 0.5000 0.0362(4)
C6 C 0.5000 0.5000 0.0000
C7 C 0.4357(7) 0.5000 0.0000
C8 C 0.1465(3) 0.1774(4) 0.2189(2)
H3 H 0.1271 0.1816 0.1925
C9 C 0.1379(2) 0.1379(2) 0.2500
C10 C 0.0976(2) 0.0976(2) 0.2500
C11 C 0.1582(4) 0.5000 0.0000
C12 C 0.0000 0.0622(7) 0.0168(4)
C13 C 0.0000 0.0000 0.1313(3)
C14 C 0.0000 0.0213(5) 0.0000
C15 C 0.0000 0.0655(7) 0.0647(5)
C16 C 0.0678(5) 0.4726(7) 0.0000
C17 C 0.0000 0.0000 0.0819(3)
C18 C 0.0000 0.0297(6) 0.0562(4)
N1 N 0.3012(3) 0.3392(3) 0.1910(2)
N2 N 0.2583(3) 0.3175(3) 0.1719(3)
N3 N 0.1846(3) 0.2072(3) 0.2312(2)
N4 N 0.41714(19) 0.5000 0.0315(2)
O1 O 0.2685(2) 0.2685(2) 0.2500
O2 O 0.33528(12) 0.44032(14) 0.08931(12)
O3 O 0.26276(16) 0.4053(2) 0.05698(15)
O4 O 0.06473(19) 0.0984(2) 0.21897(12)
O5 O 0.17939(16) 0.4559(3) 0.0000
O6 O 0.0000 0.0432(2) 0.14951(13)
O7 O 0.29887(17) 0.5000 0.0000
O8 O 0.0000 0.0000 0.2500
C19 C 0.0990(4) 0.5000 0.0000
C20 C 0.0767(6) 0.4382(7) 0.0000
C21 C 0.0000 0.4787(6) 0.0000
C22 C 0.0197(5) 0.4390(8) 0.0000
C5A C 0.5314(3) 0.5000 0.0362(4)
C7A C 0.5643(7) 0.5000 0.0000
N4A N 0.58286(19) 0.5000 0.0315(2)
C5D C 0.5314(3) 0.5000 -0.0362(4)
N4D N 0.58286(19) 0.5000 -0.0315(2)
C5E C 0.4686(3) 0.5000 -0.0362(4)
N4E N 0.41714(19) 0.5000 -0.0315(2)
C8F C 0.1774(4) 0.1465(3) 0.2811(2)
H3F H 0.1816 0.1271 0.3075
N3F N 0.2072(3) 0.1846(3) 0.2688(2)
O4F O 0.0984(2) 0.06473(19) 0.28103(12)
C11A C -0.1582(4) 0.5000 0.0000
C16A C -0.0678(5) 0.5274(7) 0.0000
O5A O -0.17939(16) 0.5441(3) 0.0000
C19A C -0.0990(4) 0.5000 0.0000
C20A C -0.0767(6) 0.5618(7) 0.0000
C21A C 0.0000 0.5213(6) 0.0000
C22A C -0.0197(5) 0.5610(8) 0.0000
C16D C -0.0678(5) 0.4726(7) 0.0000
O5D O -0.17939(16) 0.4559(3) 0.0000
C20D C -0.0767(6) 0.4382(7) 0.0000
C22D C -0.0197(5) 0.4390(8) 0.0000
C16E C 0.0678(5) 0.5274(7) 0.0000
O5E O 0.17939(16) 0.5441(3) 0.0000
C20E C 0.0767(6) 0.5618(7) 0.0000
C22E C 0.0197(5) 0.5610(8) 0.0000
C12A C 0.0000 -0.0622(7) 0.0168(4)
C14A C 0.0000 -0.0213(5) 0.0000
C15A C 0.0000 -0.0655(7) 0.0647(5)
C18A C 0.0000 -0.0297(6) 0.0562(4)
O6A O 0.0000 -0.0432(2) 0.14951(13)
C12D C 0.0000 0.0622(7) -0.0168(4)
C13D C 0.0000 0.0000 -0.1313(3)
C15D C 0.0000 0.0655(7) -0.0647(5)
C17D C 0.0000 0.0000 -0.0819(3)
C18D C 0.0000 0.0297(6) -0.0562(4)
O6D O 0.0000 0.0432(2) -0.14951(13)
C12E C 0.0000 -0.0622(7) -0.0168(4)
C15E C 0.0000 -0.0655(7) -0.0647(5)
C18E C 0.0000 -0.0297(6) -0.0562(4)
O6E O 0.0000 -0.0432(2) -0.14951(13)
Zn2A Zn -0.25559(3) -0.43682(4) 0.0000
Zn3A Zn 0.0000 -0.06163(3) 0.21286(2)
Cu1A Cu -0.22061(7) -0.26289(8) 0.20261(5)
Cu2A Cu -0.32049(4) -0.32049(4) 0.2500
C1A C -0.3204(3) -0.3739(3) 0.1646(2)
H1A H -0.3508 -0.3947 0.1700
C2A C -0.2890(3) -0.3759(3) 0.1263(2)
C3A C -0.2499(3) -0.3402(3) 0.1334(3)
H2A H -0.2215 -0.3329 0.1141
C4A C -0.2961(2) -0.4094(3) 0.0887(2)
C8A C -0.1465(3) -0.1774(4) 0.2189(2)
H3A H -0.1271 -0.1816 0.1925
C9A C -0.1379(2) -0.1379(2) 0.2500
C10A C -0.0976(2) -0.0976(2) 0.2500
N1A N -0.3012(3) -0.3392(3) 0.1910(2)
N2A N -0.2583(3) -0.3175(3) 0.1719(3)
N3A N -0.1846(3) -0.2072(3) 0.2312(2)
O1A O -0.2685(2) -0.2685(2) 0.2500
O2A O -0.33528(12) -0.44032(14) 0.08931(12)
O3A O -0.26276(16) -0.4053(2) 0.05698(15)
O4A O -0.06473(19) -0.0984(2) 0.21897(12)
C8G C -0.1774(4) -0.1465(3) 0.2811(2)
H3G H -0.1816 -0.1271 0.3075
N3G N -0.2072(3) -0.1846(3) 0.2688(2)
O4G O -0.0984(2) -0.06473(19) 0.28103(12)
Zn1D Zn -0.34497(2) 0.5000 -0.05072(2)
Zn2D Zn -0.25559(3) 0.43682(4) 0.0000
Zn3D Zn 0.0000 0.06163(3) -0.21286(2)
Cu1D Cu -0.22061(7) 0.26289(8) -0.20261(5)
C1D C -0.3204(3) 0.3739(3) -0.1646(2)
H1D H -0.3508 0.3947 -0.1700
C2D C -0.2890(3) 0.3759(3) -0.1263(2)
C3D C -0.2499(3) 0.3402(3) -0.1334(3)
H2D H -0.2215 0.3329 -0.1141
C4D C -0.2961(2) 0.4094(3) -0.0887(2)
N1D N -0.3012(3) 0.3392(3) -0.1910(2)
N2D N -0.2583(3) 0.3175(3) -0.1719(3)
O2D O -0.33528(12) 0.44032(14) -0.08931(12)
O3D O -0.26276(16) 0.4053(2) -0.05698(15)
O7A O -0.29887(17) 0.5000 0.0000
Zn2E Zn 0.25559(3) -0.43682(4) 0.0000
Zn3E Zn 0.0000 -0.06163(3) -0.21286(2)
Cu1E Cu 0.22061(7) -0.26289(8) -0.20261(5)
C1E C 0.3204(3) -0.3739(3) -0.1646(2)
H1E H 0.3508 -0.3947 -0.1700
C2E C 0.2890(3) -0.3759(3) -0.1263(2)
C3E C 0.2499(3) -0.3402(3) -0.1334(3)
H2E H 0.2215 -0.3329 -0.1141
C4E C 0.2961(2) -0.4094(3) -0.0887(2)
N1E N 0.3012(3) -0.3392(3) -0.1910(2)
N2E N 0.2583(3) -0.3175(3) -0.1719(3)
O2E O 0.33528(12) -0.44032(14) -0.08931(12)
O3E O 0.26276(16) -0.4053(2) -0.05698(15)
Cu1H Cu -0.22061(7) -0.26289(8) -0.20261(5)
C1H C -0.3204(3) -0.3739(3) -0.1646(2)
H1H H -0.3508 -0.3947 -0.1700
C2H C -0.2890(3) -0.3759(3) -0.1263(2)
C3H C -0.2499(3) -0.3402(3) -0.1334(3)
H2H H -0.2215 -0.3329 -0.1141
C4H C -0.2961(2) -0.4094(3) -0.0887(2)
N1H N -0.3012(3) -0.3392(3) -0.1910(2)
N2H N -0.2583(3) -0.3175(3) -0.1719(3)
O2H O -0.33528(12) -0.44032(14) -0.08931(12)
O3H O -0.26276(16) -0.4053(2) -0.05698(15)
Zn1E Zn 0.34497(2) 0.5000 -0.05072(2)
Cu1I Cu 0.22061(7) 0.26289(8) -0.20261(5)
C1I C 0.3204(3) 0.3739(3) -0.1646(2)
H1I H 0.3508 0.3947 -0.1700
C2I C 0.2890(3) 0.3759(3) -0.1263(2)
C3I C 0.2499(3) 0.3402(3) -0.1334(3)
H2I H 0.2215 0.3329 -0.1141
C4I C 0.2961(2) 0.4094(3) -0.0887(2)
N1I N 0.3012(3) 0.3392(3) -0.1910(2)
N2I N 0.2583(3) 0.3175(3) -0.1719(3)
O2I O 0.33528(12) 0.44032(14) -0.08931(12)
O3I O 0.26276(16) 0.4053(2) -0.05698(15)
Cu1L Cu 0.22061(7) -0.26289(8) 0.20261(5)
Cu2J Cu 0.32049(4) -0.32049(4) 0.2500
C1L C 0.3204(3) -0.3739(3) 0.1646(2)
H1L H 0.3508 -0.3947 0.1700
C2L C 0.2890(3) -0.3759(3) 0.1263(2)
C3L C 0.2499(3) -0.3402(3) 0.1334(3)
H2L H 0.2215 -0.3329 0.1141
C4L C 0.2961(2) -0.4094(3) 0.0887(2)
C8L C 0.1465(3) -0.1774(4) 0.2189(2)
H3L H 0.1271 -0.1816 0.1925
C9J C 0.1379(2) -0.1379(2) 0.2500
C10J C 0.0976(2) -0.0976(2) 0.2500
N1L N 0.3012(3) -0.3392(3) 0.1910(2)
N2L N 0.2583(3) -0.3175(3) 0.1719(3)
N3L N 0.1846(3) -0.2072(3) 0.2312(2)
O1J O 0.2685(2) -0.2685(2) 0.2500
O2L O 0.33528(12) -0.44032(14) 0.08931(12)
O3L O 0.26276(16) -0.4053(2) 0.05698(15)
O4L O 0.06473(19) -0.0984(2) 0.21897(12)
C8J C 0.1774(4) -0.1465(3) 0.2811(2)
H3J H 0.1816 -0.1271 0.3075
N3J N 0.2072(3) -0.1846(3) 0.2688(2)
O4J O 0.0984(2) -0.06473(19) 0.28103(12)
Zn1A Zn -0.34497(2) 0.5000 0.05072(2)
Cu1M Cu -0.22061(7) 0.26289(8) 0.20261(5)
Cu2K Cu -0.32049(4) 0.32049(4) 0.2500
C1M C -0.3204(3) 0.3739(3) 0.1646(2)
H1M H -0.3508 0.3947 0.1700
C2M C -0.2890(3) 0.3759(3) 0.1263(2)
C3M C -0.2499(3) 0.3402(3) 0.1334(3)
H2M H -0.2215 0.3329 0.1141
C4M C -0.2961(2) 0.4094(3) 0.0887(2)
C8M C -0.1465(3) 0.1774(4) 0.2189(2)
H3M H -0.1271 0.1816 0.1925
C9K C -0.1379(2) 0.1379(2) 0.2500
C10K C -0.0976(2) 0.0976(2) 0.2500
N1M N -0.3012(3) 0.3392(3) 0.1910(2)
N2M N -0.2583(3) 0.3175(3) 0.1719(3)
N3M N -0.1846(3) 0.2072(3) 0.2312(2)
O1K O -0.2685(2) 0.2685(2) 0.2500
O2M O -0.33528(12) 0.44032(14) 0.08931(12)
O3M O -0.26276(16) 0.4053(2) 0.05698(15)
O4M O -0.06473(19) 0.0984(2) 0.21897(12)
C8K C -0.1774(4) 0.1465(3) 0.2811(2)
H3K H -0.1816 0.1271 0.3075
N3K N -0.2072(3) 0.1846(3) 0.2688(2)
O4K O -0.0984(2) 0.06473(19) 0.28103(12)
Zn1_2 Zn 0.34497(2) -0.5000 0.05072(2)
Zn1A_2 Zn -0.34497(2) -0.5000 0.05072(2)
Zn1A_3 Zn 0.65503(2) 0.5000 0.05072(2)
Zn1D_2 Zn -0.34497(2) -0.5000 -0.05072(2)
Zn1D_3 Zn 0.65503(2) 0.5000 -0.05072(2)
Zn1E_2 Zn 0.34497(2) -0.5000 -0.05072(2)
Zn2A_2 Zn -0.25559(3) 0.56318(4) 0.0000
Zn2E_2 Zn 0.25559(3) 0.56318(4) 0.0000
Zn3F Zn 0.06163(3) 0.0000 0.28714(2)
Zn3G Zn -0.06163(3) 0.0000 0.28714(2)
Cu1F Cu 0.26289(8) 0.22061(7) 0.29739(5)
Cu1G Cu -0.26289(8) -0.22061(7) 0.29739(5)
Cu1J Cu 0.26289(8) -0.22061(7) 0.29739(5)
Cu1K Cu -0.26289(8) 0.22061(7) 0.29739(5)
Cu2B Cu -0.32049(4) 0.32049(4) -0.2500
Cu2C Cu 0.32049(4) -0.32049(4) -0.2500
Cu2H Cu -0.32049(4) -0.32049(4) -0.2500
Cu2I Cu 0.32049(4) 0.32049(4) -0.2500
N1F N 0.3392(3) 0.3012(3) 0.3090(2)
N1G N -0.3392(3) -0.3012(3) 0.3090(2)
N1J N 0.3392(3) -0.3012(3) 0.3090(2)
N1K N -0.3392(3) 0.3012(3) 0.3090(2)
N3D N -0.1846(3) 0.2072(3) -0.2312(2)
N3E N 0.1846(3) -0.2072(3) -0.2312(2)
N3H N -0.1846(3) -0.2072(3) -0.2312(2)
N3I N 0.1846(3) 0.2072(3) -0.2312(2)
N4A_2 N -0.41714(19) 0.5000 0.0315(2)
N4D_2 N -0.41714(19) 0.5000 -0.0315(2)
O1B O -0.2685(2) 0.2685(2) -0.2500
O1C O 0.2685(2) -0.2685(2) -0.2500
O1H O -0.2685(2) -0.2685(2) -0.2500
O1I O 0.2685(2) 0.2685(2) -0.2500
O2A_2 O -0.33528(12) 0.55968(14) 0.08931(12)
O2E_2 O 0.33528(12) 0.55968(14) -0.08931(12)
O2H_2 O -0.33528(12) 0.55968(14) -0.08931(12)
O2L_2 O 0.33528(12) 0.55968(14) 0.08931(12)
O4D O -0.06473(19) 0.0984(2) -0.21897(12)
O4E O 0.06473(19) -0.0984(2) -0.21897(12)
O4H O -0.06473(19) -0.0984(2) -0.21897(12)
O4I O 0.06473(19) 0.0984(2) -0.21897(12)
O5A_2 O -0.17939(16) -0.4559(3) 0.0000
O5E_2 O 0.17939(16) -0.4559(3) 0.0000
O7_2 O 0.29887(17) -0.5000 0.0000
O7A_2 O -0.29887(17) -0.5000 0.0000
O8B O 0.0000 0.0000 -0.2500
loop_
_geom_bond_atom_site_label_1
_geom_bond_atom_site_label_2
_geom_bond_site_symmetry_1
_geom_bond_site_symmetry_2
Zn1 N4 1_555 1_555
Zn2 O3 1_555 1_555
Zn3 O4 1_555 1_555
Cu1 N2 1_555 1_555
Cu2 N1 1_555 1_555
C1 H1 1_555 1_555
C2 C1 1_555 1_555
C3 C2 1_555 1_555
H2 C3 1_555 1_555
C4 C2 1_555 1_555
C5 C6 1_555 1_555
C6 C7 1_555 1_555
C7 C5 1_555 1_555
C8 H3 1_555 1_555
C9 C8 1_555 1_555
C10 C9 1_555 1_555
C11 O5 1_555 1_555
C12 C14 1_555 1_555
C13 C17 1_555 1_555
C14 C18 1_555 1_555
C15 C12 1_555 1_555
C16 C19 1_555 1_555
C17 C15 1_555 1_555
C18 C12 1_555 1_555
N1 C1 1_555 1_555
N2 C3 1_555 1_555
N3 Cu1 1_555 1_555
N4 C5 1_555 1_555
O1 Cu1 1_555 1_555
O2 Zn1 1_555 1_555
O3 C4 1_555 1_555
O4 C10 1_555 1_555
O5 Zn2 1_555 1_555
O6 Zn3 1_555 1_555
O7 Zn1 1_555 1_555
O8 Zn3 1_555 1_555
C19 C11 1_555 1_555
C20 C16 1_555 1_555
C21 C16 1_555 1_555
C22 C16 1_555 1_555
C5A C5 1_555 1_555
C7A C6 1_555 1_555
N4A C5A 1_555 1_555
C5D C6 1_555 1_555
N4D C7A 1_555 1_555
C5E C6 1_555 1_555
N4E C7 1_555 1_555
C8F C9 1_555 1_555
H3F C8F 1_555 1_555
N3F N3 1_555 1_555
O4F C10 1_555 1_555
C11A O5A 1_555 1_555
C16A C19A 1_555 1_555
O5A Zn2A_2 1_555 1_555
C19A C11A 1_555 1_555
C20A C16A 1_555 1_555
C21A C21 1_555 1_555
C22A C16A 1_555 1_555
C16D C21 1_555 1_555
O5D C11A 1_555 1_555
C20D C19A 1_555 1_555
C22D C21 1_555 1_555
C16E C16 1_555 1_555
O5E C11 1_555 1_555
C20E C19 1_555 1_555
C22E C21A 1_555 1_555
C12A C14A 1_555 1_555
C14A C14 1_555 1_555
C15A C17 1_555 1_555
C18A C17 1_555 1_555
O6A C13 1_555 1_555
C12D C12 1_555 1_555
C13D C17D 1_555 1_555
C15D C12D 1_555 1_555
C17D C15D 1_555 1_555
C18D C14 1_555 1_555
O6D C13D 1_555 1_555
C12E C12A 1_555 1_555
C15E C17D 1_555 1_555
C18E C14A 1_555 1_555
O6E C13D 1_555 1_555
Zn2A O3A 1_555 1_555
Zn3A O8 1_555 1_555
Cu1A N2A 1_555 1_555
Cu2A N1A 1_555 1_555
C1A H1A 1_555 1_555
C2A C1A 1_555 1_555
C3A C2A 1_555 1_555
H2A C3A 1_555 1_555
C4A C2A 1_555 1_555
C8A H3A 1_555 1_555
C9A C8A 1_555 1_555
C10A C9A 1_555 1_555
N1A C1A 1_555 1_555
N2A C3A 1_555 1_555
N3A Cu1A 1_555 1_555
O1A Cu1A 1_555 1_555
O2A C4A 1_555 1_555
O3A C4A 1_555 1_555
O4A Zn3A 1_555 1_555
C8G C9A 1_555 1_555
H3G C8G 1_555 1_555
N3G N3A 1_555 1_555
O4G C10A 1_555 1_555
Zn1D O2D 1_555 1_555
Zn2D O5D 1_555 1_555
Zn3D O6D 1_555 1_555
Cu1D N2D 1_555 1_555
C1D H1D 1_555 1_555
C2D C1D 1_555 1_555
C3D C2D 1_555 1_555
H2D C3D 1_555 1_555
C4D C2D 1_555 1_555
N1D C1D 1_555 1_555
N2D C3D 1_555 1_555
O2D C4D 1_555 1_555
O3D Zn2D 1_555 1_555
O7A Zn1D 1_555 1_555
Zn2E O3E 1_555 1_555
Zn3E O6E 1_555 1_555
Cu1E N2E 1_555 1_555
C1E H1E 1_555 1_555
C2E C1E 1_555 1_555
C3E C2E 1_555 1_555
H2E C3E 1_555 1_555
C4E C2E 1_555 1_555
N1E C1E 1_555 1_555
N2E C3E 1_555 1_555
O2E C4E 1_555 1_555
O3E C4E 1_555 1_555
Cu1H N2H 1_555 1_555
C1H H1H 1_555 1_555
C2H C1H 1_555 1_555
C3H C2H 1_555 1_555
H2H C3H 1_555 1_555
C4H C2H 1_555 1_555
N1H C1H 1_555 1_555
N2H C3H 1_555 1_555
O2H C4H 1_555 1_555
O3H Zn2A 1_555 1_555
Zn1E O7 1_555 1_555
Cu1I N2I 1_555 1_555
C1I H1I 1_555 1_555
C2I C1I 1_555 1_555
C3I C2I 1_555 1_555
H2I C3I 1_555 1_555
C4I C2I 1_555 1_555
N1I C1I 1_555 1_555
N2I C3I 1_555 1_555
O2I Zn1E 1_555 1_555
O3I Zn2 1_555 1_555
Cu1L N2L 1_555 1_555
Cu2J N1L 1_555 1_555
C1L H1L 1_555 1_555
C2L C1L 1_555 1_555
C3L C2L 1_555 1_555
H2L C3L 1_555 1_555
C4L C2L 1_555 1_555
C8L H3L 1_555 1_555
C9J C8L 1_555 1_555
C10J C9J 1_555 1_555
N1L C1L 1_555 1_555
N2L C3L 1_555 1_555
N3L Cu1L 1_555 1_555
O1J Cu1L 1_555 1_555
O2L C4L 1_555 1_555
O3L Zn2E 1_555 1_555
O4L Zn3A 1_555 1_555
C8J C9J 1_555 1_555
H3J C8J 1_555 1_555
N3J N3L 1_555 1_555
O4J C10J 1_555 1_555
Zn1A O7A 1_555 1_555
Cu1M N2M 1_555 1_555
Cu2K N1M 1_555 1_555
C1M H1M 1_555 1_555
C2M C1M 1_555 1_555
C3M C2M 1_555 1_555
H2M C3M 1_555 1_555
C4M C2M 1_555 1_555
C8M H3M 1_555 1_555
C9K C8M 1_555 1_555
C10K C9K 1_555 1_555
N1M C1M 1_555 1_555
N2M C3M 1_555 1_555
N3M Cu1M 1_555 1_555
O1K Cu1M 1_555 1_555
O2M Zn1A 1_555 1_555
O3M Zn2D 1_555 1_555
O4M Zn3 1_555 1_555
C8K C9K 1_555 1_555
H3K C8K 1_555 1_555
N3K N3M 1_555 1_555
O4K C10K 1_555 1_555
Zn1_2 O2L 1_555 1_555
Zn1A_2 O2A 1_555 1_555
Zn1A_3 N4A 1_555 1_555
Zn1D_2 O2H 1_555 1_555
Zn1D_3 N4D 1_555 1_555
Zn1E_2 O2E 1_555 1_555
Zn2A_2 O7A 1_555 1_555
Zn2E_2 O7 1_555 1_555
Zn3F O8 1_555 1_555
Zn3G O8 1_555 1_555
Cu1F O1 1_555 1_555
Cu1G O1A 1_555 1_555
Cu1J O1J 1_555 1_555
Cu1K O1K 1_555 1_555
Cu2B N1D 1_555 1_555
Cu2C N1E 1_555 1_555
Cu2H N1H 1_555 1_555
Cu2I N1I 1_555 1_555
N1F Cu2 1_555 1_555
N1G Cu2A 1_555 1_555
N1J Cu2J 1_555 1_555
N1K Cu2K 1_555 1_555
N3D Cu1D 1_555 1_555
N3E Cu1E 1_555 1_555
N3H Cu1H 1_555 1_555
N3I Cu1I 1_555 1_555
N4A_2 Zn1A 1_555 1_555
N4D_2 Zn1D 1_555 1_555
O1B Cu1D 1_555 1_555
O1C Cu1E 1_555 1_555
O1H Cu1H 1_555 1_555
O1I Cu1I 1_555 1_555
O2A_2 Zn1A 1_555 1_555
O2E_2 Zn1E 1_555 1_555
O2H_2 Zn1D 1_555 1_555
O2L_2 Zn1 1_555 1_555
O4D Zn3D 1_555 1_555
O4E Zn3E 1_555 1_555
O4H Zn3E 1_555 1_555
O4I Zn3D 1_555 1_555
O5A_2 Zn2A 1_555 1_555
O5E_2 Zn2E 1_555 1_555
O7_2 Zn2E 1_555 1_555
O7A_2 Zn2A 1_555 1_555
O8B Zn3D 1_555 1_555
Zn2 O7 1_555 1_555
Cu2 O1 1_555 1_555
C4 O2 1_555 1_555
C6 C5A 1_555 1_555
C7 N4 1_555 1_555
C7 C5E 1_555 1_555
C8 N3 1_555 1_555
C13 O6 1_555 1_555
C14 C12D 1_555 1_555
C15 C18 1_555 1_555
C17 C18 1_555 1_555
C18 C18A 1_555 1_555
N1 N2 1_555 1_555
C19 C20 1_555 1_555
C19 C16E 1_555 1_555
C20 C22 1_555 1_555
C21 C22 1_555 1_555
C22 C22D 1_555 1_555
C5A C7A 1_555 1_555
C7A N4A 1_555 1_555
C7A C5D 1_555 1_555
C5D N4D 1_555 1_555
C5D C5E 1_555 1_555
C5E N4E 1_555 1_555
N4E Zn1E 1_555 1_555
C8F N3F 1_555 1_555
N3F Cu1F 1_555 1_555
O4F Zn3F 1_555 1_555
C16A C21A 1_555 1_555
C16A C16D 1_555 1_555
C19A C20A 1_555 1_555
C19A C16D 1_555 1_555
C20A C22A 1_555 1_555
C21A C22A 1_555 1_555
C21A C16E 1_555 1_555
C22A C22E 1_555 1_555
C16D C20D 1_555 1_555
C16D C22D 1_555 1_555
C20D C22D 1_555 1_555
C16E C20E 1_555 1_555
C16E C22E 1_555 1_555
O5E Zn2E_2 1_555 1_555
C20E C22E 1_555 1_555
C12A C15A 1_555 1_555
C12A C18A 1_555 1_555
C14A C18A 1_555 1_555
C14A C12E 1_555 1_555
C15A C18A 1_555 1_555
O6A Zn3A 1_555 1_555
C12D C18D 1_555 1_555
C15D C18D 1_555 1_555
C17D C18D 1_555 1_555
C17D C18E 1_555 1_555
C18D C18E 1_555 1_555
C12E C15E 1_555 1_555
C12E C18E 1_555 1_555
C15E C18E 1_555 1_555
Cu2A O1A 1_555 1_555
C8A N3A 1_555 1_555
C10A O4A 1_555 1_555
N1A N2A 1_555 1_555
C8G N3G 1_555 1_555
N3G Cu1G 1_555 1_555
O4G Zn3G 1_555 1_555
Zn2D O7A 1_555 1_555
C4D O3D 1_555 1_555
N1D N2D 1_555 1_555
Zn3E O8B 1_555 1_555
N1E N2E 1_555 1_555
C4H O3H 1_555 1_555
N1H N2H 1_555 1_555
C4I O2I 1_555 1_555
C4I O3I 1_555 1_555
N1I N2I 1_555 1_555
Cu2J O1J 1_555 1_555
C4L O3L 1_555 1_555
C8L N3L 1_555 1_555
C10J O4L 1_555 1_555
N1L N2L 1_555 1_555
C8J N3J 1_555 1_555
N3J Cu1J 1_555 1_555
O4J Zn3F 1_555 1_555
Cu2K O1K 1_555 1_555
C4M O2M 1_555 1_555
C4M O3M 1_555 1_555
C8M N3M 1_555 1_555
C10K O4M 1_555 1_555
N1M N2M 1_555 1_555
C8K N3K 1_555 1_555
N3K Cu1K 1_555 1_555
O4K Zn3G 1_555 1_555
Zn1_2 O7_2 1_555 1_555
Zn1A_2 O7A_2 1_555 1_555
Zn1D_2 O7A_2 1_555 1_555
Zn1E_2 O7_2 1_555 1_555
Cu2B O1B 1_555 1_555
Cu2C O1C 1_555 1_555
Cu2H O1H 1_555 1_555
Cu2I O1I 1_555 1_555

#END
