
#######################################################################
#
#                 Cambridge Crystallographic Data Centre
#                                CCDC 
#
#######################################################################
#
# If this CIF has been generated from an entry in the Cambridge 
# Structural Database, then it will include bibliographic, chemical, 
# crystal, experimental, refinement or atomic coordinate data resulting 
# from the CCDC's data processing and validation procedures.
#
#######################################################################

data_NIFFOZ
_chemical_name_common            DUT-8(Co)
_chemical_formula_moiety         '(C30 H24 Co2 N2 O8)n,6n(C5 H11 N1 O1)'
_chemical_name_systematic        
'catena-[bis(\m~4~-Naphthalene-2,6-dicarboxylato)-(\m~2~-1,4-diazabicyclo[2.2.2]octane)-di-cobalt N,N-diethylformamide solvate]'
_symmetry_cell_setting           tetragonal
_symmetry_space_group_name_H-M   'P 4/n'
_symmetry_Int_Tables_number      85
_space_group_name_Hall           '-P 4a'
loop_
_symmetry_equiv_pos_site_id
_symmetry_equiv_pos_as_xyz
1 x,y,z
2 1/2-y,x,z
3 1/2-x,1/2-y,z
4 y,1/2-x,z
5 -x,-y,-z
6 1/2+y,-x,-z
7 1/2+x,1/2+y,-z
8 -y,1/2+x,-z
_cell_length_a                   18.5169(11)
_cell_length_b                   18.5169(11)
_cell_length_c                   9.5254(6)
_cell_angle_alpha                90
_cell_angle_beta                 90
_cell_angle_gamma                90
_cell_volume                     3266.03
_exptl_crystal_colour            purple
_cell_formula_units_Z            2
loop_
_atom_site_label
_atom_site_type_symbol
_atom_site_fract_x
_atom_site_fract_y
_atom_site_fract_z
Co1 Co 0.25000 0.25000 0.69870(7)
Co2 Co 0.25000 0.25000 0.43421(8)
C1 C 0.51275 0.51275 0.56399
C2 C 0.56582 0.56582 0.56724
C3 C 0.59339 0.59337 0.44252
C4 C 0.56790 0.56784 0.31455
C5 C 0.51485 0.51476 0.31130
C6 C 0.65219 0.65215 0.44612
O1 O 0.67421 0.67418 0.55660
O2 O 0.67598 0.67594 0.33845
H1 H 0.58326 0.58325 0.65470
H2 H 0.58674 0.58667 0.22931
H3 H 0.49743 0.49731 0.22383
N1 N 0.25000 0.25000 0.19347
C7 C 0.18273 0.27738 0.14307
C8 C 0.18272 0.27737 -0.01681
N2 N 0.25000 0.25000 -0.06721
C9 C 0.30690 0.29486 0.13953
C10 C 0.30690 0.29485 -0.01328
C11 C 0.25989 0.17862 0.13421
C12 C 0.25989 0.17861 -0.00794
H4 H 0.17612 0.33369 0.18190
H5 H 0.13829 0.24219 0.18192
H6 H 0.17611 0.33368 -0.05565
H7 H 0.13828 0.24218 -0.05563
H8 H 0.35977 0.27440 0.17835
H9 H 0.29827 0.35089 0.17835
H10 H 0.29827 0.35088 -0.05213
H11 H 0.35977 0.27438 -0.05212
H12 H 0.21592 0.14286 0.17305
H13 H 0.31177 0.15575 0.17303
H14 H 0.31175 0.15573 -0.04677
H15 H 0.21590 0.14285 -0.04675
C1D C 0.48725 0.48725 0.43601
C2D C 0.43418 0.43418 0.43276
C3D C 0.40661 0.40663 0.55748
C4D C 0.43210 0.43216 0.68545
C5D C 0.48515 0.48524 0.68870
C6D C 0.34781 0.34785 0.55388
O1D O 0.32579 0.32582 0.44340
O2D O 0.32402 0.32406 0.66155
H1D H 0.41674 0.41675 0.34530
H2D H 0.41326 0.41333 0.77069
H3D H 0.50257 0.50269 0.77617
C7A C 0.22262 0.18273 0.14307
C8A C 0.22263 0.18272 -0.01681
C9A C 0.20514 0.30690 0.13953
C10A C 0.20515 0.30690 -0.01328
C11A C 0.32138 0.25989 0.13421
C12A C 0.32139 0.25989 -0.00794
H4A H 0.16631 0.17612 0.18190
H5A H 0.25781 0.13829 0.18192
H6A H 0.16632 0.17611 -0.05565
H7A H 0.25782 0.13828 -0.05563
H8A H 0.22560 0.35977 0.17835
H9A H 0.14911 0.29827 0.17835
H10A H 0.14912 0.29827 -0.05213
H11A H 0.22562 0.35977 -0.05212
H12A H 0.35714 0.21592 0.17305
H13A H 0.34425 0.31177 0.17303
H14A H 0.34427 0.31175 -0.04677
H15A H 0.35715 0.21590 -0.04675
C7B C 0.31727 0.22262 0.14307
C8B C 0.31728 0.22263 -0.01681
C9B C 0.19310 0.20514 0.13953
C10B C 0.19310 0.20515 -0.01328
C11B C 0.24011 0.32138 0.13421
C12B C 0.24011 0.32139 -0.00794
H4B H 0.32388 0.16631 0.18190
H5B H 0.36171 0.25781 0.18192
H6B H 0.32389 0.16632 -0.05565
H7B H 0.36172 0.25782 -0.05563
H8B H 0.14023 0.22560 0.17835
H9B H 0.20173 0.14911 0.17835
H10B H 0.20173 0.14912 -0.05213
H11B H 0.14023 0.22562 -0.05212
H12B H 0.28408 0.35714 0.17305
H13B H 0.18823 0.34425 0.17303
H14B H 0.18825 0.34427 -0.04677
H15B H 0.28410 0.35715 -0.04675
C7C C 0.27738 0.31727 0.14307
C8C C 0.27737 0.31728 -0.01681
C9C C 0.29486 0.19310 0.13953
C10C C 0.29485 0.19310 -0.01328
C11C C 0.17862 0.24011 0.13421
C12C C 0.17861 0.24011 -0.00794
H4C H 0.33369 0.32388 0.18190
H5C H 0.24219 0.36171 0.18192
H6C H 0.33368 0.32389 -0.05565
H7C H 0.24218 0.36172 -0.05563
H8C H 0.27440 0.14023 0.17835
H9C H 0.35089 0.20173 0.17835
H10C H 0.35088 0.20173 -0.05213
H11C H 0.27438 0.14023 -0.05212
H12C H 0.14286 0.28408 0.17305
H13C H 0.15575 0.18823 0.17303
H14C H 0.15573 0.18825 -0.04677
H15C H 0.14285 0.28410 -0.04675
C1A C -0.01275 0.51275 0.56399
C2A C -0.06582 0.56582 0.56724
C3A C -0.09337 0.59339 0.44252
C4A C -0.06784 0.56790 0.31455
C5A C -0.01476 0.51485 0.31130
C6A C -0.15215 0.65219 0.44612
O1A O -0.17418 0.67421 0.55660
O2A O -0.17594 0.67598 0.33845
H1A H -0.08325 0.58326 0.65470
H2A H -0.08667 0.58674 0.22931
H3A H 0.00269 0.49743 0.22383
C1E C 0.01275 0.48725 0.43601
C2E C 0.06582 0.43418 0.43276
C3E C 0.09337 0.40661 0.55748
C4E C 0.06784 0.43210 0.68545
C5E C 0.01476 0.48515 0.68870
C6E C 0.15215 0.34781 0.55388
O1E O 0.17418 0.32579 0.44340
O2E O 0.17594 0.32402 0.66155
H1E H 0.08325 0.41674 0.34530
H2E H 0.08667 0.41326 0.77069
H3E H -0.00269 0.50257 0.77617
Co1_2 Co 0.25000 0.25000 -0.30130(7)
Co1D Co -0.25000 0.75000 0.30130(7)
Co1D_2 Co 0.75000 0.75000 0.30130(7)
Co2D Co -0.25000 0.75000 0.56579(8)
Co2D_2 Co 0.75000 0.75000 0.56579(8)
O1F O 0.17421 0.17418 0.44340
O1G O 0.32582 0.17421 0.44340
O2F O 0.17598 0.17594 0.66155
O2G O 0.32406 0.17598 0.66155
N2_2 N 0.25000 0.25000 0.93279
C13? C 0.26309 -0.10931 -0.04393
N3? N 0.25671 -0.05606 0.07536
O3? O 0.21441 -0.17471 -0.04854
H16? H 0.30459 -0.10016 -0.13051
C14? C 0.20209 -0.06858 0.19049
C15? C 0.30530 0.00944 0.07990
C16? C 0.36468 -0.00110 0.19128
C17? C 0.23508 -0.04686 0.33269
H17? H 0.18661 -0.12815 0.19291
H18? H 0.15190 -0.03458 0.16950
H19? H 0.27187 0.05916 0.10736
H20? H 0.33139 0.01728 -0.02743
H21? H 0.33881 -0.00854 0.29888
H22? H 0.40135 0.04835 0.19344
H23? H 0.39792 -0.05100 0.16411
H24? H 0.25075 0.01266 0.32955
H25? H 0.28533 -0.08077 0.35351
H26? H 0.19389 -0.05621 0.41977
C18? C 0.28946 0.04898 -0.00292
N4? N 0.23705 -0.01070 -0.03837
O4? O 0.31391 0.05954 0.14695
H27? H 0.31061 0.08604 -0.08920
C19? C 0.20868 -0.05936 0.07622
C20? C 0.21267 -0.02137 -0.18831
C21? C 0.13493 0.00665 -0.20679
C22? C 0.12833 -0.07565 0.04939
H28? H 0.21497 -0.03130 0.18203
H29? H 0.24055 -0.11204 0.07678
H30? H 0.21464 -0.08131 -0.21537
H31? H 0.25028 0.00965 -0.26139
H32? H 0.09710 -0.02453 -0.13445
H33? H 0.11712 -0.00121 -0.32034
H34? H 0.13292 0.06651 -0.17917
H35? H 0.12229 -0.10342 -0.05678
H36? H 0.09650 -0.02295 0.04857
H37? H 0.10681 -0.11244 0.13574
C23? C 0.03650 -0.20241 0.59659
N5? N 0.11184 -0.19752 0.53693
O5? O 0.02575 -0.21017 0.75303
H38? H -0.01225 -0.20029 0.52361
C24? C 0.17631 -0.19979 0.63385
C25? C 0.12263 -0.18989 0.38041
C26? C 0.14416 -0.11173 0.34418
C27? C 0.23402 -0.14634 0.58156
H39? H 0.15869 -0.18418 0.74443
H40? H 0.19978 -0.25670 0.63520
H41? H 0.16713 -0.22828 0.34473
H42? H 0.07014 -0.20404 0.32424
H43? H 0.19685 -0.09753 0.39953
H44? H 0.15177 -0.10634 0.22588
H45? H 0.09979 -0.07334 0.38040
H46? H 0.25125 -0.16198 0.47074
H47? H 0.21050 -0.08945 0.57996
H48? H 0.28279 -0.14800 0.65453
loop_
_geom_bond_atom_site_label_1
_geom_bond_atom_site_label_2
_geom_bond_site_symmetry_1
_geom_bond_site_symmetry_2
Co1 O2D 1_555 1_555
Co2 N1 1_555 1_555
C1 C2 1_555 1_555
C2 C3 1_555 1_555
C3 C4 1_555 1_555
C4 C5 1_555 1_555
C5 H3 1_555 1_555
C6 C3 1_555 1_555
O1 C6 1_555 1_555
O2 C6 1_555 1_555
H1 C2 1_555 1_555
H2 C4 1_555 1_555
N1 C7 1_555 1_555
C7 C8 1_555 1_555
C8 N2 1_555 1_555
N2 C10 1_555 1_555
C9 N1 1_555 1_555
C10 C9 1_555 1_555
C11 N1 1_555 1_555
C12 N2 1_555 1_555
H4 C7 1_555 1_555
H5 C7 1_555 1_555
H6 C8 1_555 1_555
H7 C8 1_555 1_555
H8 C9 1_555 1_555
H9 C9 1_555 1_555
H10 C10 1_555 1_555
H11 C10 1_555 1_555
H12 C11 1_555 1_555
H13 C11 1_555 1_555
H14 C12 1_555 1_555
H15 C12 1_555 1_555
C1D C1 1_555 1_555
C2D C1D 1_555 1_555
C3D C2D 1_555 1_555
C4D C3D 1_555 1_555
C5D C1 1_555 1_555
C6D C3D 1_555 1_555
O1D Co2 1_555 1_555
O2D C6D 1_555 1_555
H1D C2D 1_555 1_555
H2D C4D 1_555 1_555
H3D C5D 1_555 1_555
C7A N1 1_555 1_555
C8A N2 1_555 1_555
C9A N1 1_555 1_555
C10A C7 1_555 1_555
C11A N1 1_555 1_555
C12A N2 1_555 1_555
H4A C7A 1_555 1_555
H5A C11 1_555 1_555
H6A C8A 1_555 1_555
H7A C12 1_555 1_555
H8A C9A 1_555 1_555
H9A C7 1_555 1_555
H10A C8 1_555 1_555
H11A C10A 1_555 1_555
H12A C11A 1_555 1_555
H13A C9 1_555 1_555
H14A C10 1_555 1_555
H15A C12A 1_555 1_555
C7B N1 1_555 1_555
C8B N2 1_555 1_555
C9B N1 1_555 1_555
C10B C8 1_555 1_555
C11B N1 1_555 1_555
C12B C8 1_555 1_555
H4B C11 1_555 1_555
H5B C9 1_555 1_555
H6B C12 1_555 1_555
H7B C10 1_555 1_555
H8B C7 1_555 1_555
H9B C11 1_555 1_555
H10B C12 1_555 1_555
H11B C8 1_555 1_555
H12B C9 1_555 1_555
H13B C7 1_555 1_555
H14B C8 1_555 1_555
H15B C10 1_555 1_555
C7C N1 1_555 1_555
C8C N2 1_555 1_555
C9C N1 1_555 1_555
C10C N2 1_555 1_555
C11C N1 1_555 1_555
C12C C7 1_555 1_555
H4C C9 1_555 1_555
H5C C9A 1_555 1_555
H6C C10 1_555 1_555
H7C C10A 1_555 1_555
H8C C11 1_555 1_555
H9C C11A 1_555 1_555
H10C C12A 1_555 1_555
H11C C12 1_555 1_555
H12C C7 1_555 1_555
H13C C7A 1_555 1_555
H14C C8A 1_555 1_555
H15C C8 1_555 1_555
C1A C2A 1_555 1_555
C2A C3A 1_555 1_555
C3A C4A 1_555 1_555
C4A C5A 1_555 1_555
C5A H3A 1_555 1_555
C6A C3A 1_555 1_555
O1A C6A 1_555 1_555
O2A C6A 1_555 1_555
H1A C2A 1_555 1_555
H2A C4A 1_555 1_555
C1E C1A 1_555 1_555
C2E C1E 1_555 1_555
C3E C2E 1_555 1_555
C4E C3E 1_555 1_555
C5E C1A 1_555 1_555
C6E C3E 1_555 1_555
O1E Co2 1_555 1_555
O2E Co1 1_555 1_555
H1E C2E 1_555 1_555
H2E C4E 1_555 1_555
H3E C5E 1_555 1_555
Co1_2 N2 1_555 1_555
Co1D O2A 1_555 1_555
Co1D_2 O2 1_555 1_555
Co2D O1A 1_555 1_555
Co2D_2 O1 1_555 1_555
O1F Co2 1_555 1_555
O1G Co2 1_555 1_555
O2F Co1 1_555 1_555
O2G Co1 1_555 1_555
N2_2 Co1 1_555 1_555
C5 C1D 1_555 1_555
C7 C9A 1_555 1_555
C7 C9B 1_555 1_555
C7 C11B 1_555 1_555
C7 C11C 1_555 1_555
C8 C9A 1_555 1_555
C8 C10A 1_555 1_555
C8 C11C 1_555 1_555
C8 C12C 1_555 1_555
N2 C10A 1_555 1_555
N2 C10B 1_555 1_555
N2 C12B 1_555 1_555
N2 C12C 1_555 1_555
C9 C11A 1_555 1_555
C9 C12A 1_555 1_555
C9 C7B 1_555 1_555
C9 C11B 1_555 1_555
C9 C7C 1_555 1_555
C9 C8C 1_555 1_555
C10 C11A 1_555 1_555
C10 C12A 1_555 1_555
C10 C8B 1_555 1_555
C10 C12B 1_555 1_555
C10 C7C 1_555 1_555
C10 C8C 1_555 1_555
C11 C12 1_555 1_555
C11 C7A 1_555 1_555
C11 C8A 1_555 1_555
C11 C7B 1_555 1_555
C11 C9B 1_555 1_555
C11 C9C 1_555 1_555
C11 C10C 1_555 1_555
C12 C7A 1_555 1_555
C12 C8A 1_555 1_555
C12 C8B 1_555 1_555
C12 C10B 1_555 1_555
C12 C9C 1_555 1_555
C12 C10C 1_555 1_555
H4 C9A 1_555 1_555
H4 C11B 1_555 1_555
H5 C9B 1_555 1_555
H5 C11C 1_555 1_555
H6 C10A 1_555 1_555
H6 C12B 1_555 1_555
H7 C10B 1_555 1_555
H7 C12C 1_555 1_555
H8 C11A 1_555 1_555
H8 C7B 1_555 1_555
H9 C11B 1_555 1_555
H9 C7C 1_555 1_555
H10 C12B 1_555 1_555
H10 C8C 1_555 1_555
H11 C12A 1_555 1_555
H11 C8B 1_555 1_555
H12 C7A 1_555 1_555
H12 C9B 1_555 1_555
H13 C7B 1_555 1_555
H13 C9C 1_555 1_555
H14 C8B 1_555 1_555
H14 C10C 1_555 1_555
H15 C8A 1_555 1_555
H15 C10B 1_555 1_555
C4D C5D 1_555 1_555
C6D O1D 1_555 1_555
C7A C8A 1_555 1_555
C7A H5A 1_555 1_555
C7A C9B 1_555 1_555
C7A C10B 1_555 1_555
C7A H9B 1_555 1_555
C7A C9C 1_555 1_555
C7A C11C 1_555 1_555
C7A H8C 1_555 1_555
C8A H7A 1_555 1_555
C8A C9B 1_555 1_555
C8A C10B 1_555 1_555
C8A H10B 1_555 1_555
C8A C10C 1_555 1_555
C8A C12C 1_555 1_555
C8A H11C 1_555 1_555
C9A C10A 1_555 1_555
C9A H9A 1_555 1_555
C9A C11B 1_555 1_555
C9A C12B 1_555 1_555
C9A H13B 1_555 1_555
C9A C7C 1_555 1_555
C9A C11C 1_555 1_555
C9A H12C 1_555 1_555
C10A H10A 1_555 1_555
C10A C11B 1_555 1_555
C10A C12B 1_555 1_555
C10A H14B 1_555 1_555
C10A C8C 1_555 1_555
C10A C12C 1_555 1_555
C10A H15C 1_555 1_555
C11A C12A 1_555 1_555
C11A H13A 1_555 1_555
C11A C7B 1_555 1_555
C11A C8B 1_555 1_555
C11A H5B 1_555 1_555
C11A C7C 1_555 1_555
C11A C9C 1_555 1_555
C11A H4C 1_555 1_555
C12A H14A 1_555 1_555
C12A C7B 1_555 1_555
C12A C8B 1_555 1_555
C12A H7B 1_555 1_555
C12A C8C 1_555 1_555
C12A C10C 1_555 1_555
C12A H6C 1_555 1_555
H4A C9B 1_555 1_555
H4A C11C 1_555 1_555
H5A C9C 1_555 1_555
H6A C10B 1_555 1_555
H6A C12C 1_555 1_555
H7A C10C 1_555 1_555
H8A C11B 1_555 1_555
H8A C7C 1_555 1_555
H9A C11C 1_555 1_555
H10A C12C 1_555 1_555
H11A C12B 1_555 1_555
H11A C8C 1_555 1_555
H12A C7B 1_555 1_555
H12A C9C 1_555 1_555
H13A C7C 1_555 1_555
H14A C8C 1_555 1_555
H15A C8B 1_555 1_555
H15A C10C 1_555 1_555
C7B C8B 1_555 1_555
C7B H4B 1_555 1_555
C7B H5B 1_555 1_555
C7B C9C 1_555 1_555
C7B C10C 1_555 1_555
C7B H9C 1_555 1_555
C8B H6B 1_555 1_555
C8B H7B 1_555 1_555
C8B C9C 1_555 1_555
C8B C10C 1_555 1_555
C8B H10C 1_555 1_555
C9B C10B 1_555 1_555
C9B H8B 1_555 1_555
C9B H9B 1_555 1_555
C9B C11C 1_555 1_555
C9B C12C 1_555 1_555
C9B H13C 1_555 1_555
C10B H10B 1_555 1_555
C10B H11B 1_555 1_555
C10B C11C 1_555 1_555
C10B C12C 1_555 1_555
C10B H14C 1_555 1_555
C11B C12B 1_555 1_555
C11B H12B 1_555 1_555
C11B H13B 1_555 1_555
C11B C7C 1_555 1_555
C11B C8C 1_555 1_555
C11B H5C 1_555 1_555
C12B H14B 1_555 1_555
C12B H15B 1_555 1_555
C12B C7C 1_555 1_555
C12B C8C 1_555 1_555
C12B H7C 1_555 1_555
H4B C9C 1_555 1_555
H6B C10C 1_555 1_555
H8B C11C 1_555 1_555
H11B C12C 1_555 1_555
H12B C7C 1_555 1_555
H15B C8C 1_555 1_555
C7C C8C 1_555 1_555
C7C H4C 1_555 1_555
C7C H5C 1_555 1_555
C8C H6C 1_555 1_555
C8C H7C 1_555 1_555
C9C C10C 1_555 1_555
C9C H8C 1_555 1_555
C9C H9C 1_555 1_555
C10C H10C 1_555 1_555
C10C H11C 1_555 1_555
C11C C12C 1_555 1_555
C11C H12C 1_555 1_555
C11C H13C 1_555 1_555
C12C H14C 1_555 1_555
C12C H15C 1_555 1_555
C5A C1E 1_555 1_555
C4E C5E 1_555 1_555
C6E O1E 1_555 1_555
C6E O2E 1_555 1_555

#END
