
#######################################################################
#
#                 Cambridge Crystallographic Data Centre
#                                CCDC 
#
#######################################################################
#
# If this CIF has been generated from an entry in the Cambridge 
# Structural Database, then it will include bibliographic, chemical, 
# crystal, experimental, refinement or atomic coordinate data resulting 
# from the CCDC's data processing and validation procedures.
#
#######################################################################

data_NIFFIT
_chemical_name_common            DUT-8(Cu)
_chemical_formula_moiety         
'(C30 H24 Cu2 N2 O8)n,6n(C5 H11 N1 O1),2n(H2 O1)'
_chemical_name_systematic        
'catena-[bis(\m~4~-Naphthalene-2,6-dicarboxylato)-(\m~2~-1,4-diazabicyclo[2.2.2]octane)-di-copper N,N-diethylformamide solvate]'
_symmetry_cell_setting           tetragonal
_symmetry_space_group_name_H-M   'P 4/n'
_symmetry_Int_Tables_number      85
_space_group_name_Hall           '-P 4a'
loop_
_symmetry_equiv_pos_site_id
_symmetry_equiv_pos_as_xyz
1 x,y,z
2 1/2-y,x,z
3 1/2-x,1/2-y,z
4 y,1/2-x,z
5 -x,-y,-z
6 1/2+y,-x,-z
7 1/2+x,1/2+y,-z
8 -y,1/2+x,-z
_cell_length_a                   18.3761(5)
_cell_length_b                   18.3761(5)
_cell_length_c                   9.6523(5)
_cell_angle_alpha                90
_cell_angle_beta                 90
_cell_angle_gamma                90
_cell_volume                     3259.4
_exptl_crystal_colour            blue
_cell_formula_units_Z            2
loop_
_atom_site_label
_atom_site_type_symbol
_atom_site_fract_x
_atom_site_fract_y
_atom_site_fract_z
_atom_site_U_iso_or_equiv
_atom_site_thermal_displace_type
Cu1 Cu 0.25000 0.25000 0.69055(12) 0.0127 Uiso
Cu2 Cu 0.25000 0.25000 0.42821(17) 0.0127 Uiso
C1 C 0.51237 0.51237 0.56385 0.0127 Uiso
C2 C 0.56581 0.56581 0.57003 0.0127 Uiso
C3 C 0.59452 0.59451 0.44851 0.0127 Uiso
C4 C 0.56981 0.56976 0.32082 0.0127 Uiso
C5 C 0.51639 0.51630 0.31464 0.0127 Uiso
C6 C 0.65374 0.65370 0.45536 0.0127 Uiso
O1 O 0.67508 0.67506 0.56561 0.0127 Uiso
O2 O 0.67852 0.67848 0.35046 0.0127 Uiso
H1 H 0.58271 0.58270 0.65730 0.0127 Uiso
H2 H 0.58944 0.58936 0.23777 0.0127 Uiso
H3 H 0.49950 0.49938 0.22736 0.0127 Uiso
N1 N 0.25000 0.25000 0.20438 0.0127 Uiso
C7 C 0.24913 0.17681 0.15465 0.0127 Uiso
C8 C 0.24914 0.17681 -0.00314 0.0127 Uiso
N2 N 0.25000 0.25000 -0.05288 0.0127 Uiso
C9 C 0.18694 0.28682 0.15114 0.0127 Uiso
C10 C 0.18695 0.28681 0.00034 0.0127 Uiso
C11 C 0.31329 0.28561 0.14590 0.0127 Uiso
C12 C 0.31330 0.28560 0.00562 0.0127 Uiso
H4 H 0.19877 0.14985 0.19296 0.0127 Uiso
H5 H 0.29853 0.14812 0.19298 0.0127 Uiso
H6 H 0.19878 0.14985 -0.04148 0.0127 Uiso
H7 H 0.29854 0.14812 -0.04145 0.0127 Uiso
H8 H 0.18663 0.34394 0.18946 0.0127 Uiso
H9 H 0.13758 0.25805 0.18946 0.0127 Uiso
H10 H 0.13759 0.25806 -0.03800 0.0127 Uiso
H11 H 0.18665 0.34394 -0.03799 0.0127 Uiso
H12 H 0.36305 0.25756 0.18423 0.0127 Uiso
H13 H 0.31560 0.34269 0.18421 0.0127 Uiso
H14 H 0.31562 0.34268 -0.03271 0.0127 Uiso
H15 H 0.36306 0.25754 -0.03269 0.0127 Uiso
C1D C 0.48763 0.48763 0.43615 0.0127 Uiso
C2D C 0.43419 0.43419 0.42997 0.0127 Uiso
C3D C 0.40548 0.40549 0.55149 0.0127 Uiso
C4D C 0.43019 0.43024 0.67918 0.0127 Uiso
C5D C 0.48361 0.48370 0.68536 0.0127 Uiso
C6D C 0.34626 0.34630 0.54464 0.0127 Uiso
O1D O 0.32492 0.32494 0.43439 0.0127 Uiso
O2D O 0.32148 0.32152 0.64954 0.0127 Uiso
H1D H 0.41729 0.41730 0.34270 0.0127 Uiso
H2D H 0.41056 0.41064 0.76223 0.0127 Uiso
H3D H 0.50050 0.50062 0.77264 0.0127 Uiso
C7A C 0.32319 0.24913 0.15465 0.0127 Uiso
C8A C 0.32319 0.24914 -0.00314 0.0127 Uiso
C9A C 0.21318 0.18694 0.15114 0.0127 Uiso
C10A C 0.21319 0.18695 0.00034 0.0127 Uiso
C11A C 0.21439 0.31329 0.14590 0.0127 Uiso
C12A C 0.21440 0.31330 0.00562 0.0127 Uiso
H4A H 0.35015 0.19877 0.19296 0.0127 Uiso
H5A H 0.35188 0.29853 0.19298 0.0127 Uiso
H6A H 0.35015 0.19878 -0.04148 0.0127 Uiso
H7A H 0.35188 0.29854 -0.04145 0.0127 Uiso
H8A H 0.15606 0.18663 0.18946 0.0127 Uiso
H9A H 0.24195 0.13758 0.18946 0.0127 Uiso
H10A H 0.24194 0.13759 -0.03800 0.0127 Uiso
H11A H 0.15606 0.18665 -0.03799 0.0127 Uiso
H12A H 0.24244 0.36305 0.18423 0.0127 Uiso
H13A H 0.15731 0.31560 0.18421 0.0127 Uiso
H14A H 0.15732 0.31562 -0.03271 0.0127 Uiso
H15A H 0.24246 0.36306 -0.03269 0.0127 Uiso
C7B C 0.25087 0.32319 0.15465 0.0127 Uiso
C8B C 0.25086 0.32319 -0.00314 0.0127 Uiso
C9B C 0.31306 0.21318 0.15114 0.0127 Uiso
C10B C 0.31305 0.21319 0.00034 0.0127 Uiso
C11B C 0.18671 0.21439 0.14590 0.0127 Uiso
C12B C 0.18670 0.21440 0.00562 0.0127 Uiso
H4B H 0.30123 0.35015 0.19296 0.0127 Uiso
H5B H 0.20147 0.35188 0.19298 0.0127 Uiso
H6B H 0.30122 0.35015 -0.04148 0.0127 Uiso
H7B H 0.20146 0.35188 -0.04145 0.0127 Uiso
H8B H 0.31337 0.15606 0.18946 0.0127 Uiso
H9B H 0.36242 0.24195 0.18946 0.0127 Uiso
H10B H 0.36241 0.24194 -0.03800 0.0127 Uiso
H11B H 0.31335 0.15606 -0.03799 0.0127 Uiso
H12B H 0.13695 0.24244 0.18423 0.0127 Uiso
H13B H 0.18440 0.15731 0.18421 0.0127 Uiso
H14B H 0.18438 0.15732 -0.03271 0.0127 Uiso
H15B H 0.13694 0.24246 -0.03269 0.0127 Uiso
C7C C 0.17681 0.25087 0.15465 0.0127 Uiso
C8C C 0.17681 0.25086 -0.00314 0.0127 Uiso
C9C C 0.28682 0.31306 0.15114 0.0127 Uiso
C10C C 0.28681 0.31305 0.00034 0.0127 Uiso
C11C C 0.28561 0.18671 0.14590 0.0127 Uiso
C12C C 0.28560 0.18670 0.00562 0.0127 Uiso
H4C H 0.14985 0.30123 0.19296 0.0127 Uiso
H5C H 0.14812 0.20147 0.19298 0.0127 Uiso
H6C H 0.14985 0.30122 -0.04148 0.0127 Uiso
H7C H 0.14812 0.20146 -0.04145 0.0127 Uiso
H8C H 0.34394 0.31337 0.18946 0.0127 Uiso
H9C H 0.25805 0.36242 0.18946 0.0127 Uiso
H10C H 0.25806 0.36241 -0.03800 0.0127 Uiso
H11C H 0.34394 0.31335 -0.03799 0.0127 Uiso
H12C H 0.25756 0.13695 0.18423 0.0127 Uiso
H13C H 0.34269 0.18440 0.18421 0.0127 Uiso
H14C H 0.34268 0.18438 -0.03271 0.0127 Uiso
H15C H 0.25754 0.13694 -0.03269 0.0127 Uiso
C1A C -0.01237 0.51237 0.56385 0.0127 Uiso
C2A C -0.06581 0.56581 0.57003 0.0127 Uiso
C3A C -0.09451 0.59452 0.44851 0.0127 Uiso
C4A C -0.06976 0.56981 0.32082 0.0127 Uiso
C5A C -0.01630 0.51639 0.31464 0.0127 Uiso
C6A C -0.15370 0.65374 0.45536 0.0127 Uiso
O1A O -0.17506 0.67508 0.56561 0.0127 Uiso
O2A O -0.17848 0.67852 0.35046 0.0127 Uiso
H1A H -0.08270 0.58271 0.65730 0.0127 Uiso
H2A H -0.08936 0.58944 0.23777 0.0127 Uiso
H3A H 0.00062 0.49950 0.22736 0.0127 Uiso
C1E C 0.01237 0.48763 0.43615 0.0127 Uiso
C2E C 0.06581 0.43419 0.42997 0.0127 Uiso
C3E C 0.09451 0.40548 0.55149 0.0127 Uiso
C4E C 0.06976 0.43019 0.67918 0.0127 Uiso
C5E C 0.01630 0.48361 0.68536 0.0127 Uiso
C6E C 0.15370 0.34626 0.54464 0.0127 Uiso
O1E O 0.17506 0.32492 0.43439 0.0127 Uiso
O2E O 0.17848 0.32148 0.64954 0.0127 Uiso
H1E H 0.08270 0.41729 0.34270 0.0127 Uiso
H2E H 0.08936 0.41056 0.76223 0.0127 Uiso
H3E H -0.00062 0.50050 0.77264 0.0127 Uiso
Cu1_2 Cu 0.25000 0.25000 -0.30945(12) 0.0127 Uiso
Cu1D Cu -0.25000 0.75000 0.30945(12) 0.0127 Uiso
Cu1D_2 Cu 0.75000 0.75000 0.30945(12) 0.0127 Uiso
Cu2D Cu -0.25000 0.75000 0.57179(17) 0.0127 Uiso
Cu2D_2 Cu 0.75000 0.75000 0.57179(17) 0.0127 Uiso
O1F O 0.17508 0.17506 0.43439 0.0127 Uiso
O1G O 0.32494 0.17508 0.43439 0.0127 Uiso
O2F O 0.17852 0.17848 0.64954 0.0127 Uiso
O2G O 0.32152 0.17852 0.64954 0.0127 Uiso
N2_2 N 0.25000 0.25000 0.94712 0.0127 Uiso
O3? O 0.23216 -0.21225 0.46897 0.0127 Uiso
H16? H 0.20641 -0.16826 0.40725 0.0507 Uiso
H17? H 0.19300 -0.22290 0.55415 0.0507 Uiso
C13? C 0.35298 -0.01895 -0.15399 0.0127 Uiso
N3? N 0.32467 0.00791 -0.01642 0.0127 Uiso
O4? O 0.30790 -0.07091 -0.23961 0.0127 Uiso
H18? H 0.40833 0.00001 -0.19328 0.0127 Uiso
C14? C 0.25160 -0.01770 0.03591 0.0127 Uiso
C15? C 0.36968 0.05999 0.06917 0.0127 Uiso
C16? C 0.40430 0.01958 0.19249 0.0127 Uiso
C17? C 0.25576 -0.03037 0.19337 0.0127 Uiso
H19? H 0.23637 -0.07072 -0.01813 0.0127 Uiso
H20? H 0.20863 0.02535 0.01268 0.0127 Uiso
H21? H 0.33333 0.10557 0.10955 0.0127 Uiso
H22? H 0.41448 0.08412 0.00160 0.0127 Uiso
H23? H 0.35965 -0.00427 0.26074 0.0127 Uiso
H24? H 0.43850 0.05915 0.25603 0.0127 Uiso
H25? H 0.44041 -0.02618 0.15209 0.0127 Uiso
H26? H 0.27131 0.02272 0.24689 0.0127 Uiso
H27? H 0.29883 -0.07332 0.21658 0.0127 Uiso
H28? H 0.20062 -0.04965 0.23313 0.0127 Uiso
C18? C 0.33357 0.03871 0.30809 0.0127 Uiso
N4? N 0.32858 -0.04326 0.30790 0.0127 Uiso
O5? O 0.28671 0.08259 0.40581 0.0127 Uiso
H29? H 0.37269 0.06748 0.23460 0.0127 Uiso
C19? C 0.27633 -0.08123 0.40457 0.0127 Uiso
C20? C 0.37553 -0.08719 0.21035 0.0127 Uiso
C21? C 0.32932 -0.11621 0.08921 0.0127 Uiso
C22? C 0.24144 -0.14638 0.32947 0.0127 Uiso
H30? H 0.23207 -0.04143 0.43789 0.0127 Uiso
H31? H 0.30699 -0.10134 0.49984 0.0127 Uiso
H32? H 0.40048 -0.13493 0.26896 0.0127 Uiso
H33? H 0.42078 -0.05106 0.16797 0.0127 Uiso
H34? H 0.28426 -0.15271 0.13114 0.0127 Uiso
H35? H 0.36522 -0.14892 0.01570 0.0127 Uiso
H36? H 0.30414 -0.06848 0.03098 0.0127 Uiso
H37? H 0.28593 -0.18587 0.29583 0.0127 Uiso
H38? H 0.21090 -0.12627 0.23406 0.0127 Uiso
H39? H 0.20201 -0.17518 0.40232 0.0127 Uiso
C23? C 0.25209 -0.08530 -0.29045 0.0127 Uiso
N5? N 0.25429 -0.06292 -0.14008 0.0127 Uiso
O6? O 0.22510 -0.03246 -0.39873 0.0127 Uiso
H40? H 0.27083 -0.14202 -0.32228 0.0127 Uiso
C24? C 0.22893 0.01204 -0.09800 0.0127 Uiso
C25? C 0.28141 -0.11571 -0.03174 0.0127 Uiso
C26? C 0.21686 -0.14660 0.05138 0.0127 Uiso
C27? C 0.18711 0.00714 0.03988 0.0127 Uiso
H41? H 0.19166 0.03495 -0.18175 0.0127 Uiso
H42? H 0.27804 0.04932 -0.08477 0.0127 Uiso
H43? H 0.32015 -0.08631 0.04160 0.0127 Uiso
H44? H 0.31144 -0.16222 -0.08502 0.0127 Uiso
H45? H 0.18695 -0.10028 0.10546 0.0127 Uiso
H46? H 0.23775 -0.18668 0.13230 0.0127 Uiso
H47? H 0.17799 -0.17573 -0.02206 0.0127 Uiso
H48? H 0.22450 -0.01608 0.12314 0.0127 Uiso
H49? H 0.13809 -0.03024 0.02669 0.0127 Uiso
H50? H 0.16796 0.06370 0.07191 0.0127 Uiso
loop_
_geom_bond_atom_site_label_1
_geom_bond_atom_site_label_2
_geom_bond_site_symmetry_1
_geom_bond_site_symmetry_2
Cu1 O2D 1_555 1_555
Cu2 N1 1_555 1_555
C1 C2 1_555 1_555
C2 C3 1_555 1_555
C3 C4 1_555 1_555
C4 C5 1_555 1_555
C5 H3 1_555 1_555
C6 C3 1_555 1_555
O1 C6 1_555 1_555
O2 C6 1_555 1_555
H1 C2 1_555 1_555
H2 C4 1_555 1_555
N1 C7 1_555 1_555
C7 C8 1_555 1_555
C8 N2 1_555 1_555
N2 C10 1_555 1_555
C9 N1 1_555 1_555
C10 C9 1_555 1_555
C11 N1 1_555 1_555
C12 N2 1_555 1_555
H4 C7 1_555 1_555
H5 C7 1_555 1_555
H6 C8 1_555 1_555
H7 C8 1_555 1_555
H8 C9 1_555 1_555
H9 C9 1_555 1_555
H10 C10 1_555 1_555
H11 C10 1_555 1_555
H12 C11 1_555 1_555
H13 C11 1_555 1_555
H14 C12 1_555 1_555
H15 C12 1_555 1_555
C1D C1 1_555 1_555
C2D C1D 1_555 1_555
C3D C2D 1_555 1_555
C4D C3D 1_555 1_555
C5D C1 1_555 1_555
C6D C3D 1_555 1_555
O1D Cu2 1_555 1_555
O2D C6D 1_555 1_555
H1D C2D 1_555 1_555
H2D C4D 1_555 1_555
H3D C5D 1_555 1_555
C7A N1 1_555 1_555
C8A N2 1_555 1_555
C9A N1 1_555 1_555
C10A C7 1_555 1_555
C11A N1 1_555 1_555
C12A N2 1_555 1_555
H4A C7A 1_555 1_555
H5A C11 1_555 1_555
H6A C8A 1_555 1_555
H7A C12 1_555 1_555
H8A C9A 1_555 1_555
H9A C7 1_555 1_555
H10A C8 1_555 1_555
H11A C10A 1_555 1_555
H12A C11A 1_555 1_555
H13A C9 1_555 1_555
H14A C10 1_555 1_555
H15A C12A 1_555 1_555
C7B N1 1_555 1_555
C8B N2 1_555 1_555
C9B N1 1_555 1_555
C10B C8 1_555 1_555
C11B N1 1_555 1_555
C12B C8 1_555 1_555
H4B C11 1_555 1_555
H5B C9 1_555 1_555
H6B C12 1_555 1_555
H7B C10 1_555 1_555
H8B C7 1_555 1_555
H9B C11 1_555 1_555
H10B C12 1_555 1_555
H11B C8 1_555 1_555
H12B C9 1_555 1_555
H13B C7 1_555 1_555
H14B C8 1_555 1_555
H15B C10 1_555 1_555
C7C N1 1_555 1_555
C8C N2 1_555 1_555
C9C N1 1_555 1_555
C10C N2 1_555 1_555
C11C N1 1_555 1_555
C12C C7 1_555 1_555
H4C C9 1_555 1_555
H5C C9A 1_555 1_555
H6C C10 1_555 1_555
H7C C10A 1_555 1_555
H8C C11 1_555 1_555
H9C C11A 1_555 1_555
H10C C12A 1_555 1_555
H11C C12 1_555 1_555
H12C C7 1_555 1_555
H13C C7A 1_555 1_555
H14C C8A 1_555 1_555
H15C C8 1_555 1_555
C1A C2A 1_555 1_555
C2A C3A 1_555 1_555
C3A C4A 1_555 1_555
C4A C5A 1_555 1_555
C5A H3A 1_555 1_555
C6A C3A 1_555 1_555
O1A C6A 1_555 1_555
O2A C6A 1_555 1_555
H1A C2A 1_555 1_555
H2A C4A 1_555 1_555
C1E C1A 1_555 1_555
C2E C1E 1_555 1_555
C3E C2E 1_555 1_555
C4E C3E 1_555 1_555
C5E C1A 1_555 1_555
C6E C3E 1_555 1_555
O1E Cu2 1_555 1_555
O2E Cu1 1_555 1_555
H1E C2E 1_555 1_555
H2E C4E 1_555 1_555
H3E C5E 1_555 1_555
Cu1_2 N2 1_555 1_555
Cu1D O2A 1_555 1_555
Cu1D_2 O2 1_555 1_555
Cu2D O1A 1_555 1_555
Cu2D_2 O1 1_555 1_555
O1F Cu2 1_555 1_555
O1G Cu2 1_555 1_555
O2F Cu1 1_555 1_555
O2G Cu1 1_555 1_555
N2_2 Cu1 1_555 1_555
C5 C1D 1_555 1_555
C7 C9A 1_555 1_555
C7 C9B 1_555 1_555
C7 C11B 1_555 1_555
C7 C11C 1_555 1_555
C8 C9A 1_555 1_555
C8 C10A 1_555 1_555
C8 C11C 1_555 1_555
C8 C12C 1_555 1_555
N2 C10A 1_555 1_555
N2 C10B 1_555 1_555
N2 C12B 1_555 1_555
N2 C12C 1_555 1_555
C9 C11A 1_555 1_555
C9 C12A 1_555 1_555
C9 C7B 1_555 1_555
C9 C11B 1_555 1_555
C9 C7C 1_555 1_555
C9 C8C 1_555 1_555
C10 C11A 1_555 1_555
C10 C12A 1_555 1_555
C10 C8B 1_555 1_555
C10 C12B 1_555 1_555
C10 C7C 1_555 1_555
C10 C8C 1_555 1_555
C11 C12 1_555 1_555
C11 C7A 1_555 1_555
C11 C8A 1_555 1_555
C11 C7B 1_555 1_555
C11 C9B 1_555 1_555
C11 C9C 1_555 1_555
C11 C10C 1_555 1_555
C12 C7A 1_555 1_555
C12 C8A 1_555 1_555
C12 C8B 1_555 1_555
C12 C10B 1_555 1_555
C12 C9C 1_555 1_555
C12 C10C 1_555 1_555
H4 C9A 1_555 1_555
H4 C11B 1_555 1_555
H5 C9B 1_555 1_555
H5 C11C 1_555 1_555
H6 C10A 1_555 1_555
H6 C12B 1_555 1_555
H7 C10B 1_555 1_555
H7 C12C 1_555 1_555
H8 C11A 1_555 1_555
H8 C7B 1_555 1_555
H9 C11B 1_555 1_555
H9 C7C 1_555 1_555
H10 C12B 1_555 1_555
H10 C8C 1_555 1_555
H11 C12A 1_555 1_555
H11 C8B 1_555 1_555
H12 C7A 1_555 1_555
H12 C9B 1_555 1_555
H13 C7B 1_555 1_555
H13 C9C 1_555 1_555
H14 C8B 1_555 1_555
H14 C10C 1_555 1_555
H15 C8A 1_555 1_555
H15 C10B 1_555 1_555
C4D C5D 1_555 1_555
C6D O1D 1_555 1_555
C7A C8A 1_555 1_555
C7A H5A 1_555 1_555
C7A C9B 1_555 1_555
C7A C10B 1_555 1_555
C7A H9B 1_555 1_555
C7A C9C 1_555 1_555
C7A C11C 1_555 1_555
C7A H8C 1_555 1_555
C8A H7A 1_555 1_555
C8A C9B 1_555 1_555
C8A C10B 1_555 1_555
C8A H10B 1_555 1_555
C8A C10C 1_555 1_555
C8A C12C 1_555 1_555
C8A H11C 1_555 1_555
C9A C10A 1_555 1_555
C9A H9A 1_555 1_555
C9A C11B 1_555 1_555
C9A C12B 1_555 1_555
C9A H13B 1_555 1_555
C9A C7C 1_555 1_555
C9A C11C 1_555 1_555
C9A H12C 1_555 1_555
C10A H10A 1_555 1_555
C10A C11B 1_555 1_555
C10A C12B 1_555 1_555
C10A H14B 1_555 1_555
C10A C8C 1_555 1_555
C10A C12C 1_555 1_555
C10A H15C 1_555 1_555
C11A C12A 1_555 1_555
C11A H13A 1_555 1_555
C11A C7B 1_555 1_555
C11A C8B 1_555 1_555
C11A H5B 1_555 1_555
C11A C7C 1_555 1_555
C11A C9C 1_555 1_555
C11A H4C 1_555 1_555
C12A H14A 1_555 1_555
C12A C7B 1_555 1_555
C12A C8B 1_555 1_555
C12A H7B 1_555 1_555
C12A C8C 1_555 1_555
C12A C10C 1_555 1_555
C12A H6C 1_555 1_555
H4A C9B 1_555 1_555
H4A C11C 1_555 1_555
H5A C9C 1_555 1_555
H6A C10B 1_555 1_555
H6A C12C 1_555 1_555
H7A C10C 1_555 1_555
H8A C11B 1_555 1_555
H8A C7C 1_555 1_555
H9A C11C 1_555 1_555
H10A C12C 1_555 1_555
H11A C12B 1_555 1_555
H11A C8C 1_555 1_555
H12A C7B 1_555 1_555
H12A C9C 1_555 1_555
H13A C7C 1_555 1_555
H14A C8C 1_555 1_555
H15A C8B 1_555 1_555
H15A C10C 1_555 1_555
C7B C8B 1_555 1_555
C7B H4B 1_555 1_555
C7B H5B 1_555 1_555
C7B C9C 1_555 1_555
C7B C10C 1_555 1_555
C7B H9C 1_555 1_555
C8B H6B 1_555 1_555
C8B H7B 1_555 1_555
C8B C9C 1_555 1_555
C8B C10C 1_555 1_555
C8B H10C 1_555 1_555
C9B C10B 1_555 1_555
C9B H8B 1_555 1_555
C9B H9B 1_555 1_555
C9B C11C 1_555 1_555
C9B C12C 1_555 1_555
C9B H13C 1_555 1_555
C10B H10B 1_555 1_555
C10B H11B 1_555 1_555
C10B C11C 1_555 1_555
C10B C12C 1_555 1_555
C10B H14C 1_555 1_555
C11B C12B 1_555 1_555
C11B H12B 1_555 1_555
C11B H13B 1_555 1_555
C11B C7C 1_555 1_555
C11B C8C 1_555 1_555
C11B H5C 1_555 1_555
C12B H14B 1_555 1_555
C12B H15B 1_555 1_555
C12B C7C 1_555 1_555
C12B C8C 1_555 1_555
C12B H7C 1_555 1_555
H4B C9C 1_555 1_555
H6B C10C 1_555 1_555
H8B C11C 1_555 1_555
H11B C12C 1_555 1_555
H12B C7C 1_555 1_555
H15B C8C 1_555 1_555
C7C C8C 1_555 1_555
C7C H4C 1_555 1_555
C7C H5C 1_555 1_555
C8C H6C 1_555 1_555
C8C H7C 1_555 1_555
C9C C10C 1_555 1_555
C9C H8C 1_555 1_555
C9C H9C 1_555 1_555
C10C H10C 1_555 1_555
C10C H11C 1_555 1_555
C11C C12C 1_555 1_555
C11C H12C 1_555 1_555
C11C H13C 1_555 1_555
C12C H14C 1_555 1_555
C12C H15C 1_555 1_555
C5A C1E 1_555 1_555
C4E C5E 1_555 1_555
C6E O1E 1_555 1_555
C6E O2E 1_555 1_555

#END
