
#######################################################################
#
#                 Cambridge Crystallographic Data Centre
#                                CCDC 
#
#######################################################################
#
# If this CIF has been generated from an entry in the Cambridge 
# Structural Database, then it will include bibliographic, chemical, 
# crystal, experimental, refinement or atomic coordinate data resulting 
# from the CCDC's data processing and validation procedures.
#
#######################################################################

data_IGODAK
_chemical_formula_moiety         '(C14 H20 Cl2 N8 O2 Zn2)n'
_chemical_name_systematic        
catena-((\m~4~-benzo(1,2-d:4,5-d')bis(triazolato))-dichloro-bis(N,N-dimethylacetamide)-di-zinc)
_symmetry_cell_setting           monoclinic
_symmetry_space_group_name_H-M   'P 21/c'
_symmetry_Int_Tables_number      14
_space_group_name_Hall           '-P 2ybc'
loop_
_symmetry_equiv_pos_site_id
_symmetry_equiv_pos_as_xyz
1 x,y,z
2 -x,1/2+y,1/2-z
3 -x,-y,-z
4 x,1/2-y,1/2+z
_cell_length_a                   9.812(2)
_cell_length_b                   8.6012(17)
_cell_length_c                   12.571(3)
_cell_angle_alpha                90
_cell_angle_beta                 96.91(3)
_cell_angle_gamma                90
_cell_volume                     1053.22
_exptl_crystal_colour            colorless
_exptl_crystal_description       block
_cell_formula_units_Z            2
loop_
_atom_site_label
_atom_site_type_symbol
_atom_site_fract_x
_atom_site_fract_y
_atom_site_fract_z
_atom_site_U_iso_or_equiv
_atom_site_thermal_displace_type
Zn1 Zn 0.67061(9) 0.09534(9) 0.19691(6) 0.0364 Uani
Cl1 Cl 0.8786(2) 0.1417(3) 0.27857(18) 0.0649 Uani
N1 N 0.4350(6) 0.4772(7) 0.2036(4) 0.0364 Uani
N2 N 0.4976(6) 0.3446(7) 0.2341(4) 0.0382 Uani
N3 N 0.5614(6) 0.2861(7) 0.1565(4) 0.0363 Uani
O1 O 0.6913(6) -0.0082(6) 0.0608(4) 0.0522 Uani
C1 C 0.5397(8) 0.3848(7) 0.0687(5) 0.0339 Uani
C2 C 0.4582(7) 0.5060(8) 0.0985(4) 0.0351 Uani
C3 C 0.5853(8) 0.3725(8) -0.0317(5) 0.0373 Uani
H1 H 0.6392 0.2910 -0.0514 0.0450 Uiso
C4 C 0.7606(8) -0.1288(9) 0.0464(5) 0.0481 Uani
N4 N 0.8231(8) -0.1420(8) -0.0385(5) 0.0531 Uani
C5 C 0.9023(11) -0.2792(11) -0.0609(7) 0.0729 Uani
H2 H 0.9398 -0.2649 -0.1273 0.1090 Uiso
H3 H 0.8435 -0.3688 -0.0662 0.1090 Uiso
H4 H 0.9755 -0.2943 -0.0040 0.1090 Uiso
C6 C 0.7704(10) -0.2565(11) 0.1281(6) 0.0630 Uani
H5 H 0.8256 -0.3395 0.1054 0.0950 Uiso
H6 H 0.6801 -0.2948 0.1354 0.0950 Uiso
H7 H 0.8118 -0.2170 0.1958 0.0950 Uiso
C7 C 0.8149(13) -0.0148(12) -0.1154(7) 0.0854 Uani
H8 H 0.8662 -0.0411 -0.1732 0.1280 Uiso
H9 H 0.8524 0.0778 -0.0806 0.1280 Uiso
H10 H 0.7207 0.0029 -0.1430 0.1280 Uiso
Zn1B Zn 0.32939(9) 0.90466(9) -0.19691(6) 0.0364 Uani
Zn1A Zn 0.32939(9) 0.59534(9) 0.30309(6) 0.0364 Uani
Zn1C Zn 0.67061(9) 0.40466(9) -0.30309(6) 0.0364 Uani
Cl1B Cl 0.1214(2) 0.8583(3) -0.27857(18) 0.0649 Uani
N1B N 0.5650(6) 0.5228(7) -0.2036(4) 0.0364 Uani
N1A N 0.5650(6) -0.0228(7) 0.2964(4) 0.0364 Uani
N1C N 0.4350(6) 1.0228(7) -0.2964(4) 0.0364 Uani
N2B N 0.5024(6) 0.6554(7) -0.2341(4) 0.0382 Uani
N3B N 0.4386(6) 0.7139(7) -0.1565(4) 0.0363 Uani
O1B O 0.3087(6) 1.0082(6) -0.0608(4) 0.0522 Uani
C1B C 0.4603(8) 0.6152(7) -0.0687(5) 0.0339 Uani
C2B C 0.5418(7) 0.4940(8) -0.0985(4) 0.0351 Uani
C3B C 0.4147(8) 0.6275(8) 0.0317(5) 0.0373 Uani
H1B H 0.3608 0.7090 0.0514 0.0450 Uiso
C4B C 0.2394(8) 1.1288(9) -0.0464(5) 0.0481 Uani
N4B N 0.1769(8) 1.1420(8) 0.0385(5) 0.0531 Uani
C5B C 0.0977(11) 1.2792(11) 0.0609(7) 0.0729 Uani
H2B H 0.0602 1.2649 0.1273 0.1090 Uiso
H3B H 0.1565 1.3688 0.0662 0.1090 Uiso
H4B H 0.0245 1.2943 0.0040 0.1090 Uiso
C6B C 0.2296(10) 1.2565(11) -0.1281(6) 0.0630 Uani
H5B H 0.1744 1.3395 -0.1054 0.0950 Uiso
H6B H 0.3199 1.2948 -0.1354 0.0950 Uiso
H7B H 0.1882 1.2170 -0.1958 0.0950 Uiso
C7B C 0.1851(13) 1.0148(12) 0.1154(7) 0.0854 Uani
H8B H 0.1338 1.0411 0.1732 0.1280 Uiso
H9B H 0.1476 0.9222 0.0806 0.1280 Uiso
H10B H 0.2793 0.9971 0.1430 0.1280 Uiso
loop_
_atom_site_aniso_label
_atom_site_aniso_U_11
_atom_site_aniso_U_22
_atom_site_aniso_U_33
_atom_site_aniso_U_23
_atom_site_aniso_U_13
_atom_site_aniso_U_12
Zn1 0.0435(6) 0.0388(5) 0.0278(4) 0.0026(3) 0.0079(3) 0.0023(4)
Cl1 0.0501(15) 0.0764(16) 0.0666(13) 0.0022(11) -0.0001(10) -0.0068(11)
N1 0.04 0.043 0.028 -0.006 0.012 0.005
N2 0.05 0.038 0.028 -0.002 0.011 0.009
N3 0.038(4) 0.043(3) 0.029(3) 0.004(2) 0.008(2) 0.007(3)
O1 0.068(4) 0.053(3) 0.036(3) -0.001(2) 0.008(2) 0.018(3)
C1 0.041(4) 0.037(4) 0.024(3) 0.000(3) 0.005(3) 0.006(3)
C2 0.042 0.042 0.022 0 0.007 0
C3 0.042(5) 0.035(4) 0.035(3) -0.002(3) 0.005(3) 0.010(3)
C4 0.046(6) 0.063(6) 0.035(4) -0.004(3) 0.004(3) 0.004(4)
N4 0.065(5) 0.058(4) 0.037(3) -0.007(3) 0.009(3) 0.010(3)
C5 0.093(9) 0.071(6) 0.057(5) -0.003(4) 0.018(5) 0.030(6)
C6 0.063(7) 0.074(6) 0.054(5) 0.011(4) 0.015(4) 0.010(5)
C7 0.139(11) 0.075(7) 0.046(5) 0.011(5) 0.027(5) 0.019(7)
Zn1B 0.0435 0.0388 0.0278 0.0026 0.0079 0.0023
Zn1A 0.0435 0.0388 0.0278 -0.0026 0.0079 -0.0023
Zn1C 0.0435 0.0388 0.0278 -0.0026 0.0079 -0.0023
Cl1B 0.0501 0.0764 0.0666 0.0022 -0.0001 -0.0068
N1B 0.04 0.043 0.028 -0.006 0.012 0.005
N1A 0.04 0.043 0.028 0.006 0.012 -0.005
N1C 0.04 0.043 0.028 0.006 0.012 -0.005
N2B 0.05 0.038 0.028 -0.002 0.011 0.009
N3B 0.038 0.043 0.029 0.004 0.008 0.007
O1B 0.068 0.053 0.036 -0.001 0.008 0.018
C1B 0.041 0.037 0.024 0 0.005 0.006
C2B 0.042 0.042 0.022 0 0.007 0
C3B 0.042 0.035 0.035 -0.002 0.005 0.01
C4B 0.046 0.063 0.035 -0.004 0.004 0.004
N4B 0.065 0.058 0.037 -0.007 0.009 0.01
C5B 0.093 0.071 0.057 -0.003 0.018 0.03
C6B 0.063 0.074 0.054 0.011 0.015 0.01
C7B 0.139 0.075 0.046 0.011 0.027 0.019
loop_
_geom_bond_atom_site_label_1
_geom_bond_atom_site_label_2
_geom_bond_site_symmetry_1
_geom_bond_site_symmetry_2
Zn1 Cl1 1_555 1_555
N1 N2 1_555 1_555
N2 N3 1_555 1_555
N3 Zn1 1_555 1_555
O1 Zn1 1_555 1_555
C1 N3 1_555 1_555
C2 N1 1_555 1_555
C3 C1 1_555 1_555
H1 C3 1_555 1_555
C4 O1 1_555 1_555
N4 C4 1_555 1_555
C5 N4 1_555 1_555
H2 C5 1_555 1_555
H3 C5 1_555 1_555
H4 C5 1_555 1_555
C6 C4 1_555 1_555
H5 C6 1_555 1_555
H6 C6 1_555 1_555
H7 C6 1_555 1_555
C7 N4 1_555 1_555
H8 C7 1_555 1_555
H9 C7 1_555 1_555
H10 C7 1_555 1_555
Zn1B Cl1B 1_555 1_555
Zn1A N1 1_555 1_555
Zn1C N1B 1_555 1_555
N1B N2B 1_555 1_555
N1A Zn1 1_555 1_555
N1C Zn1B 1_555 1_555
N2B N3B 1_555 1_555
N3B Zn1B 1_555 1_555
O1B Zn1B 1_555 1_555
C1B N3B 1_555 1_555
C2B C3 1_555 1_555
C3B C2 1_555 1_555
H1B C3B 1_555 1_555
C4B O1B 1_555 1_555
N4B C4B 1_555 1_555
C5B N4B 1_555 1_555
H2B C5B 1_555 1_555
H3B C5B 1_555 1_555
H4B C5B 1_555 1_555
C6B C4B 1_555 1_555
H5B C6B 1_555 1_555
H6B C6B 1_555 1_555
H7B C6B 1_555 1_555
C7B N4B 1_555 1_555
H8B C7B 1_555 1_555
H9B C7B 1_555 1_555
H10B C7B 1_555 1_555
C1 C2 1_555 1_555
N1B C2B 1_555 1_555
C1B C2B 1_555 1_555
C1B C3B 1_555 1_555

#END
