
#######################################################################
#
#                 Cambridge Crystallographic Data Centre
#                                CCDC 
#
#######################################################################
#
# If this CIF has been generated from an entry in the Cambridge 
# Structural Database, then it will include bibliographic, chemical, 
# crystal, experimental, refinement or atomic coordinate data resulting 
# from the CCDC's data processing and validation procedures.
#
#######################################################################

data_YILDUT
_chemical_formula_moiety         '(C35 H30 N2 O8 Rh2)n'
_chemical_name_systematic        
catena-(tetrakis(\m~2~-Benzoato)-(\m~2~-2-ethyl-3-methylpyrazine-N,N')-di-rhodium(ii))
_symmetry_cell_setting           triclinic
_symmetry_space_group_name_H-M   'P -1'
_symmetry_Int_Tables_number      2
_space_group_name_Hall           '-P 1'
loop_
_symmetry_equiv_pos_site_id
_symmetry_equiv_pos_as_xyz
1 x,y,z
2 -x,-y,-z
_cell_length_a                   10.5247(16)
_cell_length_b                   10.5607(16)
_cell_length_c                   15.696(2)
_cell_angle_alpha                80.483(3)
_cell_angle_beta                 80.585(3)
_cell_angle_gamma                88.619(3)
_cell_volume                     1697.39
_exptl_crystal_colour            red
_exptl_crystal_description       plate
_cell_formula_units_Z            2
loop_
_atom_site_label
_atom_site_type_symbol
_atom_site_fract_x
_atom_site_fract_y
_atom_site_fract_z
C1 C 0.3725(3) 1.2140(3) 0.0104(2)
C2 C 0.3019(4) 1.3353(3) 0.0185(2)
C3 C 0.1833(5) 1.3360(5) 0.0721(3)
H1 H 0.1467 1.2588 0.1022
C4 C 0.1189(6) 1.4493(6) 0.0812(4)
H2 H 0.0386 1.4483 0.1164
C5 C 0.1733(6) 1.5630(5) 0.0384(4)
H3 H 0.1314 1.6398 0.0461
C6 C 0.2873(6) 1.5645(5) -0.0148(4)
H4 H 0.3226 1.6423 -0.0448
C7 C 0.3527(5) 1.4515(4) -0.0254(3)
H5 H 0.4316 1.4540 -0.0624
C8 C 0.3868(3) 0.9577(3) -0.1293(2)
C9 C 0.3239(4) 0.9270(3) -0.2014(2)
C10 C 0.2119(4) 0.8553(4) -0.1823(3)
H6 H 0.1759 0.8275 -0.1242
C11 C 0.1526(5) 0.8246(5) -0.2484(3)
H7 H 0.0771 0.7763 -0.2350
C12 C 0.2060(5) 0.8659(5) -0.3346(3)
H8 H 0.1665 0.8460 -0.3796
C13 C 0.3172(5) 0.9363(5) -0.3534(3)
H9 H 0.3536 0.9635 -0.4115
C14 C 0.3757(4) 0.9671(4) -0.2876(2)
H10 H 0.4510 1.0156 -0.3014
C15 C 0.2201(3) 0.5513(3) 0.5430(2)
C16 C 0.3418(4) 0.5889(4) 0.5697(3)
C17 C 0.4357(4) 0.6557(5) 0.5098(4)
H11 H 0.4249 0.6778 0.4515
C18 C 0.5475(5) 0.6904(6) 0.5367(5)
H12 H 0.6126 0.7350 0.4965
C19 C 0.5608(6) 0.6584(6) 0.6227(5)
H13 H 0.6357 0.6822 0.6403
C20 C 0.4686(6) 0.5930(6) 0.6834(4)
H14 H 0.4791 0.5730 0.7418
C21 C 0.3585(5) 0.5570(5) 0.6561(4)
H15 H 0.2947 0.5105 0.6964
C22 C 0.0902(3) 0.2952(3) 0.4386(2)
C23 C 0.1404(3) 0.1783(3) 0.4027(2)
C24 C 0.1846(4) 0.1848(4) 0.3139(2)
H16 H 0.1764 0.2609 0.2758
C25 C 0.2404(4) 0.0797(4) 0.2816(3)
H17 H 0.2713 0.0853 0.2221
C26 C 0.2502(4) -0.0327(4) 0.3369(3)
H18 H 0.2887 -0.1033 0.3149
C27 C 0.2039(4) -0.0426(4) 0.4249(3)
H19 H 0.2093 -0.1202 0.4620
C28 C 0.1492(4) 0.0631(4) 0.4581(2)
H20 H 0.1183 0.0568 0.5176
C29 C 0.3146(3) 0.7219(3) 0.2012(2)
H21 H 0.4018 0.7035 0.1884
C30 C 0.2402(3) 0.6500(3) 0.2711(2)
H22 H 0.2777 0.5825 0.3042
C31 C 0.0616(3) 0.7674(3) 0.2417(2)
C32 C 0.1377(3) 0.8392(3) 0.1681(2)
C33 C -0.0826(6) 0.7891(7) 0.2607(4)
H23 H -0.0991 0.8807 0.2512
H24 H -0.1133 0.7564 0.3220
C34 C -0.1590(6) 0.7255(7) 0.2051(4)
H25 H -0.1372 0.7648 0.1449
H26 H -0.2495 0.7358 0.2244
H27 H -0.1387 0.6357 0.2108
C35 C 0.0809(7) 0.9397(10) 0.1059(5)
H28 H 0.1411 0.9601 0.0526
H29 H 0.0628 1.0155 0.1320
H30 H 0.0026 0.9076 0.0933
N1 N 0.2641(3) 0.8188(3) 0.15046(17)
N2 N 0.1142(3) 0.6743(3) 0.29356(18)
O1 O 0.3232(2) 1.1117(2) 0.05585(15)
O2 O 0.4792(2) 1.2211(2) -0.04101(15)
O3 O 0.3335(2) 0.9126(2) -0.05200(14)
O4 O 0.4886(2) 1.0246(2) -0.14859(14)
O5 O 0.2018(2) 0.5968(2) 0.46575(16)
O6 O 0.1437(2) 0.4794(2) 0.59966(16)
O7 O 0.0999(2) 0.3995(2) 0.38564(15)
O8 O 0.0424(2) 0.2818(2) 0.51945(15)
Rh1 Rh 0.41634(2) 0.94114(2) 0.051355(15)
Rh2 Rh 0.03132(2) 0.56237(2) 0.428668(16)
O2A O 0.5208(2) 0.7789(2) 0.04101(15)
O4A O 0.5114(2) 0.9754(2) 0.14859(14)
O6A O -0.1437(2) 0.5206(2) 0.40034(16)
O8A O -0.0424(2) 0.7182(2) 0.48055(15)
Rh1A Rh 0.58366(2) 1.05886(2) -0.051355(15)
Rh2A Rh -0.03132(2) 0.43763(2) 0.571332(16)
C36? C 0.058(5) 0.939(7) 0.120(4)
H31? H 0.1131 0.9981 0.0769
H32? H 0.0069 0.9873 0.1612
C37? C -0.033(3) 0.861(3) 0.075(2)
H33? H 0.0114 0.8478 0.0185
H34? H -0.1103 0.9090 0.0677
H35? H -0.0549 0.7793 0.1108
C38? C -0.065(4) 0.807(4) 0.287(2)
H36? H -0.1263 0.7383 0.2956
H37? H -0.0962 0.8814 0.2526
H38? H -0.0554 0.8275 0.3433
loop_
_geom_bond_atom_site_label_1
_geom_bond_atom_site_label_2
_geom_bond_site_symmetry_1
_geom_bond_site_symmetry_2
C1 C2 1_555 1_555
C2 C3 1_555 1_555
C3 H1 1_555 1_555
C4 C3 1_555 1_555
H2 C4 1_555 1_555
C5 C4 1_555 1_555
H3 C5 1_555 1_555
C6 C5 1_555 1_555
H4 C6 1_555 1_555
C7 C2 1_555 1_555
H5 C7 1_555 1_555
C8 C9 1_555 1_555
C9 C10 1_555 1_555
C10 H6 1_555 1_555
C11 C10 1_555 1_555
H7 C11 1_555 1_555
C12 C11 1_555 1_555
H8 C12 1_555 1_555
C13 C12 1_555 1_555
H9 C13 1_555 1_555
C14 C9 1_555 1_555
H10 C14 1_555 1_555
C15 C16 1_555 1_555
C16 C17 1_555 1_555
C17 H11 1_555 1_555
C18 C17 1_555 1_555
H12 C18 1_555 1_555
C19 C18 1_555 1_555
H13 C19 1_555 1_555
C20 C19 1_555 1_555
H14 C20 1_555 1_555
C21 C16 1_555 1_555
H15 C21 1_555 1_555
C22 C23 1_555 1_555
C23 C24 1_555 1_555
C24 H16 1_555 1_555
C25 C24 1_555 1_555
H17 C25 1_555 1_555
C26 C25 1_555 1_555
H18 C26 1_555 1_555
C27 C26 1_555 1_555
H19 C27 1_555 1_555
C28 C23 1_555 1_555
H20 C28 1_555 1_555
C29 H21 1_555 1_555
C30 C29 1_555 1_555
H22 C30 1_555 1_555
C31 C32 1_555 1_555
C32 C35 1_555 1_555
C33 C31 1_555 1_555
H23 C33 1_555 1_555
H24 C33 1_555 1_555
C34 C33 1_555 1_555
H25 C34 1_555 1_555
H26 C34 1_555 1_555
H27 C34 1_555 1_555
C35 H28 1_555 1_555
H29 C35 1_555 1_555
H30 C35 1_555 1_555
N1 C29 1_555 1_555
N2 C30 1_555 1_555
O1 C1 1_555 1_555
O2 C1 1_555 1_555
O3 C8 1_555 1_555
O4 C8 1_555 1_555
O5 C15 1_555 1_555
O6 C15 1_555 1_555
O7 C22 1_555 1_555
O8 C22 1_555 1_555
Rh1 N1 1_555 1_555
Rh2 N2 1_555 1_555
O2A Rh1 1_555 1_555
O4A Rh1 1_555 1_555
O6A Rh2 1_555 1_555
O8A Rh2 1_555 1_555
Rh1A O2 1_555 1_555
Rh2A O6 1_555 1_555
C6 C7 1_555 1_555
C13 C14 1_555 1_555
C20 C21 1_555 1_555
C27 C28 1_555 1_555
C31 N2 1_555 1_555
C32 N1 1_555 1_555
O1 Rh1 1_555 1_555
O3 Rh1 1_555 1_555
O4 Rh1A 1_555 1_555
O5 Rh2 1_555 1_555
O7 Rh2 1_555 1_555
O8 Rh2A 1_555 1_555
Rh1 Rh1A 1_555 1_555
Rh2 Rh2A 1_555 1_555

#END
