
#######################################################################
#
#                 Cambridge Crystallographic Data Centre
#                                CCDC 
#
#######################################################################
#
# If this CIF has been generated from an entry in the Cambridge 
# Structural Database, then it will include bibliographic, chemical, 
# crystal, experimental, refinement or atomic coordinate data resulting 
# from the CCDC's data processing and validation procedures.
#
#######################################################################

data_YILDUT02
_chemical_formula_moiety         '(C35 H30 N2 O8 Rh2)n'
_chemical_name_systematic        
catena-(tetrakis(\m~2~-Benzoato)-(\m~2~-2-ethyl-3-methylpyrazine-N,N')-di-rhodium(ii))
_symmetry_cell_setting           triclinic
_symmetry_space_group_name_H-M   'P -1'
_symmetry_Int_Tables_number      2
_space_group_name_Hall           '-P 1'
loop_
_symmetry_equiv_pos_site_id
_symmetry_equiv_pos_as_xyz
1 x,y,z
2 -x,-y,-z
_cell_length_a                   10.5480(7)
_cell_length_b                   10.5517(8)
_cell_length_c                   15.6898(11)
_cell_angle_alpha                80.607(2)
_cell_angle_beta                 80.563(2)
_cell_angle_gamma                88.756(2)
_cell_volume                     1699.51
_exptl_crystal_colour            red
_exptl_crystal_description       plate
_cell_formula_units_Z            2
loop_
_atom_site_label
_atom_site_type_symbol
_atom_site_fract_x
_atom_site_fract_y
_atom_site_fract_z
_atom_site_U_iso_or_equiv
_atom_site_thermal_displace_type
C1 C 0.3734(3) 1.2137(3) 0.01055(19) 0.0384 Uani
C2 C 0.3019(3) 1.3356(3) 0.0182(2) 0.0469 Uani
C3 C 0.1841(4) 1.3347(4) 0.0720(3) 0.0715 Uani
H1 H 0.1482 1.2573 0.1024 0.0860 Uiso
C4 C 0.1195(5) 1.4483(5) 0.0807(4) 0.0932 Uani
H2 H 0.0394 1.4471 0.1160 0.1120 Uiso
C5 C 0.1727(5) 1.5625(5) 0.0376(4) 0.0929 Uani
H3 H 0.1296 1.6389 0.0446 0.1110 Uiso
C6 C 0.2885(5) 1.5648(4) -0.0155(4) 0.0929 Uani
H4 H 0.3244 1.6427 -0.0450 0.1110 Uiso
C7 C 0.3531(4) 1.4513(4) -0.0257(3) 0.0735 Uani
H5 H 0.4319 1.4534 -0.0626 0.0880 Uiso
C8 C 0.3867(3) 0.9572(3) -0.12869(19) 0.0382 Uani
C9 C 0.3228(3) 0.9266(3) -0.2010(2) 0.0441 Uani
C10 C 0.2105(4) 0.8549(4) -0.1817(2) 0.0542 Uani
H6 H 0.1744 0.8270 -0.1236 0.0650 Uiso
C11 C 0.1518(4) 0.8244(4) -0.2481(3) 0.0668 Uani
H7 H 0.0764 0.7760 -0.2348 0.0800 Uiso
C12 C 0.2048(4) 0.8656(5) -0.3337(3) 0.0712 Uani
H8 H 0.1648 0.8457 -0.3785 0.0850 Uiso
C13 C 0.3158(4) 0.9355(5) -0.3533(3) 0.0737 Uani
H9 H 0.3519 0.9622 -0.4115 0.0890 Uiso
C14 C 0.3749(4) 0.9670(4) -0.2872(2) 0.0604 Uani
H10 H 0.4501 1.0156 -0.3010 0.0730 Uiso
C15 C 0.2193(3) 0.5517(3) 0.5428(2) 0.0434 Uani
C16 C 0.3409(3) 0.5899(4) 0.5695(3) 0.0545 Uani
C17 C 0.4348(4) 0.6563(4) 0.5094(3) 0.0713 Uani
H11 H 0.4236 0.6789 0.4513 0.0860 Uiso
C18 C 0.5475(5) 0.6897(5) 0.5362(4) 0.0972 Uani
H12 H 0.6131 0.7336 0.4961 0.1160 Uiso
C19 C 0.5600(5) 0.6569(6) 0.6223(5) 0.1107 Uani
H13 H 0.6352 0.6798 0.6398 0.1330 Uiso
C20 C 0.4687(5) 0.5932(6) 0.6828(4) 0.1089 Uani
H14 H 0.4796 0.5730 0.7411 0.1300 Uiso
C21 C 0.3577(4) 0.5583(5) 0.6559(3) 0.0817 Uani
H15 H 0.2935 0.5130 0.6964 0.0980 Uiso
C22 C 0.0902(3) 0.2948(3) 0.43891(19) 0.0369 Uani
C23 C 0.1412(3) 0.1784(3) 0.4030(2) 0.0376 Uani
C24 C 0.1856(3) 0.1849(3) 0.3141(2) 0.0464 Uani
H16 H 0.1781 0.2610 0.2760 0.0560 Uiso
C25 C 0.2409(4) 0.0793(4) 0.2821(2) 0.0577 Uani
H17 H 0.2717 0.0843 0.2226 0.0690 Uiso
C26 C 0.2506(4) -0.0335(4) 0.3380(3) 0.0604 Uani
H18 H 0.2892 -0.1044 0.3164 0.0730 Uiso
C27 C 0.2040(4) -0.0424(4) 0.4253(3) 0.0610 Uani
H19 H 0.2092 -0.1198 0.4626 0.0730 Uiso
C28 C 0.1492(3) 0.0630(3) 0.4582(2) 0.0497 Uani
H20 H 0.1175 0.0566 0.5176 0.0600 Uiso
C29 C 0.3137(3) 0.7229(3) 0.20111(18) 0.0387 Uani
H21 H 0.4009 0.7050 0.1887 0.0460 Uiso
C30 C 0.2397(3) 0.6501(3) 0.2710(2) 0.0396 Uani
H22 H 0.2772 0.5825 0.3039 0.0480 Uiso
C31 C 0.0621(3) 0.7675(3) 0.2419(2) 0.0412 Uani
C32 C 0.1376(3) 0.8388(3) 0.16857(19) 0.0385 Uani
C33 C -0.0816(5) 0.7876(6) 0.2608(4) 0.0544 Uani
H23 H -0.0985 0.8791 0.2515 0.0650 Uiso
H24 H -0.1119 0.7548 0.3221 0.0650 Uiso
C34 C -0.1581(5) 0.7235(6) 0.2056(4) 0.0932 Uani
H25 H -0.1340 0.7603 0.1450 0.1400 Uiso
H26 H -0.2482 0.7367 0.2236 0.1400 Uiso
H27 H -0.1404 0.6331 0.2131 0.1400 Uiso
C35 C 0.0815(11) 0.9401(7) 0.1069(8) 0.0610 Uani
H28 H 0.1364 0.9528 0.0510 0.0910 Uiso
H29 H 0.0745 1.0192 0.1301 0.0910 Uiso
H30 H -0.0021 0.9133 0.1003 0.0910 Uiso
N1 N 0.2642(2) 0.8190(2) 0.15014(15) 0.0366 Uani
N2 N 0.1141(2) 0.6741(2) 0.29323(16) 0.0397 Uani
O1 O 0.3238(2) 1.1116(2) 0.05618(13) 0.0420 Uani
O2 O 0.4798(2) 1.22108(19) -0.04097(14) 0.0437 Uani
O3 O 0.3333(2) 0.9123(2) -0.05144(13) 0.0429 Uani
O4 O 0.4882(2) 1.0242(2) -0.14864(13) 0.0410 Uani
O5 O 0.2009(2) 0.5971(2) 0.46600(15) 0.0457 Uani
O6 O 0.1425(2) 0.4804(2) 0.59974(15) 0.0472 Uani
O7 O 0.1005(2) 0.3996(2) 0.38589(13) 0.0433 Uani
O8 O 0.0423(2) 0.2815(2) 0.51944(14) 0.0442 Uani
Rh1 Rh 0.41647(2) 0.94109(2) 0.051424(13) 0.0325 Uani
Rh2 Rh 0.03130(2) 0.56222(2) 0.428682(14) 0.0341 Uani
O2A O 0.5202(2) 0.77892(19) 0.04097(14) 0.0437 Uani
O4A O 0.5118(2) 0.9758(2) 0.14864(13) 0.0410 Uani
O6A O -0.1425(2) 0.5196(2) 0.40026(15) 0.0472 Uani
O8A O -0.0423(2) 0.7185(2) 0.48056(14) 0.0442 Uani
Rh1A Rh 0.58353(2) 1.05891(2) -0.051424(13) 0.0325 Uani
Rh2A Rh -0.03130(2) 0.43778(2) 0.571318(14) 0.0341 Uani
C36? C 0.068(7) 0.937(3) 0.113(5) 0.0480 Uani
H31? H 0.1281 0.9877 0.0678 0.0580 Uiso
H32? H 0.0184 0.9933 0.1484 0.0580 Uiso
C37? C -0.020(3) 0.862(3) 0.0722(18) 0.0661 Uani
H33? H -0.0359 0.7785 0.1065 0.0990 Uiso
H34? H 0.0194 0.8540 0.0138 0.0990 Uiso
H35? H -0.1002 0.9071 0.0704 0.0990 Uiso
C38? C -0.067(3) 0.812(3) 0.2901(19) 0.0396 Uani
H36? H -0.1362 0.7639 0.2778 0.0600 Uiso
H37? H -0.0785 0.9017 0.2706 0.0600 Uiso
H38? H -0.0660 0.7971 0.3521 0.0600 Uiso
loop_
_atom_site_aniso_label
_atom_site_aniso_U_11
_atom_site_aniso_U_22
_atom_site_aniso_U_33
_atom_site_aniso_U_23
_atom_site_aniso_U_13
_atom_site_aniso_U_12
C1 0.0457(16) 0.0348(15) 0.0313(14) -0.0031(11) 0.0009(12) 0.0024(12)
C2 0.0552(19) 0.0367(16) 0.0469(18) -0.0066(13) -0.0039(15) 0.0055(14)
C3 0.076(3) 0.053(2) 0.072(2) -0.0016(19) 0.017(2) 0.0171(19)
C4 0.093(3) 0.074(3) 0.102(3) -0.017(3) 0.014(3) 0.033(2)
C5 0.101(3) 0.056(3) 0.123(4) -0.026(3) -0.014(3) 0.030(2)
C6 0.095(3) 0.043(2) 0.135(4) -0.005(2) -0.012(3) 0.006(2)
C7 0.066(2) 0.044(2) 0.103(3) -0.002(2) -0.002(2) 0.0045(18)
C8 0.0434 0.0359 0.0318 -0.0034 0.0019 0.0046
C9 0.0484 0.0454 0.0363 -0.0051 -0.003 0.0064
C10 0.057 0.055 0.0479 -0.0023 -0.0061 -0.0031
C11 0.065 0.071 0.065 -0.005 -0.017 -0.009
C12 0.077 0.088 0.056 -0.018 -0.026 0
C13 0.079 0.103 0.0386 -0.011 -0.0081 -0.005
C14 0.061 0.08 0.0373 -0.0049 -0.0026 -0.0076
C15 0.0362(16) 0.0379(16) 0.0529(18) -0.0078(14) 0.0031(14) -0.0008(13)
C16 0.0419(18) 0.0500(19) 0.072(2) -0.0150(17) -0.0054(17) -0.0021(15)
C17 0.047(2) 0.068(3) 0.096(3) -0.018(2) 0.003(2) -0.0127(18)
C18 0.059(3) 0.096(3) 0.132(4) -0.020(3) 0.003(3) -0.025(2)
C19 0.072(3) 0.126(4) 0.141(4) -0.027(4) -0.029(3) -0.027(3)
C20 0.084(3) 0.131(4) 0.120(4) -0.018(3) -0.041(3) -0.017(3)
C21 0.064(3) 0.096(3) 0.089(3) -0.012(3) -0.025(2) -0.012(2)
C22 0.0334 0.0361 0.0376 -0.0045 0.0034 -0.0037
C23 0.0373 0.036 0.0373 -0.008 0.0033 -0.005
C24 0.0543 0.0464 0.0372 -0.0086 -0.0018 -0.0018
C25 0.074 0.061 0.0391 -0.0215 0.0015 -0.0006
C26 0.076 0.051 0.058 -0.0262 -0.0055 0.009
C27 0.085 0.0402 0.055 -0.0095 -0.002 0.0057
C28 0.063 0.0391 0.0421 -0.0063 0.0058 -0.0001
C29 0.0368(15) 0.0393(16) 0.0318(14) 0.0028(12) 0.0096(12) 0.0023(12)
C30 0.0417(16) 0.0317(15) 0.0371(15) 0.0035(12) 0.0086(13) 0.0038(12)
C31 0.0410(16) 0.0353(15) 0.0402(16) -0.0007(12) 0.0095(13) -0.0019(12)
C32 0.0421(16) 0.0355(15) 0.0331(14) -0.0002(12) 0.0029(12) -0.0021(12)
C33 0.045(3) 0.059(3) 0.049(3) 0.007(2) 0.006(2) 0.003(2)
C34 0.067(3) 0.108(5) 0.098(4) 0.009(3) -0.017(3) -0.019(3)
C35 0.051(4) 0.064(3) 0.056(3) 0.018(2) -0.001(3) 0.002(2)
N1 0.0425(14) 0.0348(13) 0.0261(11) 0.0014(9) 0.0069(10) -0.0009(10)
N2 0.0405(14) 0.0319(13) 0.0382(13) 0.0015(10) 0.0120(11) -0.0024(10)
O1 0.0469(12) 0.0345(11) 0.0368(11) -0.0002(9) 0.0106(9) 0.0017(9)
O2 0.0522(13) 0.0291(11) 0.0402(11) 0.0029(9) 0.0119(10) 0.0004(9)
O3 0.0479 0.0464 0.0303 -0.0006 0.0015 -0.0098
O4 0.0456 0.0471 0.0262 0 0.0012 -0.0046
O5 0.0371(12) 0.0490(13) 0.0438(12) 0.0015(10) 0.0069(10) -0.0128(10)
O6 0.0395(12) 0.0519(14) 0.0453(13) 0.0028(10) -0.0015(10) -0.0092(10)
O7 0.0506 0.0347 0.0363 -0.001 0.0122 0.002
O8 0.0538 0.0327 0.0366 -0.0008 0.0154 -0.0007
Rh1 0.03923(13) 0.02926(12) 0.02266(11) 0.00212(8) 0.00749(9) -0.00157(9)
Rh2 0.03499(13) 0.03045(12) 0.02969(12) 0.00059(9) 0.01060(9) -0.00389(9)
O2A 0.0522 0.0291 0.0402 0.0029 0.0119 0.0004
O4A 0.0456(12) 0.0471(13) 0.0262(10) 0.0000(9) 0.0012(9) -0.0046(10)
O6A 0.0395 0.0519 0.0453 0.0028 -0.0015 -0.0092
O8A 0.0538(13) 0.0327(11) 0.0366(11) -0.0008(9) 0.0154(10) -0.0007(9)
Rh1A 0.03923 0.02926 0.02266 0.00212 0.00749 -0.00157
Rh2A 0.03499 0.03045 0.02969 0.00059 0.0106 -0.00389
C36? 0.047(7) 0.047(7) 0.045(7) 0.003(6) -0.003(6) -0.003(6)
C37? 0.069(9) 0.068(9) 0.060(9) 0.000(7) -0.018(7) 0.008(7)
C38? 0.037(8) 0.041(8) 0.038(8) -0.008(7) 0.003(7) 0.005(7)
loop_
_geom_bond_atom_site_label_1
_geom_bond_atom_site_label_2
_geom_bond_site_symmetry_1
_geom_bond_site_symmetry_2
C1 C2 1_555 1_555
C2 C3 1_555 1_555
C3 H1 1_555 1_555
C4 C3 1_555 1_555
H2 C4 1_555 1_555
C5 C4 1_555 1_555
H3 C5 1_555 1_555
C6 C5 1_555 1_555
H4 C6 1_555 1_555
C7 C2 1_555 1_555
H5 C7 1_555 1_555
C8 C9 1_555 1_555
C9 C10 1_555 1_555
C10 H6 1_555 1_555
C11 C10 1_555 1_555
H7 C11 1_555 1_555
C12 C11 1_555 1_555
H8 C12 1_555 1_555
C13 C12 1_555 1_555
H9 C13 1_555 1_555
C14 C9 1_555 1_555
H10 C14 1_555 1_555
C15 C16 1_555 1_555
C16 C17 1_555 1_555
C17 H11 1_555 1_555
C18 C17 1_555 1_555
H12 C18 1_555 1_555
C19 C18 1_555 1_555
H13 C19 1_555 1_555
C20 C19 1_555 1_555
H14 C20 1_555 1_555
C21 C16 1_555 1_555
H15 C21 1_555 1_555
C22 C23 1_555 1_555
C23 C24 1_555 1_555
C24 H16 1_555 1_555
C25 C24 1_555 1_555
H17 C25 1_555 1_555
C26 C25 1_555 1_555
H18 C26 1_555 1_555
C27 C26 1_555 1_555
H19 C27 1_555 1_555
C28 C23 1_555 1_555
H20 C28 1_555 1_555
C29 H21 1_555 1_555
C30 C29 1_555 1_555
H22 C30 1_555 1_555
C31 C32 1_555 1_555
C32 C35 1_555 1_555
C33 C31 1_555 1_555
H23 C33 1_555 1_555
H24 C33 1_555 1_555
C34 C33 1_555 1_555
H25 C34 1_555 1_555
H26 C34 1_555 1_555
H27 C34 1_555 1_555
C35 H28 1_555 1_555
H29 C35 1_555 1_555
H30 C35 1_555 1_555
N1 C29 1_555 1_555
N2 C30 1_555 1_555
O1 C1 1_555 1_555
O2 C1 1_555 1_555
O3 C8 1_555 1_555
O4 C8 1_555 1_555
O5 C15 1_555 1_555
O6 C15 1_555 1_555
O7 C22 1_555 1_555
O8 C22 1_555 1_555
Rh1 N1 1_555 1_555
Rh2 N2 1_555 1_555
O2A Rh1 1_555 1_555
O4A Rh1 1_555 1_555
O6A Rh2 1_555 1_555
O8A Rh2 1_555 1_555
Rh1A O2 1_555 1_555
Rh2A O6 1_555 1_555
C6 C7 1_555 1_555
C13 C14 1_555 1_555
C20 C21 1_555 1_555
C27 C28 1_555 1_555
C31 N2 1_555 1_555
C32 N1 1_555 1_555
O1 Rh1 1_555 1_555
O3 Rh1 1_555 1_555
O4 Rh1A 1_555 1_555
O5 Rh2 1_555 1_555
O7 Rh2 1_555 1_555
O8 Rh2A 1_555 1_555
Rh1 Rh1A 1_555 1_555
Rh2 Rh2A 1_555 1_555

#END
