
#######################################################################
#
#                 Cambridge Crystallographic Data Centre
#                                CCDC 
#
#######################################################################
#
# If this CIF has been generated from an entry in the Cambridge 
# Structural Database, then it will include bibliographic, chemical, 
# crystal, experimental, refinement or atomic coordinate data resulting 
# from the CCDC's data processing and validation procedures.
#
#######################################################################

data_YILDUT01
_chemical_formula_moiety         '(C35 H30 N2 O8 Rh2)n'
_chemical_name_systematic        
catena-(tetrakis(\m~2~-Benzoato)-(\m~2~-2-ethyl-3-methylpyrazine-N,N')-di-rhodium(ii))
_symmetry_cell_setting           triclinic
_symmetry_space_group_name_H-M   'P -1'
_symmetry_Int_Tables_number      2
_space_group_name_Hall           '-P 1'
loop_
_symmetry_equiv_pos_site_id
_symmetry_equiv_pos_as_xyz
1 x,y,z
2 -x,-y,-z
_cell_length_a                   10.3271(10)
_cell_length_b                   10.4903(10)
_cell_length_c                   15.6507(15)
_cell_angle_alpha                80.105(2)
_cell_angle_beta                 80.621(2)
_cell_angle_gamma                86.903(2)
_cell_volume                     1647.37
_exptl_crystal_colour            red
_exptl_crystal_description       plate
_cell_formula_units_Z            2
loop_
_atom_site_label
_atom_site_type_symbol
_atom_site_fract_x
_atom_site_fract_y
_atom_site_fract_z
_atom_site_U_iso_or_equiv
_atom_site_thermal_displace_type
C1 C 0.36501(19) 1.21596(18) 0.01257(11) 0.0170 Uani
C2 C 0.2899(2) 1.33903(19) 0.02338(12) 0.0190 Uani
C3 C 0.1667(2) 1.3365(2) 0.07596(14) 0.0272 Uani
H1 H 0.1293 1.2560 0.1033 0.0330 Uiso
C4 C 0.0991(2) 1.4511(2) 0.08835(16) 0.0343 Uani
H2 H 0.0149 1.4492 0.1237 0.0410 Uiso
C5 C 0.1540(2) 1.5686(2) 0.04927(17) 0.0331 Uani
H3 H 0.1077 1.6471 0.0582 0.0400 Uiso
C6 C 0.2761(2) 1.5720(2) -0.00269(17) 0.0320 Uani
H4 H 0.3139 1.6528 -0.0289 0.0380 Uiso
C7 C 0.3433(2) 1.4575(2) -0.01641(15) 0.0268 Uani
H5 H 0.4262 1.4599 -0.0532 0.0320 Uiso
C8 C 0.38622(19) 0.95837(18) -0.12992(12) 0.0171 Uani
C9 C 0.32423(19) 0.92531(19) -0.20239(12) 0.0183 Uani
C10 C 0.2124(2) 0.8506(2) -0.18318(13) 0.0218 Uani
H6 H 0.1758 0.8213 -0.1237 0.0260 Uiso
C11 C 0.1541(2) 0.8188(2) -0.25010(14) 0.0255 Uani
H7 H 0.0777 0.7681 -0.2365 0.0310 Uiso
C12 C 0.2077(2) 0.8611(2) -0.33719(13) 0.0260 Uani
H8 H 0.1677 0.8394 -0.3832 0.0310 Uiso
C13 C 0.3191(2) 0.9346(2) -0.35689(13) 0.0277 Uani
H9 H 0.3556 0.9633 -0.4164 0.0330 Uiso
C14 C 0.3779(2) 0.9669(2) -0.28988(13) 0.0229 Uani
H10 H 0.4545 1.0173 -0.3037 0.0270 Uiso
C15 C 0.2230(2) 0.54714(19) 0.54421(14) 0.0226 Uani
C16 C 0.3439(2) 0.5855(2) 0.57346(15) 0.0264 Uani
C17 C 0.4401(2) 0.6537(2) 0.51342(17) 0.0321 Uani
H11 H 0.4308 0.6744 0.4532 0.0390 Uiso
C18 C 0.5502(3) 0.6916(3) 0.5423(2) 0.0419 Uani
H12 H 0.6169 0.7378 0.5016 0.0500 Uiso
C19 C 0.5627(3) 0.6622(3) 0.6296(2) 0.0480 Uani
H13 H 0.6382 0.6886 0.6489 0.0580 Uiso
C20 C 0.4670(3) 0.5949(3) 0.6897(2) 0.0450 Uani
H14 H 0.4762 0.5756 0.7500 0.0540 Uiso
C21 C 0.3580(2) 0.5556(2) 0.66188(17) 0.0349 Uani
H15 H 0.2924 0.5083 0.7029 0.0420 Uiso
C22 C 0.08995(19) 0.29113(19) 0.43883(12) 0.0190 Uani
C23 C 0.14031(19) 0.17212(19) 0.40283(12) 0.0182 Uani
C24 C 0.1826(2) 0.1792(2) 0.31268(12) 0.0215 Uani
H16 H 0.1730 0.2582 0.2739 0.0260 Uiso
C25 C 0.2385(2) 0.0712(2) 0.28003(13) 0.0248 Uani
H17 H 0.2680 0.0760 0.2188 0.0300 Uiso
C26 C 0.2513(2) -0.0440(2) 0.33663(14) 0.0253 Uani
H18 H 0.2915 -0.1176 0.3142 0.0300 Uiso
C27 C 0.2060(2) -0.0528(2) 0.42583(14) 0.0250 Uani
H19 H 0.2127 -0.1329 0.4640 0.0300 Uiso
C28 C 0.1508(2) 0.05544(19) 0.45933(13) 0.0219 Uani
H20 H 0.1204 0.0499 0.5205 0.0260 Uiso
C29 C 0.31815(19) 0.71657(19) 0.19972(12) 0.0185 Uani
H21 H 0.4089 0.6952 0.1861 0.0220 Uiso
C30 C 0.2432(2) 0.64445(19) 0.27056(12) 0.0198 Uani
H22 H 0.2828 0.5729 0.3037 0.0240 Uiso
C31 C 0.0600(2) 0.76973(19) 0.24269(13) 0.0208 Uani
C32 C 0.13610(19) 0.84075(19) 0.16828(12) 0.0182 Uani
C33 C -0.0864(3) 0.7973(3) 0.2631(2) 0.0235 Uani
H23 H -0.1033 0.8920 0.2509 0.0280 Uiso
H24 H -0.1165 0.7674 0.3264 0.0280 Uiso
C34 C -0.1658(3) 0.7311(3) 0.20953(19) 0.0354 Uani
H25 H -0.1431 0.7671 0.1471 0.0530 Uiso
H26 H -0.2598 0.7460 0.2287 0.0530 Uiso
H27 H -0.1455 0.6379 0.2185 0.0530 Uiso
C35 C 0.0764(5) 0.9485(5) 0.1104(4) 0.0242 Uani
H28 H 0.0624 1.0249 0.1393 0.0360 Uiso
H29 H -0.0079 0.9216 0.0993 0.0360 Uiso
H30 H 0.1357 0.9695 0.0545 0.0360 Uiso
N1 N 0.26542(16) 0.81685(16) 0.14927(10) 0.0171 Uani
N2 N 0.11465(17) 0.67329(16) 0.29391(11) 0.0206 Uani
O1 O 0.31655(14) 1.11205(13) 0.05685(8) 0.0185 Uani
O2 O 0.47333(14) 1.22422(13) -0.03978(9) 0.0197 Uani
O3 O 0.33255(13) 0.91266(13) -0.05222(8) 0.0184 Uani
O4 O 0.48764(13) 1.02683(13) -0.14943(8) 0.0185 Uani
O5 O 0.20552(14) 0.59197(14) 0.46631(9) 0.0229 Uani
O6 O 0.14545(14) 0.47435(14) 0.60097(9) 0.0235 Uani
O7 O 0.10114(14) 0.39724(13) 0.38534(9) 0.0218 Uani
O8 O 0.04222(15) 0.27810(14) 0.52005(9) 0.0230 Uani
Rh1 Rh 0.416550(14) 0.939842(13) 0.051339(8) 0.0141 Uani
Rh2 Rh 0.031933(15) 0.562575(14) 0.428364(9) 0.0178 Uani
O2A O 0.52667(14) 0.77578(13) 0.03978(9) 0.0197 Uani
O4A O 0.51236(13) 0.97317(13) 0.14943(8) 0.0185 Uani
O6A O -0.14545(14) 0.52565(14) 0.39903(9) 0.0235 Uani
O8A O -0.04222(15) 0.72190(14) 0.47995(9) 0.0230 Uani
Rh1A Rh 0.583450(14) 1.060158(13) -0.051339(8) 0.0141 Uani
Rh2A Rh -0.031933(15) 0.437425(14) 0.571636(9) 0.0178 Uani
C36? C 0.063(4) 0.932(4) 0.102(3) 0.0180 Uani
H31? H 0.0282 1.0089 0.1273 0.0220 Uiso
H32? H 0.1260 0.9614 0.0478 0.0220 Uiso
C37? C -0.0393(18) 0.8707(17) 0.0793(11) 0.0326 Uani
H33? H -0.0090 0.8358 0.0251 0.0490 Uiso
H34? H -0.1119 0.9332 0.0704 0.0490 Uiso
H35? H -0.0695 0.7998 0.1268 0.0490 Uiso
C38? C -0.0714(19) 0.8087(19) 0.2913(13) 0.0220 Uani
H36? H -0.1362 0.7436 0.2915 0.0330 Uiso
H37? H -0.1005 0.8929 0.2619 0.0330 Uiso
H38? H -0.0624 0.8146 0.3518 0.0330 Uiso
loop_
_atom_site_aniso_label
_atom_site_aniso_U_11
_atom_site_aniso_U_22
_atom_site_aniso_U_33
_atom_site_aniso_U_23
_atom_site_aniso_U_13
_atom_site_aniso_U_12
C1 0.0209(9) 0.0172(9) 0.0119(8) -0.0022(7) 0.0001(7) -0.0001(7)
C2 0.0229(10) 0.0171(9) 0.0168(8) -0.0041(7) -0.0020(7) 0.0019(7)
C3 0.0274(11) 0.0238(10) 0.0272(10) -0.0053(8) 0.0056(8) 0.0020(8)
C4 0.0321(12) 0.0323(12) 0.0355(12) -0.0086(10) 0.0042(10) 0.0075(10)
C5 0.0354(12) 0.0237(11) 0.0429(13) -0.0136(10) -0.0086(10) 0.0090(9)
C6 0.0338(12) 0.0175(10) 0.0447(13) -0.0037(9) -0.0081(10) 0.0000(9)
C7 0.0254(10) 0.0207(10) 0.0327(11) -0.0028(8) -0.0016(9) -0.0002(8)
C8 0.0196 0.0151 0.0144 -0.002 0.0016 0.0038
C9 0.0201 0.0194 0.014 -0.0027 0.0003 0.0032
C10 0.0241 0.0215 0.0179 -0.0015 0.0001 0.001
C11 0.0257 0.0259 0.0246 -0.0038 -0.0029 -0.0022
C12 0.0284 0.0309 0.0202 -0.0067 -0.0064 0.0014
C13 0.0292 0.0369 0.0155 -0.0032 -0.0012 0.0006
C14 0.0223 0.0283 0.0162 -0.0022 0.001 -0.0008
C15 0.0221(10) 0.0171(9) 0.0267(10) -0.0080(8) 0.0053(8) 0.0016(8)
C16 0.0232(10) 0.0213(10) 0.0346(11) -0.0095(8) 0.0009(8) 0.0003(8)
C17 0.0265(11) 0.0272(11) 0.0417(13) -0.0123(10) 0.0053(10) -0.0036(9)
C18 0.0268(12) 0.0371(14) 0.0621(17) -0.0166(12) 0.0027(11) -0.0065(10)
C19 0.0295(13) 0.0462(16) 0.0738(19) -0.0209(14) -0.0124(13) -0.0017(11)
C20 0.0374(14) 0.0492(16) 0.0519(15) -0.0094(13) -0.0171(12) 0.0006(12)
C21 0.0311(12) 0.0336(13) 0.0398(13) -0.0053(10) -0.0057(10) -0.0010(10)
C22 0.0186 0.0167 0.0193 -0.003 0.0049 -0.0027
C23 0.0173 0.0186 0.0179 -0.0049 0.0023 -0.0017
C24 0.0247 0.0211 0.018 -0.0045 0.0004 -0.0026
C25 0.0287 0.0281 0.0179 -0.0093 0.002 -0.0017
C26 0.0292 0.0229 0.0246 -0.0107 0.0001 0.001
C27 0.0338 0.0174 0.0224 -0.0032 -0.0001 -0.0003
C28 0.0279 0.0196 0.0168 -0.0041 0.0025 -0.0021
C29 0.0191(9) 0.0181(9) 0.0158(8) -0.0021(7) 0.0032(7) 0.0005(7)
C30 0.0220(10) 0.0165(9) 0.0185(9) -0.0031(7) 0.0042(7) -0.0004(7)
C31 0.0206(10) 0.0171(9) 0.0216(9) -0.0032(7) 0.0060(7) -0.0016(7)
C32 0.0204(9) 0.0165(9) 0.0169(8) -0.0038(7) 0.0011(7) -0.0018(7)
C33 0.0203(13) 0.0222(13) 0.0232(14) 0.0008(11) 0.0051(11) 0.0008(10)
C34 0.0274(14) 0.0375(16) 0.0394(15) -0.0005(12) -0.0037(11) -0.0072(12)
C35 0.0223(18) 0.025(2) 0.0245(19) -0.0021(13) -0.0033(13) -0.0002(14)
N1 0.0196(8) 0.0177(8) 0.0127(7) -0.0023(6) 0.0020(6) -0.0021(6)
N2 0.0211(8) 0.0163(8) 0.0207(8) -0.0024(6) 0.0076(6) -0.0020(6)
O1 0.0216(7) 0.0155(6) 0.0152(6) -0.0013(5) 0.0050(5) 0.0006(5)
O2 0.0224(7) 0.0159(6) 0.0172(6) -0.0010(5) 0.0051(5) 0.0000(5)
O3 0.0214 0.0202 0.0116 -0.0009 0.0029 -0.0038
O4 0.0204 0.0209 0.0119 -0.0005 0.0024 -0.003
O5 0.0236(7) 0.0205(7) 0.0210(7) -0.0030(6) 0.0084(6) -0.0056(6)
O6 0.0233(7) 0.0222(7) 0.0219(7) -0.0007(6) 0.0035(6) -0.0034(6)
O7 0.0276 0.0168 0.017 -0.0022 0.0076 -0.0006
O8 0.0296 0.0162 0.0184 -0.0022 0.01 -0.0009
Rh1 0.01692(8) 0.01356(8) 0.00925(7) -0.00014(5) 0.00357(5) -0.00088(5)
Rh2 0.02008(8) 0.01360(8) 0.01562(8) -0.00135(5) 0.00829(6) -0.00211(6)
O2A 0.0224 0.0159 0.0172 -0.001 0.0051 0
O4A 0.0204(7) 0.0209(7) 0.0119(6) -0.0005(5) 0.0024(5) -0.0030(5)
O6A 0.0233 0.0222 0.0219 -0.0007 0.0035 -0.0034
O8A 0.0296(8) 0.0162(7) 0.0184(6) -0.0022(5) 0.0100(6) -0.0009(6)
Rh1A 0.01692 0.01356 0.00925 -0.00014 0.00357 -0.00088
Rh2A 0.02008 0.0136 0.01562 -0.00135 0.00829 -0.00211
C36? 0.018(4) 0.018(4) 0.018(4) -0.0029(11) -0.0030(11) -0.0005(10)
C37? 0.039(7) 0.029(6) 0.029(6) -0.004(5) -0.005(5) 0.003(5)
C38? 0.022(4) 0.022(4) 0.022(4) -0.0035(11) -0.0032(11) -0.0005(10)
loop_
_geom_bond_atom_site_label_1
_geom_bond_atom_site_label_2
_geom_bond_site_symmetry_1
_geom_bond_site_symmetry_2
C1 C2 1_555 1_555
C2 C3 1_555 1_555
C3 H1 1_555 1_555
C4 C3 1_555 1_555
H2 C4 1_555 1_555
C5 C4 1_555 1_555
H3 C5 1_555 1_555
C6 C5 1_555 1_555
H4 C6 1_555 1_555
C7 C2 1_555 1_555
H5 C7 1_555 1_555
C8 C9 1_555 1_555
C9 C10 1_555 1_555
C10 H6 1_555 1_555
C11 C10 1_555 1_555
H7 C11 1_555 1_555
C12 C11 1_555 1_555
H8 C12 1_555 1_555
C13 C12 1_555 1_555
H9 C13 1_555 1_555
C14 C9 1_555 1_555
H10 C14 1_555 1_555
C15 C16 1_555 1_555
C16 C17 1_555 1_555
C17 H11 1_555 1_555
C18 C17 1_555 1_555
H12 C18 1_555 1_555
C19 C18 1_555 1_555
H13 C19 1_555 1_555
C20 C19 1_555 1_555
H14 C20 1_555 1_555
C21 C16 1_555 1_555
H15 C21 1_555 1_555
C22 C23 1_555 1_555
C23 C24 1_555 1_555
C24 H16 1_555 1_555
C25 C24 1_555 1_555
H17 C25 1_555 1_555
C26 C25 1_555 1_555
H18 C26 1_555 1_555
C27 C26 1_555 1_555
H19 C27 1_555 1_555
C28 C23 1_555 1_555
H20 C28 1_555 1_555
C29 H21 1_555 1_555
C30 C29 1_555 1_555
H22 C30 1_555 1_555
C31 C32 1_555 1_555
C32 C35 1_555 1_555
C33 C31 1_555 1_555
H23 C33 1_555 1_555
H24 C33 1_555 1_555
C34 C33 1_555 1_555
H25 C34 1_555 1_555
H26 C34 1_555 1_555
H27 C34 1_555 1_555
C35 H28 1_555 1_555
H29 C35 1_555 1_555
H30 C35 1_555 1_555
N1 C29 1_555 1_555
N2 C30 1_555 1_555
O1 C1 1_555 1_555
O2 C1 1_555 1_555
O3 C8 1_555 1_555
O4 C8 1_555 1_555
O5 C15 1_555 1_555
O6 C15 1_555 1_555
O7 C22 1_555 1_555
O8 C22 1_555 1_555
Rh1 N1 1_555 1_555
Rh2 N2 1_555 1_555
O2A Rh1 1_555 1_555
O4A Rh1 1_555 1_555
O6A Rh2 1_555 1_555
O8A Rh2 1_555 1_555
Rh1A O2 1_555 1_555
Rh2A O6 1_555 1_555
C6 C7 1_555 1_555
C13 C14 1_555 1_555
C20 C21 1_555 1_555
C27 C28 1_555 1_555
C31 N2 1_555 1_555
C32 N1 1_555 1_555
O1 Rh1 1_555 1_555
O3 Rh1 1_555 1_555
O4 Rh1A 1_555 1_555
O5 Rh2 1_555 1_555
O7 Rh2 1_555 1_555
O8 Rh2A 1_555 1_555
Rh1 Rh1A 1_555 1_555
Rh2 Rh2A 1_555 1_555

#END
