
#######################################################################
#
#                 Cambridge Crystallographic Data Centre
#                                CCDC 
#
#######################################################################
#
# If this CIF has been generated from an entry in the Cambridge 
# Structural Database, then it will include bibliographic, chemical, 
# crystal, experimental, refinement or atomic coordinate data resulting 
# from the CCDC's data processing and validation procedures.
#
#######################################################################

data_YILFAB
_chemical_formula_moiety         '(C35 H30 N2 O8 Rh2)n,0.111n(C1 O2)'
_chemical_name_systematic        
"catena-(tetrakis(\m~2~-Benzoato)-(\m~2~-2-ethyl-3-methylpyrazine-N,N')-di-rhodium(ii)) carbon dioxide"
_symmetry_cell_setting           triclinic
_symmetry_space_group_name_H-M   'P -1'
_symmetry_Int_Tables_number      2
_space_group_name_Hall           '-P 1'
loop_
_symmetry_equiv_pos_site_id
_symmetry_equiv_pos_as_xyz
1 x,y,z
2 -x,-y,-z
_cell_length_a                   10.3535(8)
_cell_length_b                   10.4929(8)
_cell_length_c                   15.6133(12)
_cell_angle_alpha                80.184(2)
_cell_angle_beta                 80.752(2)
_cell_angle_gamma                87.0850(10)
_cell_volume                     1649.17
_exptl_crystal_colour            red
_exptl_crystal_description       plate
_cell_formula_units_Z            2
loop_
_atom_site_label
_atom_site_type_symbol
_atom_site_fract_x
_atom_site_fract_y
_atom_site_fract_z
_atom_site_U_iso_or_equiv
_atom_site_thermal_displace_type
C1 C 0.3664(2) 1.2159(2) 0.01222(15) 0.0171 Uani
C2 C 0.2912(3) 1.3392(2) 0.02298(16) 0.0196 Uani
C3 C 0.1690(3) 1.3365(3) 0.07561(18) 0.0273 Uani
H1 H 0.1322 1.2560 0.1035 0.0330 Uiso
C4 C 0.1010(3) 1.4513(3) 0.0874(2) 0.0359 Uani
H2 H 0.0170 1.4493 0.1225 0.0430 Uiso
C5 C 0.1556(3) 1.5685(3) 0.0479(2) 0.0349 Uani
H3 H 0.1093 1.6469 0.0565 0.0420 Uiso
C6 C 0.2769(3) 1.5721(3) -0.0039(2) 0.0348 Uani
H4 H 0.3143 1.6528 -0.0306 0.0420 Uiso
C7 C 0.3443(3) 1.4573(3) -0.0172(2) 0.0278 Uani
H5 H 0.4270 1.4598 -0.0539 0.0330 Uiso
C8 C 0.3857(2) 0.9577(2) -0.12947(15) 0.0173 Uani
C9 C 0.3232(2) 0.9246(2) -0.20226(16) 0.0186 Uani
C10 C 0.2109(3) 0.8511(3) -0.18239(17) 0.0220 Uani
H6 H 0.1744 0.8227 -0.1228 0.0260 Uiso
C11 C 0.1525(3) 0.8193(3) -0.24934(18) 0.0262 Uani
H7 H 0.0756 0.7695 -0.2356 0.0310 Uiso
C12 C 0.2057(3) 0.8601(3) -0.33632(18) 0.0273 Uani
H8 H 0.1653 0.8384 -0.3822 0.0330 Uiso
C13 C 0.3183(3) 0.9327(3) -0.35647(18) 0.0288 Uani
H9 H 0.3551 0.9606 -0.4161 0.0350 Uiso
C14 C 0.3769(3) 0.9646(3) -0.28964(16) 0.0232 Uani
H10 H 0.4541 1.0139 -0.3035 0.0280 Uiso
C15 C 0.2223(3) 0.5469(2) 0.54517(17) 0.0226 Uani
C16 C 0.3433(3) 0.5857(3) 0.5740(2) 0.0271 Uani
C17 C 0.4399(3) 0.6528(3) 0.5136(2) 0.0335 Uani
H11 H 0.4307 0.6732 0.4532 0.0400 Uiso
C18 C 0.5500(3) 0.6897(3) 0.5428(3) 0.0431 Uani
H12 H 0.6169 0.7354 0.5021 0.0520 Uiso
C19 C 0.5624(3) 0.6601(4) 0.6306(3) 0.0481 Uani
H13 H 0.6383 0.6854 0.6498 0.0580 Uiso
C20 C 0.4664(4) 0.5945(4) 0.6907(3) 0.0482 Uani
H14 H 0.4753 0.5756 0.7512 0.0580 Uiso
C21 C 0.3566(3) 0.5564(3) 0.6623(2) 0.0373 Uani
H15 H 0.2904 0.5101 0.7033 0.0450 Uiso
C22 C 0.0904(2) 0.2912(2) 0.43901(16) 0.0181 Uani
C23 C 0.1408(2) 0.1725(2) 0.40300(16) 0.0177 Uani
C24 C 0.1836(2) 0.1795(2) 0.31320(16) 0.0212 Uani
H16 H 0.1743 0.2584 0.2743 0.0250 Uiso
C25 C 0.2400(3) 0.0712(3) 0.28041(17) 0.0250 Uani
H17 H 0.2698 0.0762 0.2191 0.0300 Uiso
C26 C 0.2529(3) -0.0435(3) 0.33683(18) 0.0258 Uani
H18 H 0.2934 -0.1169 0.3144 0.0310 Uiso
C27 C 0.2071(3) -0.0525(3) 0.42595(18) 0.0260 Uani
H19 H 0.2138 -0.1325 0.4642 0.0310 Uiso
C28 C 0.1511(3) 0.0558(2) 0.45942(16) 0.0213 Uani
H20 H 0.1201 0.0501 0.5206 0.0260 Uiso
C29 C 0.3177(2) 0.7169(2) 0.19997(15) 0.0185 Uani
H21 H 0.4082 0.6958 0.1865 0.0220 Uiso
C30 C 0.2430(2) 0.6446(2) 0.27057(16) 0.0208 Uani
H22 H 0.2823 0.5727 0.3035 0.0250 Uiso
C31 C 0.0607(3) 0.7696(2) 0.24281(17) 0.0218 Uani
C32 C 0.1370(2) 0.8411(2) 0.16877(16) 0.0185 Uani
C33 C -0.0850(3) 0.7972(4) 0.2632(3) 0.0252 Uani
H23 H -0.1016 0.8919 0.2511 0.0300 Uiso
H24 H -0.1151 0.7673 0.3266 0.0300 Uiso
C34 C -0.1647(4) 0.7309(4) 0.2092(3) 0.0376 Uani
H25 H -0.1420 0.7669 0.1467 0.0560 Uiso
H26 H -0.2584 0.7458 0.2283 0.0560 Uiso
H27 H -0.1447 0.6378 0.2181 0.0560 Uiso
C35 C 0.0777(7) 0.9465(5) 0.1086(6) 0.0263 Uani
H28 H 0.0640 1.0246 0.1358 0.0390 Uiso
H29 H -0.0065 0.9186 0.0981 0.0390 Uiso
H30 H 0.1367 0.9652 0.0526 0.0390 Uiso
N1 N 0.2657(2) 0.8171(2) 0.14937(13) 0.0181 Uani
N2 N 0.1149(2) 0.6735(2) 0.29419(14) 0.0206 Uani
O1 O 0.31728(17) 1.11256(16) 0.05711(11) 0.0186 Uani
O2 O 0.47376(17) 1.22398(16) -0.03996(11) 0.0196 Uani
O3 O 0.33256(17) 0.91195(17) -0.05174(11) 0.0187 Uani
O4 O 0.48684(17) 1.02627(17) -0.14950(11) 0.0186 Uani
O5 O 0.20509(18) 0.59261(17) 0.46661(12) 0.0235 Uani
O6 O 0.14452(18) 0.47493(18) 0.60122(12) 0.0241 Uani
O7 O 0.10155(18) 0.39726(17) 0.38530(11) 0.0218 Uani
O8 O 0.04201(18) 0.27850(17) 0.51958(11) 0.0220 Uani
Rh1 Rh 0.416806(18) 0.939984(17) 0.051499(11) 0.0141 Uani
Rh2 Rh 0.032143(19) 0.562453(18) 0.428420(12) 0.0177 Uani
O2A O 0.52624(17) 0.77602(16) 0.03996(11) 0.0196 Uani
O4A O 0.51316(17) 0.97373(17) 0.14950(11) 0.0186 Uani
O6A O -0.14452(18) 0.52507(18) 0.39878(12) 0.0241 Uani
O8A O -0.04201(18) 0.72150(17) 0.48042(11) 0.0220 Uani
Rh1A Rh 0.583194(18) 1.060016(17) -0.051499(11) 0.0141 Uani
Rh2A Rh -0.032143(19) 0.437547(18) 0.571580(12) 0.0177 Uani
O9 O -0.436(2) 0.743(3) 0.3164(16) 0.0740 Uani
O10 O -0.300(2) 0.720(3) 0.1861(16) 0.0730 Uani
C36 C -0.371(2) 0.731(5) 0.2502(17) 0.0740 Uani
C37? C 0.064(5) 0.947(3) 0.116(4) 0.0216 Uani
H31? H 0.1248 0.9964 0.0677 0.0260 Uiso
H32? H 0.0181 1.0068 0.1537 0.0260 Uiso
C38? C -0.034(2) 0.874(2) 0.0788(14) 0.0268 Uani
H33? H 0.0096 0.8432 0.0254 0.0400 Uiso
H34? H -0.1072 0.9327 0.0646 0.0400 Uiso
H35? H -0.0672 0.8002 0.1228 0.0400 Uiso
C39? C -0.0669(19) 0.812(2) 0.2935(16) 0.0219 Uani
H36? H -0.1312 0.7443 0.3017 0.0330 Uiso
H37? H -0.1000 0.8919 0.2606 0.0330 Uiso
H38? H -0.0519 0.8285 0.3511 0.0330 Uiso
loop_
_atom_site_aniso_label
_atom_site_aniso_U_11
_atom_site_aniso_U_22
_atom_site_aniso_U_33
_atom_site_aniso_U_23
_atom_site_aniso_U_13
_atom_site_aniso_U_12
C1 0.0208(11) 0.0156(11) 0.0138(10) -0.0003(8) -0.0014(9) 0.0001(9)
C2 0.0224(12) 0.0176(11) 0.0184(11) -0.0032(9) -0.0026(9) 0.0022(9)
C3 0.0271(14) 0.0232(13) 0.0282(13) -0.0025(10) 0.0025(11) 0.0031(11)
C4 0.0339(15) 0.0322(15) 0.0389(15) -0.0097(13) 0.0029(13) 0.0098(12)
C5 0.0371(16) 0.0248(14) 0.0447(16) -0.0105(12) -0.0105(13) 0.0109(12)
C6 0.0362(16) 0.0191(13) 0.0486(17) -0.0023(12) -0.0091(13) 0.0001(11)
C7 0.0255(13) 0.0200(13) 0.0361(14) -0.0018(11) -0.0030(11) 0.0012(10)
C8 0.0202 0.0159 0.0141 -0.0021 0.0005 0.0031
C9 0.0196 0.0189 0.0157 -0.0021 -0.0007 0.0044
C10 0.0231 0.0226 0.0182 0.0001 -0.0008 0
C11 0.026 0.0269 0.0253 -0.0021 -0.0036 -0.0047
C12 0.0289 0.0339 0.0206 -0.0063 -0.0071 0.0019
C13 0.0302 0.0384 0.0164 -0.0019 -0.0026 -0.0001
C14 0.0205 0.0296 0.0173 -0.0006 0.0008 -0.0021
C15 0.0211(12) 0.0183(11) 0.0258(12) -0.0048(10) 0.0046(10) 0.0016(9)
C16 0.0246(13) 0.0189(12) 0.0373(14) -0.0079(11) 0.0001(11) 0.0004(10)
C17 0.0258(14) 0.0290(14) 0.0450(16) -0.0120(12) 0.0043(12) -0.0047(11)
C18 0.0264(15) 0.0393(17) 0.064(2) -0.0152(15) 0.0012(14) -0.0067(13)
C19 0.0333(17) 0.0448(18) 0.071(2) -0.0144(17) -0.0160(16) -0.0037(14)
C20 0.0425(18) 0.0468(19) 0.058(2) -0.0058(16) -0.0185(16) -0.0021(15)
C21 0.0349(16) 0.0316(15) 0.0455(17) -0.0039(13) -0.0085(13) -0.0028(13)
C22 0.0187 0.016 0.0172 -0.0008 0.0034 -0.0027
C23 0.0163 0.0163 0.019 -0.0024 0.0014 -0.0023
C24 0.0229 0.0205 0.0189 -0.0012 -0.001 -0.0024
C25 0.0302 0.0265 0.0181 -0.0073 0.0012 -0.0018
C26 0.0317 0.0203 0.0258 -0.0103 0.0004 0.0016
C27 0.0361 0.0171 0.0232 -0.0019 -0.0014 0.0003
C28 0.0281 0.0166 0.0167 -0.0011 0.0019 -0.0003
C29 0.0187(11) 0.0181(11) 0.0156(10) 0.0002(9) 0.0033(9) 0.0012(9)
C30 0.0213(12) 0.0169(11) 0.0201(11) -0.0001(9) 0.0051(9) 0.0010(9)
C31 0.0222(12) 0.0174(11) 0.0225(12) -0.0015(9) 0.0046(10) -0.0015(9)
C32 0.0205(12) 0.0163(11) 0.0172(11) -0.0024(9) 0.0022(9) -0.0028(9)
C33 0.0201(16) 0.0248(16) 0.0254(18) 0.0024(14) 0.0040(13) 0.0030(12)
C34 0.0292(18) 0.040(2) 0.041(2) 0.0019(15) -0.0055(15) -0.0056(15)
C35 0.021(2) 0.0276(17) 0.026(2) 0.0037(14) 0.000(2) 0.0019(14)
N1 0.0213(10) 0.0160(10) 0.0145(9) -0.0012(7) 0.0034(8) -0.0019(8)
N2 0.0213(11) 0.0161(10) 0.0199(10) -0.0002(8) 0.0072(8) -0.0002(8)
O1 0.0202(9) 0.0152(8) 0.0161(8) 0.0010(6) 0.0051(7) 0.0020(7)
O2 0.0221(9) 0.0149(8) 0.0182(8) -0.0010(6) 0.0052(7) 0.0002(7)
O3 0.0213 0.02 0.0127 0.0002 0.002 -0.0042
O4 0.0201 0.0214 0.0122 0.0004 0.0012 -0.0026
O5 0.0213(9) 0.0202(9) 0.0247(9) -0.0011(7) 0.0080(7) -0.0051(7)
O6 0.0238(10) 0.0219(9) 0.0235(9) 0.0005(7) 0.0024(7) -0.0039(7)
O7 0.0272 0.0165 0.0174 -0.0012 0.0073 0
O8 0.0269 0.016 0.0184 -0.001 0.0084 -0.0005
Rh1 0.01715(10) 0.01304(9) 0.00936(9) 0.00148(6) 0.00305(6) -0.00100(7)
Rh2 0.01989(11) 0.01305(10) 0.01569(9) 0.00040(7) 0.00778(7) -0.00165(7)
O2A 0.0221 0.0149 0.0182 -0.001 0.0052 0.0002
O4A 0.0201(9) 0.0214(9) 0.0122(8) 0.0004(6) 0.0012(6) -0.0026(7)
O6A 0.0238 0.0219 0.0235 0.0005 0.0024 -0.0039
O8A 0.0269(10) 0.0160(8) 0.0184(8) -0.0010(7) 0.0084(7) -0.0005(7)
Rh1A 0.01715 0.01304 0.00936 0.00148 0.00305 -0.001
Rh2A 0.01989 0.01305 0.01569 0.0004 0.00778 -0.00165
O9 0.074(5) 0.074(5) 0.074(5) -0.0121(12) -0.0114(12) -0.0017(9)
O10 0.073(5) 0.073(5) 0.073(5) -0.0119(12) -0.0113(12) -0.0016(9)
C36 0.074(5) 0.074(5) 0.074(5) -0.0121(12) -0.0114(11) -0.0017(9)
C37? 0.021(5) 0.021(5) 0.021(5) -0.001(4) 0.000(4) -0.002(4)
C38? 0.025(6) 0.030(6) 0.025(6) -0.001(5) -0.007(5) 0.002(5)
C39? 0.019(6) 0.022(6) 0.022(6) 0.001(5) 0.000(5) 0.000(5)
loop_
_geom_bond_atom_site_label_1
_geom_bond_atom_site_label_2
_geom_bond_site_symmetry_1
_geom_bond_site_symmetry_2
C1 C2 1_555 1_555
C2 C3 1_555 1_555
C3 H1 1_555 1_555
C4 C3 1_555 1_555
H2 C4 1_555 1_555
C5 C4 1_555 1_555
H3 C5 1_555 1_555
C6 C5 1_555 1_555
H4 C6 1_555 1_555
C7 C2 1_555 1_555
H5 C7 1_555 1_555
C8 C9 1_555 1_555
C9 C10 1_555 1_555
C10 H6 1_555 1_555
C11 C10 1_555 1_555
H7 C11 1_555 1_555
C12 C11 1_555 1_555
H8 C12 1_555 1_555
C13 C12 1_555 1_555
H9 C13 1_555 1_555
C14 C9 1_555 1_555
H10 C14 1_555 1_555
C15 C16 1_555 1_555
C16 C17 1_555 1_555
C17 H11 1_555 1_555
C18 C17 1_555 1_555
H12 C18 1_555 1_555
C19 C18 1_555 1_555
H13 C19 1_555 1_555
C20 C19 1_555 1_555
H14 C20 1_555 1_555
C21 C16 1_555 1_555
H15 C21 1_555 1_555
C22 C23 1_555 1_555
C23 C24 1_555 1_555
C24 H16 1_555 1_555
C25 C24 1_555 1_555
H17 C25 1_555 1_555
C26 C25 1_555 1_555
H18 C26 1_555 1_555
C27 C26 1_555 1_555
H19 C27 1_555 1_555
C28 C23 1_555 1_555
H20 C28 1_555 1_555
C29 H21 1_555 1_555
C30 C29 1_555 1_555
H22 C30 1_555 1_555
C31 C32 1_555 1_555
C32 C35 1_555 1_555
C33 C31 1_555 1_555
H23 C33 1_555 1_555
H24 C33 1_555 1_555
C34 C33 1_555 1_555
H25 C34 1_555 1_555
H26 C34 1_555 1_555
H27 C34 1_555 1_555
C35 H28 1_555 1_555
H29 C35 1_555 1_555
H30 C35 1_555 1_555
N1 C29 1_555 1_555
N2 C30 1_555 1_555
O1 C1 1_555 1_555
O2 C1 1_555 1_555
O3 C8 1_555 1_555
O4 C8 1_555 1_555
O5 C15 1_555 1_555
O6 C15 1_555 1_555
O7 C22 1_555 1_555
O8 C22 1_555 1_555
Rh1 N1 1_555 1_555
Rh2 N2 1_555 1_555
O9 C36 1_555 1_555
O10 C36 1_555 1_555
O2A Rh1 1_555 1_555
O4A Rh1 1_555 1_555
O6A Rh2 1_555 1_555
O8A Rh2 1_555 1_555
Rh1A O2 1_555 1_555
Rh2A O6 1_555 1_555
C6 C7 1_555 1_555
C13 C14 1_555 1_555
C20 C21 1_555 1_555
C27 C28 1_555 1_555
C31 N2 1_555 1_555
C32 N1 1_555 1_555
O1 Rh1 1_555 1_555
O3 Rh1 1_555 1_555
O4 Rh1A 1_555 1_555
O5 Rh2 1_555 1_555
O7 Rh2 1_555 1_555
O8 Rh2A 1_555 1_555
Rh1 Rh1A 1_555 1_555
Rh2 Rh2A 1_555 1_555

#END
