
#######################################################################
#
#                 Cambridge Crystallographic Data Centre
#                                CCDC 
#
#######################################################################
#
# If this CIF has been generated from an entry in the Cambridge 
# Structural Database, then it will include bibliographic, chemical, 
# crystal, experimental, refinement or atomic coordinate data resulting 
# from the CCDC's data processing and validation procedures.
#
#######################################################################

data_HIFTOG04
_chemical_formula_moiety         '(C24 H12 O13 Zn4)n'
_chemical_name_systematic        
'catena-[(\m-oxo)-tris(\m-benzene-1,4-dicarboxylato)-tetra-zinc unknown solvate]'
_symmetry_cell_setting           cubic
_symmetry_space_group_name_H-M   'P m -3 m'
_symmetry_Int_Tables_number      221
_space_group_name_Hall           '-P 4 2 3'
loop_
_symmetry_equiv_pos_site_id
_symmetry_equiv_pos_as_xyz
1 x,y,z
2 -y,x,z
3 -x,-y,z
4 y,-x,z
5 x,-z,y
6 x,-y,-z
7 x,z,-y
8 z,y,-x
9 -x,y,-z
10 -z,y,x
11 z,x,y
12 y,z,x
13 -y,-z,x
14 z,-x,-y
15 -y,z,-x
16 -z,-x,y
17 -z,x,-y
18 y,-z,-x
19 y,x,-z
20 -y,-x,-z
21 -x,z,y
22 -x,-z,-y
23 z,-y,x
24 -z,-y,-x
25 -x,-y,-z
26 y,-x,-z
27 x,y,-z
28 -y,x,-z
29 -x,z,-y
30 -x,y,z
31 -x,-z,y
32 -z,-y,x
33 x,-y,z
34 z,-y,-x
35 -z,-x,-y
36 -y,-z,-x
37 y,z,-x
38 -z,x,y
39 y,-z,x
40 z,x,-y
41 z,-x,y
42 -y,z,x
43 -y,-x,z
44 y,x,z
45 x,-z,-y
46 x,z,y
47 -z,y,-x
48 z,y,x
_cell_length_a                   12.7953(10)
_cell_length_b                   12.7953(10)
_cell_length_c                   12.7953(10)
_cell_angle_alpha                90
_cell_angle_beta                 90
_cell_angle_gamma                90
_cell_volume                     2094.84
_exptl_crystal_colour            colorless
_exptl_crystal_description       block
_cell_formula_units_Z            1
_chemical_properties_physical    Moisture-sensitive
loop_
_atom_site_label
_atom_site_type_symbol
_atom_site_fract_x
_atom_site_fract_y
_atom_site_fract_z
Zn1 Zn 0.4134(2) 0.4134(2) 0.4134(2)
O1 O 0.5000 0.5000 0.5000
C1 C 0.5000 0.1066(14) 0.5000
C2 C 0.5000 0.2271(17) 0.5000
O2 O 0.4373(11) 0.2701(13) 0.4373(11)
C3 C 0.4166(16) 0.053(2) 0.5000
C1B C 0.5000 -0.1066(14) 0.5000
C2B C 0.5000 -0.2271(17) 0.5000
O2E O 0.4373(11) -0.2701(13) 0.5627(11)
C3E C 0.4166(16) -0.053(2) 0.5000
O2G O 0.4373(11) 0.2701(13) 0.5627(11)
C3G C 0.5000 0.053(2) 0.5834(16)
O2H O 0.5627(11) 0.2701(13) 0.5627(11)
C3H C 0.5834(16) 0.053(2) 0.5000
O2I O 0.5627(11) 0.2701(13) 0.4373(11)
C3I C 0.5000 0.053(2) 0.4166(16)
O2V O 0.4373(11) -0.2701(13) 0.4373(11)
C3V C 0.5000 -0.053(2) 0.4166(16)
O2W O 0.5627(11) -0.2701(13) 0.5627(11)
C3W C 0.5000 -0.053(2) 0.5834(16)
C3B C 0.5834(16) -0.053(2) 0.5000
O2B O 0.5627(11) -0.2701(13) 0.4373(11)
Zn1A Zn -0.4134(2) 0.4134(2) 0.4134(2)
C1A C -0.1066(14) 0.5000 0.5000
C2A C -0.2271(17) 0.5000 0.5000
O2A O -0.2701(13) 0.4373(11) 0.4373(11)
C3A C -0.053(2) 0.4166(16) 0.5000
C1C C 0.1066(14) 0.5000 0.5000
C2C C 0.2271(17) 0.5000 0.5000
O2R O 0.2701(13) 0.4373(11) 0.5627(11)
C3R C 0.053(2) 0.4166(16) 0.5000
O2N O -0.2701(13) 0.4373(11) 0.5627(11)
C3N C -0.053(2) 0.5000 0.5834(16)
O2S O -0.2701(13) 0.5627(11) 0.5627(11)
C3S C -0.053(2) 0.5834(16) 0.5000
O2L O -0.2701(13) 0.5627(11) 0.4373(11)
C3L C -0.053(2) 0.5000 0.4166(16)
O2K O 0.2701(13) 0.4373(11) 0.4373(11)
C3K C 0.053(2) 0.5000 0.4166(16)
O2Q O 0.2701(13) 0.5627(11) 0.5627(11)
C3Q C 0.053(2) 0.5000 0.5834(16)
C3C C 0.053(2) 0.5834(16) 0.5000
O2C O 0.2701(13) 0.5627(11) 0.4373(11)
Zn1B Zn 0.5866(2) -0.4134(2) 0.4134(2)
Zn1C Zn 0.4134(2) -0.4134(2) 0.4134(2)
C1C_2 C 0.1066(14) -0.5000 0.5000
C2C_2 C 0.2271(17) -0.5000 0.5000
O2C_2 O 0.2701(13) -0.4373(11) 0.4373(11)
C3C_2 C 0.053(2) -0.4166(16) 0.5000
C1A_2 C -0.1066(14) -0.5000 0.5000
C2A_2 C -0.2271(17) -0.5000 0.5000
O2S_2 O -0.2701(13) -0.4373(11) 0.5627(11)
C3S_2 C -0.053(2) -0.4166(16) 0.5000
O2Q_2 O 0.2701(13) -0.4373(11) 0.5627(11)
C3Q_2 C 0.053(2) -0.5000 0.5834(16)
O2R_2 O 0.2701(13) -0.5627(11) 0.5627(11)
C3R_2 C 0.053(2) -0.5834(16) 0.5000
O2K_2 O 0.2701(13) -0.5627(11) 0.4373(11)
C3K_2 C 0.053(2) -0.5000 0.4166(16)
O2L_2 O -0.2701(13) -0.4373(11) 0.4373(11)
C3L_2 C -0.053(2) -0.5000 0.4166(16)
O2N_2 O -0.2701(13) -0.5627(11) 0.5627(11)
C3N_2 C -0.053(2) -0.5000 0.5834(16)
C3A_2 C -0.053(2) -0.5834(16) 0.5000
O2A_2 O -0.2701(13) -0.5627(11) 0.4373(11)
Zn1E Zn 0.4134(2) -0.4134(2) 0.5866(2)
Zn1F Zn 0.4134(2) -0.5866(2) 0.5866(2)
Zn1S Zn 0.5866(2) -0.4134(2) 0.5866(2)
Zn1H Zn -0.4134(2) 0.4134(2) 0.5866(2)
Zn1_2 Zn -0.5866(2) 0.4134(2) 0.4134(2)
Zn1_3 Zn 0.4134(2) -0.5866(2) 0.4134(2)
Zn1A_2 Zn -0.4134(2) -0.5866(2) 0.4134(2)
Zn1A_3 Zn 0.5866(2) -0.5866(2) 0.4134(2)
Zn1A_4 Zn 0.5866(2) 0.4134(2) 0.4134(2)
Zn1B_2 Zn -0.4134(2) -0.4134(2) 0.4134(2)
Zn1B_3 Zn -0.4134(2) 0.5866(2) 0.4134(2)
Zn1B_4 Zn 0.5866(2) 0.5866(2) 0.4134(2)
Zn1C_2 Zn 0.4134(2) 0.5866(2) 0.4134(2)
Zn1E_2 Zn 0.4134(2) 0.5866(2) 0.5866(2)
Zn1F_2 Zn -0.5866(2) 0.4134(2) 0.5866(2)
Zn1F_3 Zn 0.4134(2) 0.4134(2) 0.5866(2)
Zn1H_2 Zn -0.4134(2) -0.5866(2) 0.5866(2)
Zn1H_3 Zn 0.5866(2) -0.5866(2) 0.5866(2)
Zn1H_4 Zn 0.5866(2) 0.4134(2) 0.5866(2)
Zn1S_2 Zn -0.4134(2) -0.4134(2) 0.5866(2)
Zn1S_3 Zn -0.4134(2) 0.5866(2) 0.5866(2)
Zn1S_4 Zn 0.5866(2) 0.5866(2) 0.5866(2)
O1_2 O -0.5000 0.5000 0.5000
O1_3 O 0.5000 -0.5000 0.5000
O2D O 0.4373(11) -0.4373(11) 0.2701(13)
O2F O 0.4373(11) -0.5627(11) 0.7299(13)
O2G_2 O 0.4373(11) -0.7299(13) 0.5627(11)
O2H_2 O -0.4373(11) 0.2701(13) 0.5627(11)
O2I_2 O -0.4373(11) 0.2701(13) 0.4373(11)
O2J O 0.4373(11) 0.4373(11) 0.2701(13)
O2L_3 O 0.7299(13) -0.4373(11) 0.4373(11)
O2M O 0.4373(11) -0.4373(11) 0.7299(13)
O2O O 0.5627(11) -0.4373(11) 0.2701(13)
O2P O -0.4373(11) 0.4373(11) 0.7299(13)
O2S_3 O 0.7299(13) -0.4373(11) 0.5627(11)
O2T O -0.4373(11) 0.4373(11) 0.2701(13)
O2U O 0.5627(11) -0.4373(11) 0.7299(13)
loop_
_geom_bond_atom_site_label_1
_geom_bond_atom_site_label_2
_geom_bond_site_symmetry_1
_geom_bond_site_symmetry_2
Zn1 O1 1_555 1_555
O1 Zn1A_4 1_555 1_555
C1 C2 1_555 1_555
C2 O2 1_555 1_555
O2 Zn1 1_555 1_555
C3 C1 1_555 1_555
C1B C2B 1_555 1_555
C2B O2E 1_555 1_555
O2E O2V 1_555 1_555
C3E C3 1_555 1_555
O2G C2 1_555 1_555
C3G C1 1_555 1_555
O2H C2 1_555 1_555
C3H C1 1_555 1_555
O2I C2 1_555 1_555
C3I C1 1_555 1_555
O2V C2B 1_555 1_555
C3V C1B 1_555 1_555
O2W C2B 1_555 1_555
C3W C1B 1_555 1_555
C3B C1B 1_555 1_555
O2B C2B 1_555 1_555
Zn1A O2A 1_555 1_555
C1A C2A 1_555 1_555
C2A O2A 1_555 1_555
O2A O2N 1_555 1_555
C3A C1A 1_555 1_555
C1C C2C 1_555 1_555
C2C O2R 1_555 1_555
O2R O2K 1_555 1_555
C3R C3A 1_555 1_555
O2N C2A 1_555 1_555
C3N C1A 1_555 1_555
O2S C2A 1_555 1_555
C3S C1A 1_555 1_555
O2L C2A 1_555 1_555
C3L C1A 1_555 1_555
O2K Zn1 1_555 1_555
C3K C1C 1_555 1_555
O2Q C2C 1_555 1_555
C3Q C1C 1_555 1_555
C3C C1C 1_555 1_555
O2C C2C 1_555 1_555
Zn1B O2B 1_555 1_555
Zn1C O2V 1_555 1_555
C1C_2 C2C_2 1_555 1_555
C2C_2 O2C_2 1_555 1_555
O2C_2 Zn1C 1_555 1_555
C3C_2 C1C_2 1_555 1_555
C1A_2 C2A_2 1_555 1_555
C2A_2 O2S_2 1_555 1_555
O2S_2 O2L_2 1_555 1_555
C3S_2 C3C_2 1_555 1_555
O2Q_2 C2C_2 1_555 1_555
C3Q_2 C1C_2 1_555 1_555
O2R_2 C2C_2 1_555 1_555
C3R_2 C1C_2 1_555 1_555
O2K_2 C2C_2 1_555 1_555
C3K_2 C1C_2 1_555 1_555
O2L_2 C2A_2 1_555 1_555
C3L_2 C1A_2 1_555 1_555
O2N_2 C2A_2 1_555 1_555
C3N_2 C1A_2 1_555 1_555
C3A_2 C1A_2 1_555 1_555
O2A_2 C2A_2 1_555 1_555
Zn1E O2E 1_555 1_555
Zn1F O2R_2 1_555 1_555
Zn1S O2W 1_555 1_555
Zn1H Zn1A 1_555 1_555
Zn1_2 Zn1A 1_555 1_555
Zn1_3 Zn1C 1_555 1_555
Zn1A_2 O2A_2 1_555 1_555
Zn1A_3 Zn1B 1_555 1_555
Zn1A_4 Zn1 1_555 1_555
Zn1B_2 O2L_2 1_555 1_555
Zn1B_3 Zn1A 1_555 1_555
Zn1B_4 O1 1_555 1_555
Zn1C_2 Zn1 1_555 1_555
Zn1E_2 O1 1_555 1_555
Zn1F_2 Zn1H 1_555 1_555
Zn1F_3 Zn1 1_555 1_555
Zn1H_2 O2N_2 1_555 1_555
Zn1H_3 Zn1F 1_555 1_555
Zn1H_4 O1 1_555 1_555
Zn1S_2 O2S_2 1_555 1_555
Zn1S_3 O2S 1_555 1_555
Zn1S_4 O1 1_555 1_555
O1_2 Zn1A 1_555 1_555
O1_3 Zn1B 1_555 1_555
O2D Zn1C 1_555 1_555
O2F Zn1F 1_555 1_555
O2G_2 Zn1F 1_555 1_555
O2H_2 Zn1H 1_555 1_555
O2I_2 Zn1A 1_555 1_555
O2J Zn1 1_555 1_555
O2L_3 Zn1B 1_555 1_555
O2M Zn1E 1_555 1_555
O2O Zn1B 1_555 1_555
O2P Zn1H 1_555 1_555
O2S_3 Zn1S 1_555 1_555
O2T Zn1A 1_555 1_555
O2U Zn1S 1_555 1_555
O1 Zn1C_2 1_555 1_555
O1 Zn1F_3 1_555 1_555
O2 O2G 1_555 1_555
O2 O2I 1_555 1_555
C3 C3G 1_555 1_555
C3 C3I 1_555 1_555
C1B C3E 1_555 1_555
O2E O2W 1_555 1_555
C3E C3V 1_555 1_555
C3E C3W 1_555 1_555
O2G O2H 1_555 1_555
O2G Zn1F_3 1_555 1_555
C3G C3H 1_555 1_555
C3G C3W 1_555 1_555
O2H O2I 1_555 1_555
O2H Zn1H_4 1_555 1_555
C3H C3I 1_555 1_555
C3H C3B 1_555 1_555
O2I Zn1A_4 1_555 1_555
C3I C3V 1_555 1_555
O2V O2B 1_555 1_555
C3V C3B 1_555 1_555
O2W O2B 1_555 1_555
C3W C3B 1_555 1_555
O2A O2L 1_555 1_555
C3A C3N 1_555 1_555
C3A C3L 1_555 1_555
C1C C3R 1_555 1_555
C2C O2K 1_555 1_555
O2R O2Q 1_555 1_555
O2R Zn1F_3 1_555 1_555
C3R C3K 1_555 1_555
C3R C3Q 1_555 1_555
O2N O2S 1_555 1_555
O2N Zn1H 1_555 1_555
C3N C3S 1_555 1_555
C3N C3Q 1_555 1_555
O2S O2L 1_555 1_555
C3S C3L 1_555 1_555
C3S C3C 1_555 1_555
O2L Zn1B_3 1_555 1_555
C3L C3K 1_555 1_555
O2K O2C 1_555 1_555
C3K C3C 1_555 1_555
O2Q O2C 1_555 1_555
O2Q Zn1E_2 1_555 1_555
C3Q C3C 1_555 1_555
O2C Zn1C_2 1_555 1_555
Zn1B Zn1C 1_555 1_555
Zn1B Zn1S 1_555 1_555
Zn1C Zn1E 1_555 1_555
Zn1C O1_3 1_555 1_555
O2C_2 O2Q_2 1_555 1_555
O2C_2 O2K_2 1_555 1_555
C3C_2 C3Q_2 1_555 1_555
C3C_2 C3K_2 1_555 1_555
C1A_2 C3S_2 1_555 1_555
O2S_2 O2N_2 1_555 1_555
C3S_2 C3L_2 1_555 1_555
C3S_2 C3N_2 1_555 1_555
O2Q_2 O2R_2 1_555 1_555
O2Q_2 Zn1E 1_555 1_555
C3Q_2 C3R_2 1_555 1_555
C3Q_2 C3N_2 1_555 1_555
O2R_2 O2K_2 1_555 1_555
C3R_2 C3K_2 1_555 1_555
C3R_2 C3A_2 1_555 1_555
O2K_2 Zn1_3 1_555 1_555
C3K_2 C3L_2 1_555 1_555
O2L_2 O2A_2 1_555 1_555
C3L_2 C3A_2 1_555 1_555
O2N_2 O2A_2 1_555 1_555
C3N_2 C3A_2 1_555 1_555
Zn1E Zn1F 1_555 1_555
Zn1E Zn1S 1_555 1_555
Zn1E O1_3 1_555 1_555
Zn1F Zn1_3 1_555 1_555
Zn1F O1_3 1_555 1_555
Zn1S Zn1H_3 1_555 1_555
Zn1S O1_3 1_555 1_555
Zn1H Zn1S_3 1_555 1_555
Zn1H O1_2 1_555 1_555
Zn1_2 Zn1F_2 1_555 1_555
Zn1_2 O1_2 1_555 1_555
Zn1_3 Zn1A_3 1_555 1_555
Zn1_3 O1_3 1_555 1_555
Zn1A_2 Zn1B_2 1_555 1_555
Zn1A_2 Zn1H_2 1_555 1_555
Zn1A_3 Zn1H_3 1_555 1_555
Zn1A_3 O1_3 1_555 1_555
Zn1A_4 Zn1B_4 1_555 1_555
Zn1A_4 Zn1H_4 1_555 1_555
Zn1B_2 Zn1S_2 1_555 1_555
Zn1B_3 Zn1S_3 1_555 1_555
Zn1B_3 O1_2 1_555 1_555
Zn1B_4 Zn1C_2 1_555 1_555
Zn1B_4 Zn1S_4 1_555 1_555
Zn1C_2 Zn1E_2 1_555 1_555
Zn1E_2 Zn1F_3 1_555 1_555
Zn1E_2 Zn1S_4 1_555 1_555
Zn1F_2 O1_2 1_555 1_555
Zn1F_3 Zn1H_4 1_555 1_555
Zn1H_2 Zn1S_2 1_555 1_555
Zn1H_3 O1_3 1_555 1_555
Zn1H_4 Zn1S_4 1_555 1_555
Zn1S_3 O1_2 1_555 1_555
O2D O2O 1_555 1_555
O2F O2M 1_555 1_555
O2H_2 O2I_2 1_555 1_555
O2L_3 O2S_3 1_555 1_555
O2M O2U 1_555 1_555

#END
