
#######################################################################
#
#                 Cambridge Crystallographic Data Centre
#                                CCDC 
#
#######################################################################
#
# If this CIF has been generated from an entry in the Cambridge 
# Structural Database, then it will include bibliographic, chemical, 
# crystal, experimental, refinement or atomic coordinate data resulting 
# from the CCDC's data processing and validation procedures.
#
#######################################################################

data_YUGLES
_chemical_formula_moiety         
'(C18 H10 Cu2 O10)n,n(C2 H6 O1 S1),n(C3 H7 N1 O1),8n(H2 O1)'
_chemical_name_systematic        
"catena-((\m~8~-5,5'-(ethyne-1,2-diyl)-bis(benzene-1,3-dicarboxylato))-diaqua-di-copper N,N-dimethylformamide dimethylsulfoxide solvate octahydrate)"
_symmetry_cell_setting           rhombohedral
_symmetry_space_group_name_H-M   'R -3 m'
_symmetry_Int_Tables_number      166
_space_group_name_Hall           '-R 3 2"'
loop_
_symmetry_equiv_pos_site_id
_symmetry_equiv_pos_as_xyz
1 x,y,z
2 -y,x-y,z
3 -x+y,-x,z
4 y,x,-z
5 x-y,-y,-z
6 -x,-x+y,-z
7 2/3+x,1/3+y,1/3+z
8 2/3-y,1/3+x-y,1/3+z
9 2/3-x+y,1/3-x,1/3+z
10 2/3+y,1/3+x,1/3-z
11 2/3+x-y,1/3-y,1/3-z
12 2/3-x,1/3-x+y,1/3-z
13 1/3+x,2/3+y,2/3+z
14 1/3-y,2/3+x-y,2/3+z
15 1/3-x+y,2/3-x,2/3+z
16 1/3+y,2/3+x,2/3-z
17 1/3+x-y,2/3-y,2/3-z
18 1/3-x,2/3-x+y,2/3-z
19 -x,-y,-z
20 y,-x+y,-z
21 x-y,x,-z
22 -y,-x,z
23 -x+y,y,z
24 x,x-y,z
25 1/3-x,2/3-y,2/3-z
26 1/3+y,2/3-x+y,2/3-z
27 1/3+x-y,2/3+x,2/3-z
28 1/3-y,2/3-x,2/3+z
29 1/3-x+y,2/3+y,2/3+z
30 1/3+x,2/3+x-y,2/3+z
31 2/3-x,1/3-y,1/3-z
32 2/3+y,1/3-x+y,1/3-z
33 2/3+x-y,1/3+x,1/3-z
34 2/3-y,1/3-x,1/3+z
35 2/3-x+y,1/3+y,1/3+z
36 2/3+x,1/3+x-y,1/3+z
_cell_length_a                   18.6844(11)
_cell_length_b                   18.6844(11)
_cell_length_c                   32.862(4)
_cell_angle_alpha                90
_cell_angle_beta                 90
_cell_angle_gamma                120
_cell_volume                     9935.34
_exptl_crystal_colour            green
_exptl_crystal_description       block
_cell_formula_units_Z            9
loop_
_atom_site_label
_atom_site_type_symbol
_atom_site_fract_x
_atom_site_fract_y
_atom_site_fract_z
_atom_site_U_iso_or_equiv
_atom_site_thermal_displace_type
Cu1 Cu -0.19005(2) 0.61990(5) 0.19983(2) 0.0324 Uani
C1 C -0.0969(3) 0.5163(3) 0.11534(14) 0.0432 Uani
C2 C -0.0642(3) 0.5316(3) 0.07697(13) 0.0543 Uani
H1 H -0.0528 0.5803 0.0639 0.0650 Uiso
C3 C -0.0475(5) 0.4763(2) 0.0571(2) 0.0582 Uani
C4 C -0.0129(5) 0.4935(3) 0.01668(18) 0.0659 Uani
C5 C -0.1135(4) 0.44325(18) 0.13514(18) 0.0386 Uani
H2 H -0.1354 0.4323 0.1613 0.0460 Uiso
C6 C -0.1193(3) 0.5743(3) 0.13567(14) 0.0413 Uani
O1 O -0.14983(18) 0.55495(17) 0.17093(9) 0.0456 Uani
O2 O -0.10888(18) 0.63594(18) 0.11497(9) 0.0482 Uani
O3 O -0.22608(16) 0.5478(3) 0.25478(14) 0.0926 Uani
Cu1B Cu -0.19005(5) 0.19005(2) 0.19983(2) 0.0324 Uani
Cu1J Cu -0.14328(5) 0.71343(5) 0.13350(2) 0.0324 Uani
Cu1K Cu -0.14328(2) 0.14328(5) 0.13350(2) 0.0324 Uani
Cu1D Cu 0.19005(5) 0.38010(5) -0.19983(2) 0.0324 Uani
Cu1L Cu 0.14328(2) 0.28657(5) -0.13350(2) 0.0324 Uani
Cu1E Cu 0.19005(2) 0.80995(5) -0.19983(2) 0.0324 Uani
Cu1N Cu 0.14328(5) 0.85672(2) -0.13350(2) 0.0324 Uani
C1W C -0.0969(3) 0.3868(4) 0.11534(14) 0.0432 Uani
C1E C 0.0969(3) 0.6132(4) -0.11534(14) 0.0432 Uani
C1R C 0.0969(3) 0.4837(3) -0.11534(14) 0.0432 Uani
C2W C -0.0642(3) 0.4042(4) 0.07697(13) 0.0543 Uani
C2E C 0.0642(3) 0.5958(4) -0.07697(13) 0.0543 Uani
C2R C 0.0642(3) 0.4684(3) -0.07697(13) 0.0543 Uani
H1W H -0.0528 0.3669 0.0639 0.0650 Uiso
H1R H 0.0528 0.4197 -0.0639 0.0650 Uiso
H1E H 0.0528 0.6331 -0.0639 0.0650 Uiso
C3E C 0.0475(5) 0.5238(5) -0.0571(2) 0.0582 Uani
C4E C 0.0129(5) 0.5064(6) -0.01668(18) 0.0659 Uani
C5E C 0.1135(4) 0.55675(44) -0.13514(18) 0.0386 Uani
H2E H 0.1354 0.5677 -0.1613 0.0460 Uiso
C6W C -0.1193(3) 0.3064(4) 0.13567(14) 0.0413 Uani
C6R C 0.1193(3) 0.4257(3) -0.13567(14) 0.0413 Uani
C6E C 0.1193(3) 0.6936(4) -0.13567(14) 0.0413 Uani
O1W O -0.14983(18) 0.29522(25) 0.17093(9) 0.0456 Uani
O1R O 0.14983(18) 0.44505(17) -0.17093(9) 0.0456 Uani
O1E O 0.14983(18) 0.70478(25) -0.17093(9) 0.0456 Uani
O1V O -0.29522(25) 0.55495(17) 0.17093(9) 0.0456 Uani
O1B O -0.29522(25) 0.14983(18) 0.17093(9) 0.0456 Uani
O2W O -0.10888(18) 0.25518(25) 0.11497(9) 0.0482 Uani
O2R O 0.10888(18) 0.36406(18) -0.11497(9) 0.0482 Uani
O2E O 0.10888(18) 0.74482(25) -0.11497(9) 0.0482 Uani
O2J O -0.07815(25) 0.69739(18) 0.21836(9) 0.0482 Uani
O2DA O -0.22445(18) 0.69739(18) 0.21836(9) 0.0482 Uani
O2FA O -0.07815(25) 0.22445(18) 0.21836(9) 0.0482 Uani
O2K O -0.22445(18) 0.07815(25) 0.21836(9) 0.0482 Uani
O3W O -0.22608(16) 0.22612(34) 0.25478(14) 0.0926 Uani
loop_
_atom_site_aniso_label
_atom_site_aniso_U_11
_atom_site_aniso_U_22
_atom_site_aniso_U_33
_atom_site_aniso_U_23
_atom_site_aniso_U_13
_atom_site_aniso_U_12
Cu1 0.0383(4) 0.0269(5) 0.0283(4) 0.0021(4) 0.0011(2) 0.0135(3)
C1 0.057(4) 0.034(3) 0.047(3) -0.001(3) 0.004(3) 0.029(3)
C2 0.085(4) 0.042(4) 0.047(3) 0.017(3) 0.022(3) 0.040(4)
C3 0.083(6) 0.053(4) 0.048(4) 0.015(2) 0.031(5) 0.041(3)
C4 0.115(7) 0.049(3) 0.055(6) 0.012(3) 0.025(5) 0.057(4)
C5 0.044(5) 0.040(3) 0.033(4) 0.0025(17) 0.005(3) 0.022(2)
C6 0.033(3) 0.038(3) 0.044(3) -0.010(3) -0.001(3) 0.011(3)
O1 0.058(2) 0.039(2) 0.045(2) -0.0002(18) 0.0090(18) 0.0281(19)
O2 0.069(3) 0.035(2) 0.046(2) 0.0064(17) 0.0207(17) 0.0301(19)
O3 0.115(4) 0.091(4) 0.063(4) 0.040(3) 0.0199(16) 0.045(2)
Cu1B 0.0382 0.0383 0.0283 -0.0011 0.001 0.0248
Cu1J 0.0382 0.0269 0.0283 0.0021 0.001 0.0134
Cu1K 0.0383 0.0382 0.0283 -0.001 0.0011 0.0248
Cu1D 0.0382 0.0269 0.0283 0.0021 0.001 0.0134
Cu1L 0.0383 0.0269 0.0283 0.0021 0.0011 0.0135
Cu1E 0.0383 0.0382 0.0283 -0.001 0.0011 0.0248
Cu1N 0.0382 0.0383 0.0283 -0.0011 0.001 0.0248
C1W 0.057 0.033 0.047 0.005 0.004 0.028
C1E 0.057 0.033 0.047 0.005 0.004 0.028
C1R 0.057 0.034 0.047 -0.001 0.004 0.029
C2W 0.085 0.047 0.047 0.005 0.022 0.045
C2E 0.085 0.047 0.047 0.005 0.022 0.045
C2R 0.085 0.042 0.047 0.017 0.022 0.04
C3E 0.083 0.054 0.048 0.016 0.031 0.042
C4E 0.115 0.05 0.055 0.013 0.025 0.058
C5E 0.044 0.04 0.033 0.0025 0.005 0.022
C6W 0.033 0.049 0.044 0.009 -0.001 0.022
C6R 0.033 0.038 0.044 -0.01 -0.001 0.011
C6E 0.033 0.049 0.044 0.009 -0.001 0.022
O1W 0.058 0.0408 0.045 0.0092 0.009 0.0299
O1R 0.058 0.039 0.045 -0.0002 0.009 0.0281
O1E 0.058 0.0408 0.045 0.0092 0.009 0.0299
O1V 0.0408 0.039 0.045 -0.0002 -0.0092 0.0109
O1B 0.0408 0.058 0.045 -0.009 -0.0092 0.0299
O2W 0.069 0.0438 0.046 0.0143 0.0207 0.0389
O2R 0.069 0.035 0.046 0.0064 0.0207 0.0301
O2E 0.069 0.0438 0.046 0.0143 0.0207 0.0389
O2J 0.0438 0.035 0.046 0.0064 -0.0143 0.0049
O2DA 0.069 0.035 0.046 0.0064 0.0207 0.0301
O2FA 0.0438 0.069 0.046 -0.0207 -0.0143 0.0389
O2K 0.069 0.0438 0.046 0.0143 0.0207 0.0389
O3W 0.116 0.115 0.063 -0.0199 0.0201 0.07
loop_
_geom_bond_atom_site_label_1
_geom_bond_atom_site_label_2
_geom_bond_site_symmetry_1
_geom_bond_site_symmetry_2
Cu1 O1 1_555 1_555
C1 C2 1_555 1_555
C2 H1 1_555 1_555
C3 C2 1_555 1_555
C4 C3 1_555 1_555
C5 C1 1_555 1_555
H2 C5 1_555 1_555
C6 C1 1_555 1_555
O1 C6 1_555 1_555
O2 C6 1_555 1_555
O3 Cu1 1_555 1_555
Cu1B O1W 1_555 1_555
Cu1J O2 1_555 1_555
Cu1K O2W 1_555 1_555
Cu1D O1R 1_555 1_555
Cu1L O2R 1_555 1_555
Cu1E O1E 1_555 1_555
Cu1N O2E 1_555 1_555
C1W C5 1_555 1_555
C1E C2E 1_555 1_555
C1R C2R 1_555 1_555
C2W C3 1_555 1_555
C2E H1E 1_555 1_555
C2R H1R 1_555 1_555
H1W C2W 1_555 1_555
C3E C2E 1_555 1_555
C4E C4 1_555 1_555
C5E C1E 1_555 1_555
H2E C5E 1_555 1_555
C6W C1W 1_555 1_555
C6R C1R 1_555 1_555
C6E C1E 1_555 1_555
O1W C6W 1_555 1_555
O1R C6R 1_555 1_555
O1E C6E 1_555 1_555
O1V Cu1 1_555 1_555
O1B Cu1B 1_555 1_555
O2W C6W 1_555 1_555
O2R C6R 1_555 1_555
O2E C6E 1_555 1_555
O2J Cu1 1_555 1_555
O2DA Cu1 1_555 1_555
O2FA Cu1B 1_555 1_555
O2K Cu1B 1_555 1_555
O3W Cu1B 1_555 1_555
C1W C2W 1_555 1_555
C1R C5E 1_555 1_555
C2R C3E 1_555 1_555
C3E C4E 1_555 1_555

#END
