
#######################################################################
#
#                 Cambridge Crystallographic Data Centre
#                                CCDC 
#
#######################################################################
#
# If this CIF has been generated from an entry in the Cambridge 
# Structural Database, then it will include bibliographic, chemical, 
# crystal, experimental, refinement or atomic coordinate data resulting 
# from the CCDC's data processing and validation procedures.
#
#######################################################################

data_FEFDEB
_chemical_formula_moiety         '(C34 H28 N2 O8 Zn2)n,6n(C4 H8 O2)'
_chemical_name_systematic        
'catena-(bis(\m~2~-4,4-biphenyldicarboxylato)-(\m~2~-1,4-diazabicyclo(2.2.2)octane)-di-zinc ethyl acetate solvate)'
_symmetry_cell_setting           tetragonal
_symmetry_space_group_name_H-M   'P 4/m m m'
_symmetry_Int_Tables_number      123
_space_group_name_Hall           '-P 4 2'
loop_
_symmetry_equiv_pos_site_id
_symmetry_equiv_pos_as_xyz
1 x,y,z
2 -y,x,z
3 y,-x,z
4 x,-y,-z
5 -x,y,-z
6 -x,-y,z
7 y,x,-z
8 -y,-x,-z
9 -x,-y,-z
10 y,-x,-z
11 -y,x,-z
12 -x,y,z
13 x,-y,z
14 x,y,-z
15 -y,-x,z
16 y,x,z
_cell_length_a                   15.210(3)
_cell_length_b                   15.210(3)
_cell_length_c                   9.6282(19)
_cell_angle_alpha                90
_cell_angle_beta                 90
_cell_angle_gamma                90
_cell_volume                     2227.43
_exptl_crystal_colour            colorless
_exptl_crystal_description       block
_cell_formula_units_Z            1
loop_
_atom_site_label
_atom_site_type_symbol
_atom_site_fract_x
_atom_site_fract_y
_atom_site_fract_z
O1 O -0.0167(9) 0.1317(3) 0.3852(5)
C1 C 0.0000 0.1687(5) 0.5000
C2 C 0.0000 0.2673(4) 0.5000
C3 C 0.0000 0.4517(5) 0.5000
N1 N 0.0000 0.0000 0.1294(9)
C5 C 0.0654(16) 0.0654(16) 0.081(3)
Zn1 Zn 0.0000 0.0000 0.34791(9)
C6 C 0.0000 0.3138(4) 0.3838(7)
H1 H 0.0000 0.2835 0.2975
C7 C 0.0000 0.4045(5) 0.3832(8)
H2 H 0.0000 0.4344 0.2966
O1K O 0.0167(9) 0.1317(3) 0.3852(5)
O1D O 0.0167(9) 0.1317(3) 0.6148(5)
O1M O -0.0167(9) 0.1317(3) 0.6148(5)
O1C O -0.0167(9) 0.8683(3) 0.6148(5)
O1H O 0.0167(9) 0.8683(3) 0.6148(5)
O1E O 0.0167(9) 0.8683(3) 0.3852(5)
O1L O -0.0167(9) 0.8683(3) 0.3852(5)
O1B O 0.1317(3) 0.0167(9) 0.3852(5)
O1O O 0.1317(3) -0.0167(9) 0.3852(5)
O1F O 0.1317(3) -0.0167(9) 0.6148(5)
O1I O 0.1317(3) 0.0167(9) 0.6148(5)
O1G O 0.8683(3) 0.0167(9) 0.6148(5)
O1J O 0.8683(3) -0.0167(9) 0.6148(5)
O1A O 0.8683(3) -0.0167(9) 0.3852(5)
O1N O 0.8683(3) 0.0167(9) 0.3852(5)
O1A_2 O -0.1317(3) -0.0167(9) 0.3852(5)
O1E_2 O 0.0167(9) -0.1317(3) 0.3852(5)
O1L_2 O -0.0167(9) -0.1317(3) 0.3852(5)
O1N_2 O -0.1317(3) 0.0167(9) 0.3852(5)
O1G_2 O -0.1317(3) 0.0167(9) 0.6148(5)
O1C_2 O -0.0167(9) -0.1317(3) 0.6148(5)
O1H_2 O 0.0167(9) -0.1317(3) 0.6148(5)
O1J_2 O -0.1317(3) -0.0167(9) 0.6148(5)
C1C C 0.0000 0.8313(5) 0.5000
C1B C 0.1687(5) 0.0000 0.5000
C1A C 0.8313(5) 0.0000 0.5000
C2C C 0.0000 0.7327(4) 0.5000
C2B C 0.2673(4) 0.0000 0.5000
C2A C 0.7327(4) 0.0000 0.5000
C3C C 0.0000 0.5483(5) 0.5000
C3B C 0.4517(5) 0.0000 0.5000
C3A C 0.5483(5) 0.0000 0.5000
N1C N 0.0000 0.0000 -0.1294(9)
N1C_2 N 0.0000 0.0000 0.8706(9)
C5F C 0.0654(16) 0.0654(16) -0.081(3)
C5C C 0.0654(16) -0.0654(16) -0.081(3)
C5B C 0.0654(16) -0.0654(16) 0.081(3)
C5A C -0.0654(16) 0.0654(16) 0.081(3)
C5D C -0.0654(16) 0.0654(16) -0.081(3)
C5E C -0.0654(16) -0.0654(16) 0.081(3)
C5G C -0.0654(16) -0.0654(16) -0.081(3)
Zn1C Zn 0.0000 0.0000 0.65209(9)
Zn1C_2 Zn 0.0000 1.0000 0.65209(9)
Zn1_2 Zn 0.0000 1.0000 0.34791(9)
Zn1C_3 Zn 0.0000 0.0000 -0.34791(9)
Zn1C_4 Zn 1.0000 0.0000 0.65209(9)
Zn1_3 Zn 1.0000 0.0000 0.34791(9)
C6C C 0.0000 0.6862(4) 0.6162(7)
C6E C 0.0000 0.6862(4) 0.3838(7)
C6D C 0.0000 0.3138(4) 0.6162(7)
C6B C 0.3138(4) 0.0000 0.3838(7)
C6G C 0.6862(4) 0.0000 0.6162(7)
C6A C 0.6862(4) 0.0000 0.3838(7)
C6F C 0.3138(4) 0.0000 0.6162(7)
H1E H 0.0000 0.7165 0.2975
H1C H 0.0000 0.7165 0.7025
H1D H 0.0000 0.2835 0.7025
H1B H 0.2835 0.0000 0.2975
H1A H 0.7165 0.0000 0.2975
H1G H 0.7165 0.0000 0.7025
H1F H 0.2835 0.0000 0.7025
C7C C 0.0000 0.5955(5) 0.6168(8)
C7E C 0.0000 0.5955(5) 0.3832(8)
C7D C 0.0000 0.4045(5) 0.6168(8)
C7B C 0.4045(5) 0.0000 0.3832(8)
C7G C 0.5955(5) 0.0000 0.6168(8)
C7A C 0.5955(5) 0.0000 0.3832(8)
C7F C 0.4045(5) 0.0000 0.6168(8)
H2E H 0.0000 0.5656 0.2966
H2C H 0.0000 0.5656 0.7034
H2D H 0.0000 0.4344 0.7034
H2B H 0.4344 0.0000 0.2966
H2A H 0.5656 0.0000 0.2966
H2G H 0.5656 0.0000 0.7034
H2F H 0.4344 0.0000 0.7034
C4? C -0.0253(7) 0.0883(8) 0.0749(14)
loop_
_geom_bond_atom_site_label_1
_geom_bond_atom_site_label_2
_geom_bond_site_symmetry_1
_geom_bond_site_symmetry_2
O1 C1 1_555 1_555
C1 C2 1_555 1_555
C2 C6 1_555 1_555
C3 C7 1_555 1_555
N1 C5 1_555 1_555
C5 C5F 1_555 1_555
Zn1 O1 1_555 1_555
C6 H1 1_555 1_555
C7 C6 1_555 1_555
H2 C7 1_555 1_555
O1K O1 1_555 1_555
O1D C1 1_555 1_555
O1M C1 1_555 1_555
O1C O1H 1_555 1_555
O1H C1C 1_555 1_555
O1E O1L 1_555 1_555
O1L C1C 1_555 1_555
O1B Zn1 1_555 1_555
O1O Zn1 1_555 1_555
O1F O1I 1_555 1_555
O1I C1B 1_555 1_555
O1G O1J 1_555 1_555
O1J C1A 1_555 1_555
O1A O1N 1_555 1_555
O1N C1A 1_555 1_555
O1A_2 Zn1 1_555 1_555
O1E_2 Zn1 1_555 1_555
O1L_2 Zn1 1_555 1_555
O1N_2 Zn1 1_555 1_555
O1G_2 O1J_2 1_555 1_555
O1C_2 O1H_2 1_555 1_555
O1H_2 Zn1C 1_555 1_555
O1J_2 Zn1C 1_555 1_555
C1C O1C 1_555 1_555
C1B O1B 1_555 1_555
C1A O1G 1_555 1_555
C2C C1C 1_555 1_555
C2B C1B 1_555 1_555
C2A C1A 1_555 1_555
C3C C3 1_555 1_555
C3B C3A 1_555 1_555
C3A C7G 1_555 1_555
N1C C5F 1_555 1_555
N1C_2 Zn1C 1_555 1_555
C5C N1C 1_555 1_555
C5B N1 1_555 1_555
C5A N1 1_555 1_555
C5D N1C 1_555 1_555
C5E N1 1_555 1_555
C5G N1C 1_555 1_555
Zn1C O1D 1_555 1_555
Zn1C_2 O1C 1_555 1_555
Zn1_2 O1E 1_555 1_555
Zn1C_3 N1C 1_555 1_555
Zn1C_4 O1G 1_555 1_555
Zn1_3 O1A 1_555 1_555
C6C C2C 1_555 1_555
C6E C2C 1_555 1_555
C6D C2 1_555 1_555
C6B C2B 1_555 1_555
C6G C2A 1_555 1_555
C6A C2A 1_555 1_555
C6F C2B 1_555 1_555
H1E C6E 1_555 1_555
H1C C6C 1_555 1_555
H1D C6D 1_555 1_555
H1B C6B 1_555 1_555
H1A C6A 1_555 1_555
H1G C6G 1_555 1_555
H1F C6F 1_555 1_555
C7C C3C 1_555 1_555
C7E C3C 1_555 1_555
C7D C3 1_555 1_555
C7B C3B 1_555 1_555
C7G C6G 1_555 1_555
C7A C3A 1_555 1_555
C7F C3B 1_555 1_555
H2E C7E 1_555 1_555
H2C C7C 1_555 1_555
H2D C7D 1_555 1_555
H2B C7B 1_555 1_555
H2A C7A 1_555 1_555
H2G C7G 1_555 1_555
H2F C7F 1_555 1_555
C1 O1K 1_555 1_555
N1 Zn1 1_555 1_555
Zn1 O1K 1_555 1_555
O1D O1M 1_555 1_555
O1M Zn1C 1_555 1_555
O1H Zn1C_2 1_555 1_555
O1E C1C 1_555 1_555
O1L Zn1_2 1_555 1_555
O1B O1O 1_555 1_555
O1O C1B 1_555 1_555
O1F C1B 1_555 1_555
O1F Zn1C 1_555 1_555
O1I Zn1C 1_555 1_555
O1J Zn1C_4 1_555 1_555
O1A C1A 1_555 1_555
O1N Zn1_3 1_555 1_555
O1A_2 O1N_2 1_555 1_555
O1E_2 O1L_2 1_555 1_555
O1G_2 Zn1C 1_555 1_555
O1C_2 Zn1C 1_555 1_555
C5C C5B 1_555 1_555
C5A C5D 1_555 1_555
C5E C5G 1_555 1_555
C6C C7C 1_555 1_555
C6E C7E 1_555 1_555
C6D C7D 1_555 1_555
C6B C7B 1_555 1_555
C6A C7A 1_555 1_555
C6F C7F 1_555 1_555

#END
