
#######################################################################
#
#                 Cambridge Crystallographic Data Centre
#                                CCDC 
#
#######################################################################
#
# If this CIF has been generated from an entry in the Cambridge 
# Structural Database, then it will include bibliographic, chemical, 
# crystal, experimental, refinement or atomic coordinate data resulting 
# from the CCDC's data processing and validation procedures.
#
#######################################################################

data_FEFDAX
_chemical_formula_moiety         '(C34 H20 N6 O8 Zn2)n,10.2n(C4 H8 O2)'
_chemical_name_systematic        
"catena-((\m~2~-4,4'-Bipyridine)-bis(\m~2~-3,3'-bipyridine)-di-zinc ethyl acetate solvate)"
_symmetry_cell_setting           triclinic
_symmetry_space_group_name_H-M   'P -1'
_symmetry_Int_Tables_number      2
_space_group_name_Hall           '-P 1'
loop_
_symmetry_equiv_pos_site_id
_symmetry_equiv_pos_as_xyz
1 x,y,z
2 -x,-y,-z
_cell_length_a                   14.020(2)
_cell_length_b                   15.082(2)
_cell_length_c                   15.121(2)
_cell_angle_alpha                76.892(2)
_cell_angle_beta                 86.550(2)
_cell_angle_gamma                83.446(2)
_cell_volume                     3091.73
_exptl_crystal_colour            colorless
_exptl_crystal_description       plate
_cell_formula_units_Z            2
loop_
_atom_site_label
_atom_site_type_symbol
_atom_site_fract_x
_atom_site_fract_y
_atom_site_fract_z
_atom_site_U_iso_or_equiv
_atom_site_thermal_displace_type
O1 O 0.2941(3) 0.8863(2) 1.0288(3) 0.0431 Uiso
N1 N -0.5426(3) 0.8713(3) 0.1642(3) 0.0341 Uiso
N2 N -0.0432(3) 0.8866(3) 0.1692(3) 0.0374 Uiso
O2 O 0.1343(3) 0.8913(3) 1.0380(3) 0.0475 Uiso
O3 O 0.2790(3) 0.8601(3) 0.2988(3) 0.0477 Uiso
O4 O 0.1199(3) 0.8884(3) 0.3032(3) 0.0461 Uiso
O5 O 0.1185(3) 1.0266(3) 0.1463(3) 0.0476 Uiso
O6 O 0.2985(3) 1.7354(3) 0.1793(3) 0.0535 Uiso
O7 O 0.1389(3) 1.7528(3) 0.1975(3) 0.0537 Uiso
O8 O 0.2775(3) 1.0080(3) 0.1497(3) 0.0484 Uiso
C1 C -0.3452(5) 0.8769(4) 0.1677(4) 0.0439 Uiso
C2 C -0.2408(5) 0.8803(4) 0.1675(4) 0.0456 Uiso
C3 C -0.1830(5) 0.8840(4) 0.0892(4) 0.0467 Uiso
H1 H -0.2104 0.8828 0.0336 0.0560 Uiso
C4 C 0.2139(4) 0.8877(3) 0.9958(4) 0.0355 Uiso
C5 C 0.2003(4) 0.8740(3) 0.3392(4) 0.0381 Uiso
C6 C -0.1950(5) 0.8785(5) 0.2477(5) 0.0606 Uiso
H2 H -0.2312 0.8759 0.3032 0.0730 Uiso
C7 C -0.3931(9) 0.9111(8) 0.0879(8) 0.0517 Uiso
H3 H -0.3591 0.9362 0.0333 0.0620 Uiso
C8 C 0.2192(5) 1.7052(4) 0.1900(4) 0.0461 Uiso
C9 C 0.2120(4) 0.8868(4) 0.8972(4) 0.0407 Uiso
C10 C 0.1266(5) 0.8918(4) 0.8546(4) 0.0468 Uiso
H4 H 0.0677 0.8977 0.8883 0.0560 Uiso
C11 C 0.1243(5) 0.8885(4) 0.7666(4) 0.0545 Uiso
H5 H 0.0645 0.8898 0.7397 0.0650 Uiso
C12 C 0.1995(5) 1.1510(4) 0.1584(4) 0.0498 Uiso
N3 N 0.2960(5) 0.8799(4) 0.7548(4) 0.0240 Uiso
N4 N 0.1194(8) 1.2985(7) 0.1695(7) 0.0970 Uiso
C13 C 0.2973(5) 0.8795(4) 0.8449(4) 0.0479 Uiso
H6 H 0.3573 0.8742 0.8728 0.0570 Uiso
C14 C 0.2063(5) 0.8802(4) 0.6185(5) 0.0560 Uiso
C15 C 0.2144(5) 1.6070(4) 0.1922(5) 0.0579 Uiso
C16 C -0.0868(4) 0.8892(4) 0.0919(4) 0.0420 Uiso
H7 H -0.0492 0.8949 0.0370 0.0500 Uiso
C17 C -0.0972(5) 0.8806(4) 0.2455(5) 0.0551 Uiso
H8 H -0.0667 0.8775 0.3007 0.0660 Uiso
C18 C 0.2088(5) 0.8832(4) 0.7154(5) 0.0560 Uiso
C19 C 0.2851(6) 0.8514(5) 0.4855(5) 0.0750 Uiso
H9 H 0.3423 0.8317 0.4554 0.0900 Uiso
C20 C 0.2009(5) 0.8764(4) 0.4376(4) 0.0470 Uiso
C21 C 0.1200(6) 0.9030(5) 0.4849(5) 0.0675 Uiso
H10 H 0.0607 0.9191 0.4551 0.0810 Uiso
C22 C 0.1987(4) 1.0560(4) 0.1500(4) 0.0407 Uiso
C23 C 0.2945(6) 1.5483(5) 0.1838(5) 0.0700 Uiso
H11 H 0.3561 1.5695 0.1810 0.0840 Uiso
C24 C 0.1233(6) 0.9067(5) 0.5730(5) 0.0700 Uiso
H12 H 0.0672 0.9281 0.6035 0.0840 Uiso
C25 C 0.2032(6) 1.3308(5) 0.1768(5) 0.0670 Uiso
C26 C 0.2877(6) 1.4605(5) 0.1796(5) 0.0700 Uiso
H13 H 0.3446 1.4216 0.1726 0.0850 Uiso
C27 C 0.1184(7) 1.2096(6) 0.1607(6) 0.0880 Uiso
H14 H 0.0582 1.1882 0.1560 0.1060 Uiso
C28 C 0.2857(6) 1.2749(5) 0.1724(5) 0.0690 Uiso
H15 H 0.3457 1.2973 0.1759 0.0830 Uiso
C29 C 0.2839(6) 1.1874(5) 0.1629(5) 0.0627 Uiso
H16 H 0.3430 1.1505 0.1594 0.0750 Uiso
C30 C 0.2040(6) 1.4282(5) 0.1851(5) 0.0740 Uiso
C31 C -0.4922(9) 0.9082(8) 0.0889(8) 0.0517 Uiso
H17 H -0.5254 0.9333 0.0345 0.0620 Uiso
C32 C 0.1281(9) 1.5642(7) 0.2045(7) 0.1060 Uiso
H18 H 0.0698 1.5997 0.2152 0.1270 Uiso
C33 C -0.3963(9) 0.8380(8) 0.2434(8) 0.0517 Uiso
H19 H -0.3644 0.8122 0.2985 0.0620 Uiso
C34 C -0.4956(9) 0.8361(8) 0.2402(8) 0.0517 Uiso
H20 H -0.5302 0.8089 0.2936 0.0620 Uiso
Zn1 Zn 0.10194(4) 0.89015(4) 0.17082(4) 0.0316 Uiso
Zn2 Zn 0.31219(4) 0.86984(4) 1.16444(4) 0.0315 Uiso
N5 N 0.2870(6) 0.8547(5) 0.5724(5) 0.0191 Uiso
N6 N 0.1245(9) 1.4790(8) 0.2020(8) 0.0100 Uiso
N1_2 N 0.4574(3) 0.8713(3) 1.1642(3) 0.0341 Uiso
O2_2 O 0.1343(3) 0.8913(3) 0.0380(3) 0.0475 Uiso
O3_2 O 0.2790(3) 0.8601(3) 1.2988(3) 0.0477 Uiso
O6_2 O 0.2985(3) 0.7354(3) 1.1793(3) 0.0535 Uiso
O7_2 O 0.1389(3) 0.7528(3) 0.1975(3) 0.0537 Uiso
O8_2 O 0.2775(3) 1.0080(3) 1.1497(3) 0.0484 Uiso
Zn1_2 Zn 0.10194(4) 0.89015(4) 1.17082(4) 0.0316 Uiso
Zn1_3 Zn 0.10194(4) 1.89015(4) 0.17082(4) 0.0316 Uiso
Zn2_2 Zn -0.68781(4) 0.86984(4) 0.16444(4) 0.0315 Uiso
Zn2_3 Zn 0.31219(4) 0.86984(4) 0.16444(4) 0.0315 Uiso
Zn2_4 Zn 0.31219(4) 1.86984(4) 0.16444(4) 0.0315 Uiso
C35? C 0.4988(11) 0.8911(10) 0.2310(10) 0.0517 Uiso
C36? C 0.5139(12) 0.8604(11) 0.0948(11) 0.0517 Uiso
C37? C 0.5959(11) 0.8934(10) 0.2379(10) 0.0517 Uiso
C38? C 0.6107(11) 0.8600(10) 0.0917(10) 0.0517 Uiso
H21? H 0.4582 0.9052 0.2797 0.0620 Uiso
H22? H 0.4849 0.8522 0.0425 0.0620 Uiso
H23? H 0.6208 0.9062 0.2902 0.0620 Uiso
H24? H 0.6480 0.8488 0.0401 0.0620 Uiso
loop_
_geom_bond_atom_site_label_1
_geom_bond_atom_site_label_2
_geom_bond_site_symmetry_1
_geom_bond_site_symmetry_2
O1 C4 1_555 1_555
N1 C31 1_555 1_555
N2 C16 1_555 1_555
O2 C4 1_555 1_555
O3 C5 1_555 1_555
O4 C5 1_555 1_555
O5 C22 1_555 1_555
O6 C8 1_555 1_555
O7 C8 1_555 1_555
O8 C22 1_555 1_555
C1 C2 1_555 1_555
C2 C3 1_555 1_555
C3 H1 1_555 1_555
C4 C9 1_555 1_555
C5 C20 1_555 1_555
C6 C2 1_555 1_555
H2 C6 1_555 1_555
C7 C1 1_555 1_555
H3 C7 1_555 1_555
C8 C15 1_555 1_555
C9 C10 1_555 1_555
C10 H4 1_555 1_555
C11 C10 1_555 1_555
H5 C11 1_555 1_555
C12 C22 1_555 1_555
N3 C13 1_555 1_555
N4 C25 1_555 1_555
C13 C9 1_555 1_555
H6 C13 1_555 1_555
C14 C18 1_555 1_555
C15 C23 1_555 1_555
C16 C3 1_555 1_555
H7 C16 1_555 1_555
C17 N2 1_555 1_555
H8 C17 1_555 1_555
C18 C11 1_555 1_555
C19 H9 1_555 1_555
C20 C19 1_555 1_555
C21 C20 1_555 1_555
H10 C21 1_555 1_555
C23 H11 1_555 1_555
C24 C14 1_555 1_555
H12 C24 1_555 1_555
C25 C28 1_555 1_555
C26 C23 1_555 1_555
H13 C26 1_555 1_555
C27 C12 1_555 1_555
H14 C27 1_555 1_555
C28 H15 1_555 1_555
C29 C12 1_555 1_555
H16 C29 1_555 1_555
C30 C25 1_555 1_555
C31 C7 1_555 1_555
H17 C31 1_555 1_555
C32 C15 1_555 1_555
H18 C32 1_555 1_555
C33 C1 1_555 1_555
H19 C33 1_555 1_555
C34 N1 1_555 1_555
H20 C34 1_555 1_555
Zn1 N2 1_555 1_555
Zn2 O1 1_555 1_555
N5 C14 1_555 1_555
N6 C30 1_555 1_555
N1_2 Zn2 1_555 1_555
O2_2 Zn1 1_555 1_555
O3_2 Zn2 1_555 1_555
O6_2 Zn2 1_555 1_555
O7_2 Zn1 1_555 1_555
O8_2 Zn2 1_555 1_555
Zn1_2 O2 1_555 1_555
Zn1_3 O7 1_555 1_555
Zn2_2 N1 1_555 1_555
Zn2_3 O3 1_555 1_555
Zn2_4 O6 1_555 1_555
O4 Zn1 1_555 1_555
O5 Zn1 1_555 1_555
O8 Zn2_3 1_555 1_555
C6 C17 1_555 1_555
N3 C18 1_555 1_555
N4 C27 1_555 1_555
C19 N5 1_555 1_555
C21 C24 1_555 1_555
C26 C30 1_555 1_555
C28 C29 1_555 1_555
C32 N6 1_555 1_555
C33 C34 1_555 1_555

#END
