
#######################################################################
#
#                 Cambridge Crystallographic Data Centre
#                                CCDC 
#
#######################################################################
#
# If this CIF has been generated from an entry in the Cambridge 
# Structural Database, then it will include bibliographic, chemical, 
# crystal, experimental, refinement or atomic coordinate data resulting 
# from the CCDC's data processing and validation procedures.
#
#######################################################################

data_FEFDIF
_chemical_formula_moiety         '(C32 H26 N4 O8 Zn2)n,6n(C4 H8 O2)'
_chemical_name_systematic        
"catena-(bis(\m~2~-2-phenylpyridine-5,4'-dicarboxylato)-(\m~2~-1,4-diazabicyclo(2.2.2)octane)-di-zinc ethyl acetate solvate)"
_symmetry_cell_setting           tetragonal
_symmetry_space_group_name_H-M   'P 4/m m m'
_symmetry_Int_Tables_number      123
_space_group_name_Hall           '-P 4 2'
loop_
_symmetry_equiv_pos_site_id
_symmetry_equiv_pos_as_xyz
1 x,y,z
2 -y,x,z
3 y,-x,z
4 x,-y,-z
5 -x,y,-z
6 -x,-y,z
7 y,x,-z
8 -y,-x,-z
9 -x,-y,-z
10 y,-x,-z
11 -y,x,-z
12 -x,y,z
13 x,-y,z
14 x,y,-z
15 -y,-x,z
16 y,x,z
_cell_length_a                   15.1370(18)
_cell_length_b                   15.1370(18)
_cell_length_c                   9.6187(12)
_cell_angle_alpha                90
_cell_angle_beta                 90
_cell_angle_gamma                90
_cell_volume                     2203.92
_exptl_crystal_colour            colorless
_exptl_crystal_description       block
_cell_formula_units_Z            1
loop_
_atom_site_label
_atom_site_type_symbol
_atom_site_fract_x
_atom_site_fract_y
_atom_site_fract_z
_atom_site_U_iso_or_equiv
_atom_site_thermal_displace_type
Zn1 Zn 0.5000 0.5000 0.6514(2) 0.0202 Uiso
N1 N 0.5000 0.5000 0.8871(17) 0.0020 Uiso
O1 O 0.5000 0.6347(6) 0.6203(12) 0.0420 Uiso
C1 C 0.5000 0.6675(10) 0.5000 0.0330 Uiso
C2 C 0.5000 0.7663(10) 0.5000 0.0330 Uiso
C3 C 0.5000 0.9519(14) 0.5000 0.0500 Uiso
C4 C 0.5000 0.8161(12) 0.625(2) 0.0570 Uiso
H1 H 0.5000 0.7869 0.7122 0.0690 Uiso
N2 N 0.5000 0.9054(13) 0.619(2) 0.0300 Uiso
C5 C 0.5746(11) 0.5366(13) 0.932(2) 0.0520 Uiso
Zn1C Zn 0.5000 0.5000 1.3486(2) 0.0202 Uiso
Zn1C_2 Zn 0.5000 0.5000 0.3486(2) 0.0202 Uiso
Zn1C_3 Zn 0.5000 1.5000 0.3486(2) 0.0202 Uiso
Zn1_2 Zn 0.5000 1.5000 0.6514(2) 0.0202 Uiso
Zn1C_4 Zn -0.5000 0.5000 0.3486(2) 0.0202 Uiso
Zn1_3 Zn -0.5000 0.5000 0.6514(2) 0.0202 Uiso
N1C N 0.5000 0.5000 1.1129(17) 0.0020 Uiso
O1D O 0.5000 0.6347(6) 0.3797(12) 0.0420 Uiso
O1C O 0.5000 1.3653(6) 0.3797(12) 0.0420 Uiso
O1E O 0.5000 1.3653(6) 0.6203(12) 0.0420 Uiso
O1A O 0.3653(6) 0.5000 0.6203(12) 0.0420 Uiso
O1G O 0.3653(6) 0.5000 0.3797(12) 0.0420 Uiso
O1F O -0.3653(6) 0.5000 0.3797(12) 0.0420 Uiso
O1B O -0.3653(6) 0.5000 0.6203(12) 0.0420 Uiso
O1B_2 O 0.6347(6) 0.5000 0.6203(12) 0.0420 Uiso
O1E_2 O 0.5000 0.3653(6) 0.6203(12) 0.0420 Uiso
O1C_2 O 0.5000 0.3653(6) 1.3797(12) 0.0420 Uiso
O1G_2 O 0.3653(6) 0.5000 1.3797(12) 0.0420 Uiso
O1F_2 O 0.6347(6) 0.5000 1.3797(12) 0.0420 Uiso
O1D_2 O 0.5000 0.6347(6) 1.3797(12) 0.0420 Uiso
C1C C 0.5000 1.3325(10) 0.5000 0.0330 Uiso
C1A C 0.3325(10) 0.5000 0.5000 0.0330 Uiso
C1B C -0.3325(10) 0.5000 0.5000 0.0330 Uiso
C2C C 0.5000 1.2337(10) 0.5000 0.0330 Uiso
C2A C 0.2337(10) 0.5000 0.5000 0.0330 Uiso
C2B C -0.2337(10) 0.5000 0.5000 0.0330 Uiso
C3C C 0.5000 1.0481(14) 0.5000 0.0500 Uiso
C3A C 0.0481(14) 0.5000 0.5000 0.0500 Uiso
C3B C -0.0481(14) 0.5000 0.5000 0.0500 Uiso
C4C C 0.5000 1.1839(12) 0.375(2) 0.0570 Uiso
C4E C 0.5000 1.1839(12) 0.625(2) 0.0570 Uiso
C4D C 0.5000 0.8161(12) 0.375(2) 0.0570 Uiso
C4A C 0.1839(12) 0.5000 0.625(2) 0.0570 Uiso
C4F C -0.1839(12) 0.5000 0.375(2) 0.0570 Uiso
C4B C -0.1839(12) 0.5000 0.625(2) 0.0570 Uiso
C4G C 0.1839(12) 0.5000 0.375(2) 0.0570 Uiso
H1E H 0.5000 1.2131 0.7122 0.0690 Uiso
H1C H 0.5000 1.2131 0.2878 0.0690 Uiso
H1D H 0.5000 0.7869 0.2878 0.0690 Uiso
H1A H 0.2131 0.5000 0.7122 0.0690 Uiso
H1B H -0.2131 0.5000 0.7122 0.0690 Uiso
H1F H -0.2131 0.5000 0.2878 0.0690 Uiso
H1G H 0.2131 0.5000 0.2878 0.0690 Uiso
N2C N 0.5000 1.0946(13) 0.381(2) 0.0300 Uiso
N2E N 0.5000 1.0946(13) 0.619(2) 0.0300 Uiso
N2D N 0.5000 0.9054(13) 0.381(2) 0.0300 Uiso
N2A N 0.0946(13) 0.5000 0.619(2) 0.0300 Uiso
N2F N -0.0946(13) 0.5000 0.381(2) 0.0300 Uiso
N2B N -0.0946(13) 0.5000 0.619(2) 0.0300 Uiso
N2G N 0.0946(13) 0.5000 0.381(2) 0.0300 Uiso
C5C C 0.5746(11) 0.4634(13) 1.068(2) 0.0520 Uiso
C5G C 0.4634(13) 0.4254(11) 1.068(2) 0.0520 Uiso
C5B C 0.5366(13) 0.4254(11) 0.932(2) 0.0520 Uiso
C5A C 0.4634(13) 0.5746(11) 0.932(2) 0.0520 Uiso
C5F C 0.5366(13) 0.5746(11) 1.068(2) 0.0520 Uiso
C5D C 0.4254(11) 0.5366(13) 1.068(2) 0.0520 Uiso
C5E C 0.4254(11) 0.4634(13) 0.932(2) 0.0520 Uiso
C5K C 0.4254(11) 0.5366(13) 0.932(2) 0.0520 Uiso
C5H C 0.4254(11) 0.4634(13) 1.068(2) 0.0520 Uiso
C5J C 0.4634(13) 0.5746(11) 1.068(2) 0.0520 Uiso
C5N C 0.4634(13) 0.4254(11) 0.932(2) 0.0520 Uiso
C5L C 0.5746(11) 0.4634(13) 0.932(2) 0.0520 Uiso
C5M C 0.5746(11) 0.5366(13) 1.068(2) 0.0520 Uiso
C5I C 0.5366(13) 0.4254(11) 1.068(2) 0.0520 Uiso
C5O C 0.5366(13) 0.5746(11) 0.932(2) 0.0520 Uiso
loop_
_geom_bond_atom_site_label_1
_geom_bond_atom_site_label_2
_geom_bond_site_symmetry_1
_geom_bond_site_symmetry_2
Zn1 N1 1_555 1_555
N1 C5 1_555 1_555
O1 Zn1 1_555 1_555
C1 O1 1_555 1_555
C2 C1 1_555 1_555
C3 N2 1_555 1_555
C4 C2 1_555 1_555
H1 C4 1_555 1_555
N2 C4 1_555 1_555
C5 C5C 1_555 1_555
Zn1C N1C 1_555 1_555
Zn1C_2 O1D 1_555 1_555
Zn1C_3 O1C 1_555 1_555
Zn1_2 O1E 1_555 1_555
Zn1C_4 O1F 1_555 1_555
Zn1_3 O1B 1_555 1_555
N1C C5C 1_555 1_555
O1D C1 1_555 1_555
O1C C1C 1_555 1_555
O1E C1C 1_555 1_555
O1A Zn1 1_555 1_555
O1G Zn1C_2 1_555 1_555
O1F C1B 1_555 1_555
O1B C1B 1_555 1_555
O1B_2 Zn1 1_555 1_555
O1E_2 Zn1 1_555 1_555
O1C_2 Zn1C 1_555 1_555
O1G_2 Zn1C 1_555 1_555
O1F_2 Zn1C 1_555 1_555
O1D_2 Zn1C 1_555 1_555
C1C C2C 1_555 1_555
C1A O1A 1_555 1_555
C1B C2B 1_555 1_555
C2C C4C 1_555 1_555
C2A C1A 1_555 1_555
C2B C4F 1_555 1_555
C3C C3 1_555 1_555
C3A C3B 1_555 1_555
C3B N2F 1_555 1_555
C4C H1C 1_555 1_555
C4E C2C 1_555 1_555
C4D C2 1_555 1_555
C4A C2A 1_555 1_555
C4F H1F 1_555 1_555
C4B C2B 1_555 1_555
C4G C2A 1_555 1_555
H1E C4E 1_555 1_555
H1D C4D 1_555 1_555
H1A C4A 1_555 1_555
H1B C4B 1_555 1_555
H1G C4G 1_555 1_555
N2C C3C 1_555 1_555
N2E C3C 1_555 1_555
N2D C3 1_555 1_555
N2A C3A 1_555 1_555
N2F C4F 1_555 1_555
N2B C3B 1_555 1_555
N2G C3A 1_555 1_555
C5C C5B 1_555 1_555
C5G N1C 1_555 1_555
C5B N1 1_555 1_555
C5A N1 1_555 1_555
C5F C5 1_555 1_555
C5D N1C 1_555 1_555
C5E N1 1_555 1_555
C5K N1 1_555 1_555
C5H N1C 1_555 1_555
C5J N1C 1_555 1_555
C5N N1 1_555 1_555
C5L N1 1_555 1_555
C5M C5 1_555 1_555
C5I N1C 1_555 1_555
C5O N1 1_555 1_555
C5 C5L 1_555 1_555
C5 C5O 1_555 1_555
N1C C5F 1_555 1_555
N1C C5M 1_555 1_555
O1G C1A 1_555 1_555
C4C N2C 1_555 1_555
C4E N2E 1_555 1_555
C4D N2D 1_555 1_555
C4A N2A 1_555 1_555
C4B N2B 1_555 1_555
C4G N2G 1_555 1_555
C5C C5L 1_555 1_555
C5C C5M 1_555 1_555
C5C C5I 1_555 1_555
C5G C5B 1_555 1_555
C5G C5E 1_555 1_555
C5G C5H 1_555 1_555
C5G C5N 1_555 1_555
C5G C5I 1_555 1_555
C5B C5N 1_555 1_555
C5B C5L 1_555 1_555
C5B C5I 1_555 1_555
C5A C5F 1_555 1_555
C5A C5D 1_555 1_555
C5A C5K 1_555 1_555
C5A C5J 1_555 1_555
C5A C5O 1_555 1_555
C5F C5J 1_555 1_555
C5F C5M 1_555 1_555
C5F C5O 1_555 1_555
C5D C5E 1_555 1_555
C5D C5K 1_555 1_555
C5D C5H 1_555 1_555
C5D C5J 1_555 1_555
C5E C5K 1_555 1_555
C5E C5H 1_555 1_555
C5E C5N 1_555 1_555
C5K C5H 1_555 1_555
C5K C5J 1_555 1_555
C5H C5N 1_555 1_555
C5J C5O 1_555 1_555
C5N C5I 1_555 1_555
C5L C5M 1_555 1_555
C5L C5I 1_555 1_555
C5M C5O 1_555 1_555

#END
