
#######################################################################
#
#                 Cambridge Crystallographic Data Centre
#                                CCDC 
#
#######################################################################
#
# If this CIF has been generated from an entry in the Cambridge 
# Structural Database, then it will include bibliographic, chemical, 
# crystal, experimental, refinement or atomic coordinate data resulting 
# from the CCDC's data processing and validation procedures.
#
#######################################################################

data_XETPAO
_chemical_formula_moiety         '(C44 H32 N20 Ni2 S4)n,n(C1 H4 O1)'
_chemical_name_systematic        
'catena-[tetrakis(\m~2~-Azo(4-pyridine))-tetrakis(isothiocyanato)-di-nickel(ii) methanol clathrate]'
_symmetry_cell_setting           orthorhombic
_symmetry_space_group_name_H-M   'C c c a'
_symmetry_Int_Tables_number      68
_space_group_name_Hall           '-C 2a 2ac'
loop_
_symmetry_equiv_pos_site_id
_symmetry_equiv_pos_as_xyz
1 x,y,z
2 1/2+x,1/2+y,z
3 1/2+x,-y,1/2-z
4 -x,y,1/2-z
5 1/2-x,-y,z
6 x,1/2-y,1/2-z
7 1/2-x,1/2+y,1/2-z
8 -x,1/2-y,z
9 -x,-y,-z
10 1/2-x,1/2-y,-z
11 1/2-x,y,1/2+z
12 x,-y,1/2+z
13 1/2+x,y,-z
14 -x,1/2+y,1/2+z
15 1/2+x,1/2-y,1/2+z
16 x,1/2+y,-z
_cell_length_a                   18.003(2)
_cell_length_b                   30.929(4)
_cell_length_c                   19.443(3)
_cell_angle_alpha                90
_cell_angle_beta                 90
_cell_angle_gamma                90
_cell_volume                     10826.1
_exptl_crystal_colour            red
_exptl_crystal_description       prism
_cell_formula_units_Z            8
loop_
_atom_site_label
_atom_site_type_symbol
_atom_site_fract_x
_atom_site_fract_y
_atom_site_fract_z
O1 O 0.2338(9) 0.2494(8) 0.6982(10)
C23 C 0.1699(11) 0.250000(10) 0.750000(10)
H17 H 0.1267 0.2380 0.7294
H18 H 0.1600 0.2789 0.7638
H19 H 0.1833 0.2667 0.7109
O1E O 0.2338(9) 0.2506(8) 0.8018(10)
H17E H 0.1267 0.2620 0.7706
H18E H 0.1600 0.2211 0.7362
H19E H 0.1833 0.2333 0.7891
Ni1 Ni 0.0000 0.2500 1.02476(4)
Ni2 Ni 0.2500 0.0000 0.52446(4)
S1 S 0.21306(9) 0.32027(6) 0.94293(9)
S2 S 0.47780(10) 0.07536(6) 0.49503(12)
N1 N 0.0449(2) 0.20845(12) 0.94927(18)
N2 N 0.1989(2) 0.03701(12) 0.60292(18)
N3 N 0.1394(2) 0.12337(14) 0.8057(2)
N4 N 0.1002(2) 0.11219(13) 0.7576(2)
N5 N -0.0437(2) 0.29072(13) 1.10172(19)
N6 N -0.1950(2) 0.46394(13) 1.4464(2)
N7 N -0.1276(2) 0.3641(2) 1.2744(3)
N8 N -0.1055(3) 0.3970(2) 1.2696(3)
N9 N 0.0983(2) 0.28481(12) 1.0220(2)
N10 N 0.3369(2) 0.04200(12) 0.5224(2)
C1 C 0.1156(2) 0.19491(16) 0.9536(2)
C2 C 0.1463(2) 0.16646(17) 0.9072(2)
C3 C 0.1040(2) 0.15182(16) 0.8537(2)
C4 C 0.0307(2) 0.16528(16) 0.8482(2)
C5 C 0.0039(2) 0.19348(13) 0.8967(2)
C6 C 0.2410(2) 0.05740(17) 0.6493(2)
C7 C 0.2124(2) 0.08196(18) 0.7024(2)
C8 C 0.1357(2) 0.08597(16) 0.7074(2)
C9 C 0.0920(2) 0.06555(18) 0.6595(2)
C10 C 0.1257(2) 0.04108(16) 0.6089(2)
C11 C -0.0256(2) 0.33252(18) 1.1043(2)
C12 C -0.0522(3) 0.3595(2) 1.1561(3)
C13 C -0.0967(3) 0.3431(2) 1.2063(3)
C14 C -0.1177(3) 0.3010(2) 1.2023(2)
C15 C -0.0895(3) 0.27561(19) 1.1498(2)
C16 C -0.1956(2) 0.42082(17) 1.4482(2)
C17 C -0.1668(2) 0.3959(2) 1.3950(3)
C18 C -0.1368(3) 0.4168(2) 1.3389(2)
C19 C -0.1328(3) 0.4610(2) 1.3377(2)
C20 C -0.1629(3) 0.48314(19) 1.3926(2)
C21 C 0.1470(3) 0.29964(17) 0.9897(2)
C22 C 0.3951(3) 0.05623(16) 0.5109(2)
H1 H 0.1456 0.2056 0.9899
H2 H 0.1962 0.1571 0.9124
H3 H 0.0000 0.1552 0.8119
H4 H -0.0463 0.2028 0.8929
H5 H 0.2934 0.0551 0.6454
H6 H 0.2441 0.0955 0.7349
H7 H 0.0395 0.0682 0.6611
H8 H 0.0950 0.0264 0.5767
H9 H 0.0062 0.3441 1.0699
H10 H -0.0389 0.3893 1.1566
H11 H -0.1509 0.2891 1.2352
H12 H -0.1037 0.2460 1.1479
H13 H -0.2167 0.4066 1.4869
H14 H -0.1676 0.3652 1.3974
H15 H -0.1102 0.4759 1.3004
H16 H -0.1610 0.5138 1.3919
Ni2A Ni -0.2500 0.5000 1.52446(4)
Ni2A_2 Ni -0.2500 0.5000 0.52446(4)
Ni2_2 Ni 0.2500 0.0000 1.52446(4)
S1G S -0.21306(9) 0.17973(6) 0.94293(9)
S2D S 0.02220(10) -0.07536(6) 0.49503(12)
N1G N -0.0449(2) 0.29155(12) 0.94927(18)
N2G N -0.1989(2) 0.46299(12) 0.60292(18)
N2D N 0.3011(2) -0.03701(12) 0.60292(18)
N3G N -0.1394(2) 0.37663(14) 0.8057(2)
N4G N -0.1002(2) 0.38781(13) 0.7576(2)
N5G N 0.0437(2) 0.20928(13) 1.10172(19)
N6G N 0.1950(2) 0.03606(13) 1.4464(2)
N6A N 0.3050(2) -0.03606(13) 0.4464(2)
N6G_2 N 0.1950(2) 0.03606(13) 0.4464(2)
N7G N 0.1276(2) 0.1359(2) 1.2744(3)
N8G N 0.1055(3) 0.1030(2) 1.2696(3)
N9G N -0.0983(2) 0.21519(12) 1.0220(2)
N10D N 0.1631(2) -0.04200(12) 0.5224(2)
C1G C -0.1156(2) 0.30509(16) 0.9536(2)
C2G C -0.1463(2) 0.33354(17) 0.9072(2)
C3G C -0.1040(2) 0.34818(16) 0.8537(2)
C4G C -0.0307(2) 0.33472(16) 0.8482(2)
C5G C -0.0039(2) 0.30652(13) 0.8967(2)
C6G C -0.2410(2) 0.44260(17) 0.6493(2)
C7G C -0.2124(2) 0.41804(18) 0.7024(2)
C8G C -0.1357(2) 0.41403(16) 0.7074(2)
C9G C -0.0920(2) 0.43445(18) 0.6595(2)
C10G C -0.1257(2) 0.45892(16) 0.6089(2)
C11G C 0.0256(2) 0.16748(18) 1.1043(2)
C12G C 0.0522(3) 0.1405(2) 1.1561(3)
C13G C 0.0967(3) 0.1569(2) 1.2063(3)
C14G C 0.1177(3) 0.1990(2) 1.2023(2)
C15G C 0.0895(3) 0.22439(19) 1.1498(2)
C16G C 0.1956(2) 0.07918(17) 1.4482(2)
C17G C 0.1668(2) 0.1041(2) 1.3950(3)
C18G C 0.1368(3) 0.0832(2) 1.3389(2)
C19G C 0.1328(3) 0.0390(2) 1.3377(2)
C20G C 0.1629(3) 0.01686(19) 1.3926(2)
C21G C -0.1470(3) 0.20036(17) 0.9897(2)
C22D C 0.1049(3) -0.05623(16) 0.5109(2)
H1G H -0.1456 0.2944 0.9899
H2G H -0.1962 0.3429 0.9124
H3G H 0.0000 0.3448 0.8119
H4G H 0.0463 0.2972 0.8929
H5G H -0.2934 0.4449 0.6454
H6G H -0.2441 0.4045 0.7349
H7G H -0.0395 0.4318 0.6611
H8G H -0.0950 0.4736 0.5767
H9G H -0.0062 0.1559 1.0699
H10G H 0.0389 0.1107 1.1566
H11G H 0.1509 0.2109 1.2352
H12G H 0.1037 0.2540 1.1479
H13G H 0.2167 0.0934 1.4869
H14G H 0.1676 0.1348 1.3974
H15G H 0.1102 0.0241 1.3004
H16G H 0.1610 -0.0138 1.3919
loop_
_geom_bond_atom_site_label_1
_geom_bond_atom_site_label_2
_geom_bond_site_symmetry_1
_geom_bond_site_symmetry_2
Ni1 N1 1_555 1_555
Ni2 N2 1_555 1_555
S1 C21 1_555 1_555
S2 C22 1_555 1_555
O1 C23 1_555 1_555
N1 C1 1_555 1_555
N2 C6 1_555 1_555
N3 N4 1_555 1_555
N4 C8 1_555 1_555
N5 Ni1 1_555 1_555
N6 C16 1_555 1_555
N7 N8 1_555 1_555
N8 C18 1_555 1_555
N9 Ni1 1_555 1_555
N10 Ni2 1_555 1_555
C1 C2 1_555 1_555
C2 C3 1_555 1_555
C3 N3 1_555 1_555
C4 C3 1_555 1_555
C5 N1 1_555 1_555
C6 C7 1_555 1_555
C7 C8 1_555 1_555
C8 C9 1_555 1_555
C9 C10 1_555 1_555
C10 N2 1_555 1_555
C11 N5 1_555 1_555
C12 C11 1_555 1_555
C13 N7 1_555 1_555
C14 C13 1_555 1_555
C15 N5 1_555 1_555
C16 C17 1_555 1_555
C17 C18 1_555 1_555
C18 C19 1_555 1_555
C19 C20 1_555 1_555
C20 N6 1_555 1_555
C21 N9 1_555 1_555
C22 N10 1_555 1_555
C23 H17 1_555 1_555
H1 C1 1_555 1_555
H2 C2 1_555 1_555
H3 C4 1_555 1_555
H4 C5 1_555 1_555
H5 C6 1_555 1_555
H6 C7 1_555 1_555
H7 C9 1_555 1_555
H8 C10 1_555 1_555
H9 C11 1_555 1_555
H10 C12 1_555 1_555
H11 C14 1_555 1_555
H12 C15 1_555 1_555
H13 C16 1_555 1_555
H14 C17 1_555 1_555
H15 C19 1_555 1_555
H16 C20 1_555 1_555
H17 H18E 1_555 1_555
H18 C23 1_555 1_555
H19 O1 1_555 1_555
Ni2A N6 1_555 1_555
Ni2A_2 N2G 1_555 1_555
Ni2_2 N6G 1_555 1_555
S1G C21G 1_555 1_555
S2D C22D 1_555 1_555
O1E C23 1_555 1_555
N1G Ni1 1_555 1_555
N2G C6G 1_555 1_555
N2D Ni2 1_555 1_555
N3G N4G 1_555 1_555
N4G C8G 1_555 1_555
N5G Ni1 1_555 1_555
N6G C16G 1_555 1_555
N6A Ni2 1_555 1_555
N6G_2 Ni2 1_555 1_555
N7G N8G 1_555 1_555
N8G C18G 1_555 1_555
N9G Ni1 1_555 1_555
N10D Ni2 1_555 1_555
C1G N1G 1_555 1_555
C2G C1G 1_555 1_555
C3G N3G 1_555 1_555
C4G C3G 1_555 1_555
C5G N1G 1_555 1_555
C6G C7G 1_555 1_555
C7G C8G 1_555 1_555
C8G C9G 1_555 1_555
C9G C10G 1_555 1_555
C10G N2G 1_555 1_555
C11G N5G 1_555 1_555
C12G C11G 1_555 1_555
C13G N7G 1_555 1_555
C14G C13G 1_555 1_555
C15G N5G 1_555 1_555
C16G C17G 1_555 1_555
C17G C18G 1_555 1_555
C18G C19G 1_555 1_555
C19G C20G 1_555 1_555
C20G N6G 1_555 1_555
C21G N9G 1_555 1_555
C22D N10D 1_555 1_555
H1G C1G 1_555 1_555
H2G C2G 1_555 1_555
H3G C4G 1_555 1_555
H4G C5G 1_555 1_555
H5G C6G 1_555 1_555
H6G C7G 1_555 1_555
H7G C9G 1_555 1_555
H8G C10G 1_555 1_555
H9G C11G 1_555 1_555
H10G C12G 1_555 1_555
H11G C14G 1_555 1_555
H12G C15G 1_555 1_555
H13G C16G 1_555 1_555
H14G C17G 1_555 1_555
H15G C19G 1_555 1_555
H16G C20G 1_555 1_555
H17E C23 1_555 1_555
H18E C23 1_555 1_555
H19E C23 1_555 1_555
C4 C5 1_555 1_555
C12 C13 1_555 1_555
C14 C15 1_555 1_555
C23 H19 1_555 1_555
H18 H17E 1_555 1_555
O1E H19E 1_555 1_555
C2G C3G 1_555 1_555
C4G C5G 1_555 1_555
C12G C13G 1_555 1_555
C14G C15G 1_555 1_555

#END
