
#######################################################################
#
#                 Cambridge Crystallographic Data Centre
#                                CCDC 
#
#######################################################################
#
# If this CIF has been generated from an entry in the Cambridge 
# Structural Database, then it will include bibliographic, chemical, 
# crystal, experimental, refinement or atomic coordinate data resulting 
# from the CCDC's data processing and validation procedures.
#
#######################################################################

data_XETPES
_chemical_formula_moiety         '(C44 H32 N20 Ni2 Se4)n,n(C1 H4 O1)'
_chemical_name_systematic        
'catena-[tetrakis(\m~2~-Azo(4-pyridine))-tetrakis(isoselenocyanato)-di-nickel(ii) methanol clathrate]'
_symmetry_cell_setting           orthorhombic
_symmetry_space_group_name_H-M   'C c c a'
_symmetry_Int_Tables_number      68
_space_group_name_Hall           '-C 2a 2ac'
loop_
_symmetry_equiv_pos_site_id
_symmetry_equiv_pos_as_xyz
1 x,y,z
2 1/2+x,1/2+y,z
3 1/2+x,-y,1/2-z
4 -x,y,1/2-z
5 1/2-x,-y,z
6 x,1/2-y,1/2-z
7 1/2-x,1/2+y,1/2-z
8 -x,1/2-y,z
9 -x,-y,-z
10 1/2-x,1/2-y,-z
11 1/2-x,y,1/2+z
12 x,-y,1/2+z
13 1/2+x,y,-z
14 -x,1/2+y,1/2+z
15 1/2+x,1/2-y,1/2+z
16 x,1/2+y,-z
_cell_length_a                   18.092(3)
_cell_length_b                   31.514(5)
_cell_length_c                   19.150(2)
_cell_angle_alpha                90
_cell_angle_beta                 90
_cell_angle_gamma                90
_cell_volume                     10918.4
_exptl_crystal_colour            red
_exptl_crystal_description       prism
_cell_formula_units_Z            8
loop_
_atom_site_label
_atom_site_type_symbol
_atom_site_fract_x
_atom_site_fract_y
_atom_site_fract_z
Se1 Se 0.21299(2) 0.32289(2) 0.93524(2)
Se2 Se 0.48399(2) 0.078390(10) 0.50106(3)
Ni1 Ni 0.0000 0.2500 1.02922(3)
Ni2 Ni 0.2500 0.0000 0.52902(3)
N1 N 0.04464(16) 0.20947(10) 0.95267(13)
N2 N 0.19870(14) 0.03632(10) 0.60788(13)
N3 N 0.13809(17) 0.12368(11) 0.80998(16)
N4 N 0.09904(17) 0.11379(11) 0.75951(16)
N5 N -0.04447(17) 0.28937(10) 1.10719(14)
N6 N -0.19513(16) 0.46489(10) 1.44967(13)
N7 N -0.13275(18) 0.36302(11) 1.27090(18)
N8 N -0.10611(18) 0.39873(12) 1.27835(18)
N9 N 0.09773(16) 0.28514(10) 1.02468(16)
N10 N 0.33675(16) 0.04205(10) 0.52719(14)
C1 C 0.11439(19) 0.19542(12) 0.95848(18)
C2 C 0.14538(19) 0.16687(12) 0.91210(19)
C3 C 0.1031(2) 0.15240(12) 0.85712(18)
C4 C 0.03017(18) 0.16663(12) 0.85009(18)
C5 C 0.0041(2) 0.19492(11) 0.89872(17)
C6 C 0.2407(2) 0.05621(12) 0.65582(18)
C7 C 0.2117(2) 0.08159(12) 0.70780(19)
C8 C 0.1351(2) 0.08657(12) 0.71031(19)
C9 C 0.0917(2) 0.06639(13) 0.6611(2)
C10 C 0.1257(2) 0.04109(12) 0.61119(19)
C11 C -0.0240(2) 0.33020(12) 1.1132(2)
C12 C -0.0511(2) 0.35690(13) 1.1643(2)
C13 C -0.1014(2) 0.34051(12) 1.2123(2)
C14 C -0.1257(2) 0.29952(12) 1.2055(2)
C15 C -0.0954(2) 0.27444(13) 1.15230(19)
C16 C -0.19714(19) 0.42258(12) 1.45006(19)
C17 C -0.1682(2) 0.39862(12) 1.3955(2)
C18 C -0.1366(2) 0.41969(14) 1.3393(2)
C19 C -0.1316(2) 0.46323(14) 1.3399(2)
C20 C -0.1618(2) 0.48461(13) 1.39596(18)
C21 C 0.14438(19) 0.30012(12) 0.99133(19)
C22 C 0.3941(2) 0.05630(11) 0.51764(18)
H1 H 0.1437 0.2056 0.9961
H2 H 0.1950 0.1576 0.9177
H3 H -0.0003 0.1570 0.8129
H4 H -0.0452 0.2049 0.8942
H5 H 0.2927 0.0525 0.6538
H6 H 0.2429 0.0954 0.7407
H7 H 0.0395 0.0698 0.6614
H8 H 0.0957 0.0267 0.5781
H9 H 0.0107 0.3412 1.0806
H10 H -0.0360 0.3857 1.1668
H11 H -0.1621 0.2884 1.2362
H12 H -0.1117 0.2459 1.1476
H13 H -0.2189 0.4084 1.4887
H14 H -0.1699 0.3685 1.3966
H15 H -0.1078 0.4781 1.3030
H16 H -0.1592 0.5147 1.3966
Se1G Se -0.21299(2) 0.17711(2) 0.93524(2)
Se2D Se 0.01601(2) -0.078390(10) 0.50106(3)
Ni2A Ni -0.2500 0.5000 1.52902(3)
Ni2A_2 Ni -0.2500 0.5000 0.52902(3)
Ni2_2 Ni 0.2500 0.0000 1.52902(3)
N1G N -0.04464(16) 0.29053(10) 0.95267(13)
N2G N -0.19870(14) 0.46368(10) 0.60788(13)
N2D N 0.30130(14) -0.03632(10) 0.60788(13)
N3G N -0.13809(17) 0.37632(11) 0.80998(16)
N4G N -0.09904(17) 0.38621(11) 0.75951(16)
N5G N 0.04447(17) 0.21063(10) 1.10719(14)
N6G N 0.19513(16) 0.03511(10) 1.44967(13)
N6A N 0.30487(16) -0.03511(10) 0.44967(13)
N6G_2 N 0.19513(16) 0.03511(10) 0.44967(13)
N7G N 0.13275(18) 0.13698(11) 1.27090(18)
N8G N 0.10611(18) 0.10127(12) 1.27835(18)
N9G N -0.09773(16) 0.21486(10) 1.02468(16)
N10D N 0.16325(16) -0.04205(10) 0.52719(14)
C1G C -0.11439(19) 0.30458(12) 0.95848(18)
C2G C -0.14538(19) 0.33313(12) 0.91210(19)
C3G C -0.1031(2) 0.34760(12) 0.85712(18)
C4G C -0.03017(18) 0.33337(12) 0.85009(18)
C5G C -0.0041(2) 0.30508(11) 0.89872(17)
C6G C -0.2407(2) 0.44379(12) 0.65582(18)
C7G C -0.2117(2) 0.41841(12) 0.70780(19)
C8G C -0.1351(2) 0.41343(12) 0.71031(19)
C9G C -0.0917(2) 0.43361(13) 0.6611(2)
C10G C -0.1257(2) 0.45891(12) 0.61119(19)
C11G C 0.0240(2) 0.16980(12) 1.1132(2)
C12G C 0.0511(2) 0.14310(13) 1.1643(2)
C13G C 0.1014(2) 0.15949(12) 1.2123(2)
C14G C 0.1257(2) 0.20048(12) 1.2055(2)
C15G C 0.0954(2) 0.22556(13) 1.15230(19)
C16G C 0.19714(19) 0.07742(12) 1.45006(19)
C17G C 0.1682(2) 0.10138(12) 1.3955(2)
C18G C 0.1366(2) 0.08031(14) 1.3393(2)
C19G C 0.1316(2) 0.03677(14) 1.3399(2)
C20G C 0.1618(2) 0.01539(13) 1.39596(18)
C21G C -0.14438(19) 0.19988(12) 0.99133(19)
C22D C 0.1059(2) -0.05630(11) 0.51764(18)
H1G H -0.1437 0.2944 0.9961
H2G H -0.1950 0.3424 0.9177
H3G H 0.0003 0.3430 0.8129
H4G H 0.0452 0.2951 0.8942
H5G H -0.2927 0.4475 0.6538
H6G H -0.2429 0.4046 0.7407
H7G H -0.0395 0.4302 0.6614
H8G H -0.0957 0.4733 0.5781
H9G H -0.0107 0.1588 1.0806
H10G H 0.0360 0.1143 1.1668
H11G H 0.1621 0.2116 1.2362
H12G H 0.1117 0.2541 1.1476
H13G H 0.2189 0.0916 1.4887
H14G H 0.1699 0.1315 1.3966
H15G H 0.1078 0.0219 1.3030
H16G H 0.1592 -0.0147 1.3966
O1? O 0.2307(4) 0.2569(3) 0.6955(5)
C23? C 0.1648(6) 0.250000(10) 0.750000(10)
H17? H 0.1247 0.2362 0.7275
H18? H 0.1490 0.2769 0.7669
H19? H 0.1815 0.2331 0.7880
loop_
_geom_bond_atom_site_label_1
_geom_bond_atom_site_label_2
_geom_bond_site_symmetry_1
_geom_bond_site_symmetry_2
Se1 C21 1_555 1_555
Se2 C22 1_555 1_555
Ni1 N1 1_555 1_555
Ni2 N2 1_555 1_555
N1 C1 1_555 1_555
N2 C6 1_555 1_555
N3 N4 1_555 1_555
N4 C8 1_555 1_555
N5 Ni1 1_555 1_555
N6 C16 1_555 1_555
N7 N8 1_555 1_555
N8 C18 1_555 1_555
N9 Ni1 1_555 1_555
N10 Ni2 1_555 1_555
C1 C2 1_555 1_555
C2 C3 1_555 1_555
C3 N3 1_555 1_555
C4 C3 1_555 1_555
C5 N1 1_555 1_555
C6 C7 1_555 1_555
C7 C8 1_555 1_555
C8 C9 1_555 1_555
C9 C10 1_555 1_555
C10 N2 1_555 1_555
C11 N5 1_555 1_555
C12 C11 1_555 1_555
C13 N7 1_555 1_555
C14 C13 1_555 1_555
C15 N5 1_555 1_555
C16 C17 1_555 1_555
C17 C18 1_555 1_555
C18 C19 1_555 1_555
C19 C20 1_555 1_555
C20 N6 1_555 1_555
C21 N9 1_555 1_555
C22 N10 1_555 1_555
H1 C1 1_555 1_555
H2 C2 1_555 1_555
H3 C4 1_555 1_555
H4 C5 1_555 1_555
H5 C6 1_555 1_555
H6 C7 1_555 1_555
H7 C9 1_555 1_555
H8 C10 1_555 1_555
H9 C11 1_555 1_555
H10 C12 1_555 1_555
H11 C14 1_555 1_555
H12 C15 1_555 1_555
H13 C16 1_555 1_555
H14 C17 1_555 1_555
H15 C19 1_555 1_555
H16 C20 1_555 1_555
Se1G C21G 1_555 1_555
Se2D C22D 1_555 1_555
Ni2A N6 1_555 1_555
Ni2A_2 N2G 1_555 1_555
Ni2_2 N6G 1_555 1_555
N1G Ni1 1_555 1_555
N2G C6G 1_555 1_555
N2D Ni2 1_555 1_555
N3G N4G 1_555 1_555
N4G C8G 1_555 1_555
N5G Ni1 1_555 1_555
N6G C16G 1_555 1_555
N6A Ni2 1_555 1_555
N6G_2 Ni2 1_555 1_555
N7G N8G 1_555 1_555
N8G C18G 1_555 1_555
N9G Ni1 1_555 1_555
N10D Ni2 1_555 1_555
C1G N1G 1_555 1_555
C2G C1G 1_555 1_555
C3G N3G 1_555 1_555
C4G C3G 1_555 1_555
C5G N1G 1_555 1_555
C6G C7G 1_555 1_555
C7G C8G 1_555 1_555
C8G C9G 1_555 1_555
C9G C10G 1_555 1_555
C10G N2G 1_555 1_555
C11G N5G 1_555 1_555
C12G C11G 1_555 1_555
C13G N7G 1_555 1_555
C14G C13G 1_555 1_555
C15G N5G 1_555 1_555
C16G C17G 1_555 1_555
C17G C18G 1_555 1_555
C18G C19G 1_555 1_555
C19G C20G 1_555 1_555
C20G N6G 1_555 1_555
C21G N9G 1_555 1_555
C22D N10D 1_555 1_555
H1G C1G 1_555 1_555
H2G C2G 1_555 1_555
H3G C4G 1_555 1_555
H4G C5G 1_555 1_555
H5G C6G 1_555 1_555
H6G C7G 1_555 1_555
H7G C9G 1_555 1_555
H8G C10G 1_555 1_555
H9G C11G 1_555 1_555
H10G C12G 1_555 1_555
H11G C14G 1_555 1_555
H12G C15G 1_555 1_555
H13G C16G 1_555 1_555
H14G C17G 1_555 1_555
H15G C19G 1_555 1_555
H16G C20G 1_555 1_555
C4 C5 1_555 1_555
C12 C13 1_555 1_555
C14 C15 1_555 1_555
C2G C3G 1_555 1_555
C4G C5G 1_555 1_555
C12G C13G 1_555 1_555
C14G C15G 1_555 1_555

#END
