
#######################################################################
#
#                 Cambridge Crystallographic Data Centre
#                                CCDC 
#
#######################################################################
#
# If this CIF has been generated from an entry in the Cambridge 
# Structural Database, then it will include bibliographic, chemical, 
# crystal, experimental, refinement or atomic coordinate data resulting 
# from the CCDC's data processing and validation procedures.
#
#######################################################################

data_WUHJIT
_chemical_formula_moiety         '(C30 H22 Mg3 O16)n'
_chemical_name_systematic        
catena-(bis(\m~2~-Biphenyl-3,4',5-tricarboxylato)-tetraaqua-tri-magnesium(ii))
_symmetry_cell_setting           rhombohedral
_symmetry_space_group_name_H-M   'R -3'
_symmetry_Int_Tables_number      148
_space_group_name_Hall           '-R 3'
loop_
_symmetry_equiv_pos_site_id
_symmetry_equiv_pos_as_xyz
1 x,y,z
2 -y,x-y,z
3 -x+y,-x,z
4 2/3+x,1/3+y,1/3+z
5 2/3-y,1/3+x-y,1/3+z
6 2/3-x+y,1/3-x,1/3+z
7 1/3+x,2/3+y,2/3+z
8 1/3-y,2/3+x-y,2/3+z
9 1/3-x+y,2/3-x,2/3+z
10 -x,-y,-z
11 y,-x+y,-z
12 x-y,x,-z
13 1/3-x,2/3-y,2/3-z
14 1/3+y,2/3-x+y,2/3-z
15 1/3+x-y,2/3+x,2/3-z
16 2/3-x,1/3-y,1/3-z
17 2/3+y,1/3-x+y,1/3-z
18 2/3+x-y,1/3+x,1/3-z
_cell_length_a                   31.642(5)
_cell_length_b                   31.642(5)
_cell_length_c                   14.873(3)
_cell_angle_alpha                90
_cell_angle_beta                 90
_cell_angle_gamma                120
_cell_volume                     12896.1
_exptl_crystal_colour            colorless
_exptl_crystal_description       block
_cell_formula_units_Z            9
loop_
_atom_site_label
_atom_site_type_symbol
_atom_site_fract_x
_atom_site_fract_y
_atom_site_fract_z
_atom_site_U_iso_or_equiv
_atom_site_thermal_displace_type
Mg1 Mg 0.5000 0.5000 1.0000 0.0196 Uani
Mg2 Mg 0.54448(2) 0.41473(2) 1.03098(4) 0.0257 Uani
O1 O 0.56267(4) 0.49149(4) 1.01819(7) 0.0233 Uani
O2 O 0.60781(5) 0.46280(5) 0.96320(10) 0.0385 Uani
O3 O 0.77839(4) 0.64168(4) 0.76348(8) 0.0260 Uani
O4 O 0.73345(6) 0.56035(5) 0.74988(11) 0.0555 Uani
O5 O 0.68052(5) 0.79802(4) 1.22992(8) 0.0298 Uani
O6 O 0.75904(6) 0.82035(7) 1.22642(13) 0.0692 Uani
O7 O 0.58534(9) 0.42845(9) 1.14515(12) 0.0796 Uani
O8 O 0.54557(10) 0.35121(8) 1.01447(16) 0.0853 Uani
C1 C 0.63977(6) 0.54776(6) 0.95052(11) 0.0241 Uani
C2 C 0.67296(6) 0.55214(6) 0.88524(12) 0.0244 Uani
C3 C 0.71072(6) 0.59762(6) 0.86008(11) 0.0244 Uani
C4 C 0.71626(6) 0.63874(6) 0.90391(12) 0.0270 Uani
C5 C 0.68340(6) 0.63478(6) 0.97061(12) 0.0269 Uani
C6 C 0.64405(6) 0.58907(6) 0.99133(12) 0.0260 Uani
C7 C 0.60057(6) 0.49791(6) 0.97755(11) 0.0248 Uani
C8 C 0.74388(6) 0.60067(7) 0.78486(12) 0.0273 Uani
C9 C 0.69127(7) 0.67822(6) 1.02269(13) 0.0310 Uani
C10 C 0.73747(8) 0.71161(9) 1.0512(2) 0.0589 Uani
C11 C 0.74500(8) 0.74911(9) 1.1084(2) 0.0578 Uani
C12 C 0.70653(7) 0.75439(7) 1.13766(13) 0.0328 Uani
C13 C 0.66066(7) 0.72220(7) 1.10635(13) 0.0310 Uani
C14 C 0.65292(7) 0.68448(7) 1.04895(13) 0.0315 Uani
C15 C 0.71549(7) 0.79410(7) 1.20337(13) 0.0334 Uani
H1 H 0.6668(11) 0.5239(11) 0.859(2) 0.0800 Uiso
H2 H 0.7447(10) 0.6718(11) 0.8840(18) 0.0800 Uiso
H3 H 0.6193(11) 0.5834(10) 1.0318(19) 0.0800 Uiso
H4 H 0.5841(10) 0.4424(10) 1.208(2) 0.0800 Uiso
H5 H 0.6064(10) 0.4133(10) 1.186(2) 0.0800 Uiso
H6 H 0.5506(11) 0.3297(11) 0.967(2) 0.0800 Uiso
H7 H 0.5061(11) 0.3196(11) 1.004(2) 0.0800 Uiso
H8 H 0.7605(11) 0.7109(11) 1.0218(19) 0.0800 Uiso
H9 H 0.7709(11) 0.7644(11) 1.134(2) 0.0800 Uiso
H10 H 0.6324(11) 0.7244(10) 1.1285(19) 0.0800 Uiso
H11 H 0.6311(11) 0.6698(11) 1.029(2) 0.0800 Uiso
Mg1G Mg 0.8333 0.6667 0.6667 0.0196 Uani
Mg1E Mg 0.6667 0.8333 1.3333 0.0196 Uani
Mg1D Mg 0.1667 0.3333 1.3333 0.0196 Uani
Mg1H Mg 0.3333 0.1667 0.6667 0.0196 Uani
Mg2I Mg 0.45552(2) 0.58527(2) 0.96902(4) 0.0257 Uani
Mg2M Mg 0.74806(2) 0.53692(3) 0.63569(4) 0.0257 Uani
Mg2Q Mg 0.79642(3) 0.87781(2) 1.30235(4) 0.0257 Uani
Mg2D Mg 0.25194(2) 0.46308(3) 1.36431(4) 0.0257 Uani
Mg2H Mg 0.20358(3) 0.12219(2) 0.69765(4) 0.0257 Uani
O1I O 0.43733(4) 0.50851(4) 0.98181(7) 0.0233 Uani
O2I O 0.39219(5) 0.53720(5) 1.03680(10) 0.0385 Uani
O3I O 0.22161(4) 0.35832(4) 1.23652(8) 0.0260 Uani
O3E O 0.52996(6) 0.55494(4) 1.09681(8) 0.0260 Uani
O3N O 0.47004(6) 0.44506(4) 0.90319(8) 0.0260 Uani
O4I O 0.26655(6) 0.43965(5) 1.25012(11) 0.0555 Uani
O4N O 0.50643(8) 0.40012(6) 0.91679(11) 0.0555 Uani
O4E O 0.49357(8) 0.59988(6) 1.08321(11) 0.0555 Uani
O5I O 0.31948(5) 0.20198(4) 0.77008(8) 0.0298 Uani
O5G O 0.53531(4) 0.54917(6) 0.89659(8) 0.0298 Uani
O5P O 0.46469(4) 0.45083(6) 1.10341(8) 0.0298 Uani
O6I O 0.24096(6) 0.17965(7) 0.77358(13) 0.0692 Uani
O6P O 0.48702(7) 0.39464(9) 1.10691(13) 0.0692 Uani
O6G O 0.51298(7) 0.60536(9) 0.89309(13) 0.0692 Uani
O7I O 0.41466(9) 0.57155(9) 0.85485(12) 0.0796 Uani
O8I O 0.45443(10) 0.64879(8) 0.98553(16) 0.0853 Uani
C1I C 0.36023(6) 0.45224(6) 1.04948(11) 0.0241 Uani
C2I C 0.32704(6) 0.44786(6) 1.11476(12) 0.0244 Uani
C3I C 0.28928(6) 0.40238(6) 1.13992(11) 0.0244 Uani
C4I C 0.28374(6) 0.36126(6) 1.09609(12) 0.0270 Uani
C5I C 0.31660(6) 0.36522(6) 1.02939(12) 0.0269 Uani
C6I C 0.35595(6) 0.41093(6) 1.00867(12) 0.0260 Uani
C7I C 0.39943(6) 0.50209(6) 1.02245(11) 0.0248 Uani
C8I C 0.25612(6) 0.39933(7) 1.21514(12) 0.0273 Uani
C9I C 0.30873(7) 0.32178(6) 0.97731(13) 0.0310 Uani
C10I C 0.26253(8) 0.28839(9) 0.9488(2) 0.0589 Uani
C11I C 0.25500(8) 0.25089(9) 0.8916(2) 0.0578 Uani
C12I C 0.29347(7) 0.24561(7) 0.86234(13) 0.0328 Uani
C13I C 0.33934(7) 0.27780(7) 0.89365(13) 0.0310 Uani
C14I C 0.34708(7) 0.31552(7) 0.95105(13) 0.0315 Uani
C15I C 0.28451(7) 0.20590(7) 0.79663(13) 0.0334 Uani
H1I H 0.3332(11) 0.4761(11) 1.141(2) 0.0800 Uiso
H2I H 0.2553(10) 0.3282(11) 1.1160(18) 0.0800 Uiso
H3I H 0.3807(11) 0.4166(10) 0.9682(19) 0.0800 Uiso
H4I H 0.4159(10) 0.5576(10) 0.792(2) 0.0800 Uiso
H5I H 0.3936(10) 0.5867(10) 0.814(2) 0.0800 Uiso
H6I H 0.4494(11) 0.6703(11) 1.033(2) 0.0800 Uiso
H7I H 0.4939(11) 0.6804(11) 0.996(2) 0.0800 Uiso
H8I H 0.2395(11) 0.2891(11) 0.9782(19) 0.0800 Uiso
H9I H 0.2291(11) 0.2356(11) 0.866(2) 0.0800 Uiso
H10I H 0.3676(11) 0.2756(10) 0.8715(19) 0.0800 Uiso
H11I H 0.3689(11) 0.3302(11) 0.971(2) 0.0800 Uiso
loop_
_atom_site_aniso_label
_atom_site_aniso_U_11
_atom_site_aniso_U_22
_atom_site_aniso_U_33
_atom_site_aniso_U_23
_atom_site_aniso_U_13
_atom_site_aniso_U_12
Mg1 0.0199(4) 0.0168(4) 0.0179(4) -0.0015(3) 0.0002(3) 0.0060(3)
Mg2 0.0245(3) 0.0244(3) 0.0274(3) 0.0035(2) 0.0015(2) 0.0117(3)
O1 0.0183(6) 0.0248(6) 0.0218(6) -0.0023(5) 0.0000(5) 0.0070(5)
O2 0.0327(7) 0.0267(7) 0.0566(9) 0.0039(6) 0.0115(6) 0.0152(6)
O3 0.0224(6) 0.0289(7) 0.0261(6) 0.0044(5) 0.0075(5) 0.0124(5)
O4 0.0585(10) 0.0372(9) 0.0631(10) -0.0007(7) 0.0418(8) 0.0181(8)
O5 0.0402(8) 0.0299(7) 0.0257(6) -0.0048(5) -0.0009(5) 0.0224(6)
O6 0.0426(9) 0.0691(12) 0.1014(14) -0.0597(11) -0.0229(10) 0.0321(9)
O7 0.1149(18) 0.1196(18) 0.0392(10) -0.0046(10) -0.0236(10) 0.0848(16)
O8 0.138(2) 0.0506(11) 0.0874(15) 0.0199(11) 0.0328(14) 0.0622(14)
C1 0.0229(9) 0.0203(8) 0.0261(8) -0.0007(7) 0.0018(7) 0.0086(7)
C2 0.0221(9) 0.0226(9) 0.0267(9) -0.0050(7) 0.0015(7) 0.0099(7)
C3 0.0227(9) 0.0241(9) 0.0266(9) -0.0003(7) 0.0059(7) 0.0118(7)
C4 0.0217(9) 0.0224(9) 0.0322(9) -0.0018(7) 0.0068(7) 0.0076(7)
C5 0.0217(9) 0.0255(9) 0.0296(9) -0.0043(7) 0.0066(7) 0.0088(7)
C6 0.0216(9) 0.0274(9) 0.0252(9) -0.0032(7) 0.0051(7) 0.0094(8)
C7 0.0211(9) 0.0234(9) 0.0276(9) 0.0002(7) 0.0005(7) 0.0095(7)
C8 0.0271(9) 0.0301(10) 0.0261(9) 0.0016(7) 0.0083(7) 0.0154(8)
C9 0.0274(10) 0.0238(9) 0.0372(10) -0.0055(8) 0.0092(8) 0.0094(8)
C10 0.0248(11) 0.0517(14) 0.095(2) -0.0422(14) 0.0048(12) 0.0152(10)
C11 0.0261(11) 0.0437(14) 0.096(2) -0.0376(13) -0.0035(12) 0.0118(10)
C12 0.0336(10) 0.0296(10) 0.0372(10) -0.0110(8) 0.0011(8) 0.0173(9)
C13 0.0322(10) 0.0337(10) 0.0308(10) -0.0067(8) 0.0030(8) 0.0193(9)
C14 0.0249(10) 0.0326(11) 0.0321(10) -0.0094(8) 0.0024(8) 0.0106(8)
C15 0.0371(11) 0.0331(10) 0.0350(10) -0.0105(8) -0.0028(8) 0.0214(9)
Mg1G 0.0168 0.0247 0.0179 0.0017 0.0015 0.0108
Mg1E 0.0247 0.0199 0.0179 -0.0002 -0.0017 0.0139
Mg1D 0.0168 0.0247 0.0179 0.0017 0.0015 0.0108
Mg1H 0.0247 0.0199 0.0179 -0.0002 -0.0017 0.0139
Mg2I 0.0245 0.0244 0.0274 0.0035 0.0015 0.0117
Mg2M 0.0244 0.0255 0.0274 -0.002 -0.0035 0.0127
Mg2Q 0.0255 0.0245 0.0274 -0.0015 0.002 0.0128
Mg2D 0.0244 0.0255 0.0274 -0.002 -0.0035 0.0127
Mg2H 0.0255 0.0245 0.0274 -0.0015 0.002 0.0128
O1I 0.0183 0.0248 0.0218 -0.0023 0 0.007
O2I 0.0327 0.0267 0.0566 0.0039 0.0115 0.0152
O3I 0.0224 0.0289 0.0261 0.0044 0.0075 0.0124
O3E 0.0265 0.0224 0.0261 -0.0075 -0.0031 0.01
O3N 0.0265 0.0224 0.0261 -0.0075 -0.0031 0.01
O4I 0.0585 0.0372 0.0631 -0.0007 0.0418 0.0181
O4N 0.0595 0.0585 0.0631 -0.0418 -0.0425 0.0404
O4E 0.0595 0.0585 0.0631 -0.0418 -0.0425 0.0404
O5I 0.0402 0.0299 0.0257 -0.0048 -0.0009 0.0224
O5G 0.0299 0.0253 0.0257 0.0039 0.0048 0.0075
O5P 0.0299 0.0253 0.0257 0.0039 0.0048 0.0075
O6I 0.0426 0.0691 0.1014 -0.0597 -0.0229 0.0321
O6P 0.0691 0.0475 0.1014 0.0368 0.0597 0.037
O6G 0.0691 0.0475 0.1014 0.0368 0.0597 0.037
O7I 0.1149 0.1196 0.0392 -0.0046 -0.0236 0.0848
O8I 0.138 0.0506 0.0874 0.0199 0.0328 0.0622
C1I 0.0229 0.0203 0.0261 -0.0007 0.0018 0.0086
C2I 0.0221 0.0226 0.0267 -0.005 0.0015 0.0099
C3I 0.0227 0.0241 0.0266 -0.0003 0.0059 0.0118
C4I 0.0217 0.0224 0.0322 -0.0018 0.0068 0.0076
C5I 0.0217 0.0255 0.0296 -0.0043 0.0066 0.0088
C6I 0.0216 0.0274 0.0252 -0.0032 0.0051 0.0094
C7I 0.0211 0.0234 0.0276 0.0002 0.0005 0.0095
C8I 0.0271 0.0301 0.0261 0.0016 0.0083 0.0154
C9I 0.0274 0.0238 0.0372 -0.0055 0.0092 0.0094
C10I 0.0248 0.0517 0.095 -0.0422 0.0048 0.0152
C11I 0.0261 0.0437 0.096 -0.0376 -0.0035 0.0118
C12I 0.0336 0.0296 0.0372 -0.011 0.0011 0.0173
C13I 0.0322 0.0337 0.0308 -0.0067 0.003 0.0193
C14I 0.0249 0.0326 0.0321 -0.0094 0.0024 0.0106
C15I 0.0371 0.0331 0.035 -0.0105 -0.0028 0.0214
loop_
_geom_bond_atom_site_label_1
_geom_bond_atom_site_label_2
_geom_bond_site_symmetry_1
_geom_bond_site_symmetry_2
Mg1 O1 1_555 1_555
Mg2 O1 1_555 1_555
O1 C7 1_555 1_555
O2 Mg2 1_555 1_555
O3 C8 1_555 1_555
O4 C8 1_555 1_555
O5 C15 1_555 1_555
O6 C15 1_555 1_555
O7 Mg2 1_555 1_555
O8 Mg2 1_555 1_555
C1 C2 1_555 1_555
C2 C3 1_555 1_555
C3 C4 1_555 1_555
C4 C5 1_555 1_555
C5 C6 1_555 1_555
C6 C1 1_555 1_555
C7 O2 1_555 1_555
C8 C3 1_555 1_555
C9 C5 1_555 1_555
C10 C9 1_555 1_555
C11 C10 1_555 1_555
C12 C11 1_555 1_555
C13 C12 1_555 1_555
C14 C9 1_555 1_555
C15 C12 1_555 1_555
H1 C2 1_555 1_555
H2 C4 1_555 1_555
H3 C6 1_555 1_555
H4 O7 1_555 1_555
H5 O7 1_555 1_555
H6 O8 1_555 1_555
H7 O8 1_555 1_555
H8 C10 1_555 1_555
H9 C11 1_555 1_555
H10 C13 1_555 1_555
H11 C14 1_555 1_555
Mg1G O3 1_555 1_555
Mg1E O5 1_555 1_555
Mg1D O3I 1_555 1_555
Mg1H O5I 1_555 1_555
Mg2I O1I 1_555 1_555
Mg2M O4 1_555 1_555
Mg2Q O6 1_555 1_555
Mg2D O4I 1_555 1_555
Mg2H O6I 1_555 1_555
O1I Mg1 1_555 1_555
O2I Mg2I 1_555 1_555
O3I C8I 1_555 1_555
O3E Mg1 1_555 1_555
O3N Mg1 1_555 1_555
O4I C8I 1_555 1_555
O4N Mg2 1_555 1_555
O4E Mg2I 1_555 1_555
O5I C15I 1_555 1_555
O5G Mg1 1_555 1_555
O5P Mg1 1_555 1_555
O6I C15I 1_555 1_555
O6P Mg2 1_555 1_555
O6G Mg2I 1_555 1_555
O7I Mg2I 1_555 1_555
O8I Mg2I 1_555 1_555
C1I C2I 1_555 1_555
C2I C3I 1_555 1_555
C3I C4I 1_555 1_555
C4I C5I 1_555 1_555
C5I C6I 1_555 1_555
C6I C1I 1_555 1_555
C7I O1I 1_555 1_555
C8I C3I 1_555 1_555
C9I C5I 1_555 1_555
C10I C9I 1_555 1_555
C11I C10I 1_555 1_555
C12I C11I 1_555 1_555
C13I C12I 1_555 1_555
C14I C9I 1_555 1_555
C15I C12I 1_555 1_555
H1I C2I 1_555 1_555
H2I C4I 1_555 1_555
H3I C6I 1_555 1_555
H4I O7I 1_555 1_555
H5I O7I 1_555 1_555
H6I O8I 1_555 1_555
H7I O8I 1_555 1_555
H8I C10I 1_555 1_555
H9I C11I 1_555 1_555
H10I C13I 1_555 1_555
H11I C14I 1_555 1_555
C1 C7 1_555 1_555
C13 C14 1_555 1_555
O2I C7I 1_555 1_555
C1I C7I 1_555 1_555
C13I C14I 1_555 1_555

#END
