
#######################################################################
#
#                 Cambridge Crystallographic Data Centre
#                                CCDC 
#
#######################################################################
#
# If this CIF has been generated from an entry in the Cambridge 
# Structural Database, then it will include bibliographic, chemical, 
# crystal, experimental, refinement or atomic coordinate data resulting 
# from the CCDC's data processing and validation procedures.
#
#######################################################################

data_CEZFIY
_chemical_formula_moiety         '(C34 H20 N4 O8 Zn1)n,2n(C3 H7 N1 O1)'
_chemical_name_systematic        
'catena-[(\m~2~-2,6-Bis(pyridin-4-ylmethyl)pyrrolo[3,4-f]isoindole-1,3,5,7(2H,6H)-tetrone)-(\m~2~-naphthalene-2,6-dicarboxylato)-zinc N,N-dimethylformamide solvate]'
_symmetry_cell_setting           orthorhombic
_symmetry_space_group_name_H-M   'P b c n'
_symmetry_Int_Tables_number      60
_space_group_name_Hall           '-P 2n 2ab'
loop_
_symmetry_equiv_pos_site_id
_symmetry_equiv_pos_as_xyz
1 x,y,z
2 1/2-x,1/2-y,1/2+z
3 -x,y,1/2-z
4 1/2+x,1/2-y,-z
5 -x,-y,-z
6 1/2+x,1/2+y,1/2-z
7 x,-y,1/2+z
8 1/2-x,1/2+y,z
_cell_length_a                   25.91510(10)
_cell_length_b                   14.17440(10)
_cell_length_c                   20.60420(10)
_cell_angle_alpha                90
_cell_angle_beta                 90
_cell_angle_gamma                90
_cell_volume                     7568.56
_exptl_crystal_colour            'pale yellow'
_exptl_crystal_description       prism
_cell_formula_units_Z            8
loop_
_atom_site_label
_atom_site_type_symbol
_atom_site_fract_x
_atom_site_fract_y
_atom_site_fract_z
_atom_site_U_iso_or_equiv
_atom_site_thermal_displace_type
Zn1 Zn 0.099600(11) 0.24154(2) 0.376918(14) 0.0284 Uani
O1 O -0.13568(6) 0.49960(14) 0.48481(8) 0.0418 Uani
O2 O -0.36654(6) 0.45302(13) 0.49236(8) 0.0410 Uani
O3 O -0.37136(7) 0.45619(14) 0.27048(9) 0.0457 Uani
O4 O -0.14181(7) 0.52841(15) 0.26419(9) 0.0466 Uani
O5 O 0.14542(7) 0.22789(14) 0.30385(9) 0.0449 Uani
O6 O 0.08019(7) 0.22015(15) 0.23403(9) 0.0481 Uani
O7 O 0.41309(7) 0.23398(12) 0.01706(9) 0.0373 Uani
O8 O 0.34956(6) 0.23793(12) -0.05611(9) 0.0398 Uani
N1 N 0.04694(7) 0.34699(14) 0.37243(8) 0.0296 Uani
N2 N -0.12543(7) 0.51816(14) 0.37408(9) 0.0330 Uani
N3 N -0.38233(7) 0.45153(14) 0.38181(9) 0.0329 Uani
N4 N -0.55200(7) 0.62870(13) 0.38463(8) 0.0288 Uani
C1 C 0.05099(8) 0.42467(17) 0.40894(11) 0.0356 Uani
H1 H 0.0812 0.4335 0.4343 0.0430 Uiso
C2 C 0.01272(8) 0.49246(17) 0.41112(11) 0.0357 Uani
H2 H 0.0169 0.5470 0.4374 0.0430 Uiso
C3 C -0.03172(8) 0.48074(17) 0.37487(10) 0.0310 Uani
C4 C -0.03587(8) 0.39954(17) 0.33727(11) 0.0360 Uani
H3 H -0.0658 0.3888 0.3118 0.0430 Uiso
C5 C 0.00374(8) 0.33485(17) 0.33727(11) 0.0342 Uani
H4 H 0.0004 0.2796 0.3115 0.0410 Uiso
C6 C -0.07289(8) 0.55567(18) 0.37452(12) 0.0373 Uani
H5 H -0.0685 0.5960 0.4133 0.0450 Uiso
H6 H -0.0681 0.5960 0.3358 0.0450 Uiso
C7 C -0.15353(8) 0.50222(16) 0.43067(11) 0.0314 Uani
C8 C -0.20828(8) 0.48986(15) 0.41001(10) 0.0286 Uani
C9 C -0.25200(8) 0.47823(15) 0.44764(11) 0.0305 Uani
H7 H -0.2508 0.4744 0.4936 0.0370 Uiso
C10 C -0.29762(8) 0.47261(14) 0.41301(10) 0.0285 Uani
C11 C -0.35127(8) 0.45829(15) 0.43707(11) 0.0320 Uani
C12 C -0.35402(8) 0.46137(16) 0.32479(11) 0.0337 Uani
C13 C -0.29925(8) 0.47649(15) 0.34516(10) 0.0295 Uani
C14 C -0.25563(8) 0.48841(16) 0.30744(11) 0.0320 Uani
H8 H -0.2568 0.4911 0.2614 0.0380 Uiso
C15 C -0.21011(8) 0.49606(15) 0.34232(10) 0.0290 Uani
C16 C -0.15659(8) 0.51554(16) 0.31884(11) 0.0333 Uani
C17 C -0.43490(9) 0.41491(17) 0.38305(13) 0.0382 Uani
H9 H -0.4391 0.3746 0.4219 0.0460 Uiso
H10 H -0.4403 0.3747 0.3444 0.0460 Uiso
C18 C -0.47587(8) 0.49091(16) 0.38410(10) 0.0306 Uani
C19 C -0.51672(9) 0.48738(17) 0.34053(12) 0.0364 Uani
H11 H -0.5192 0.4374 0.3100 0.0440 Uiso
C20 C -0.55381(8) 0.55774(17) 0.34221(11) 0.0349 Uani
H12 H -0.5815 0.5553 0.3121 0.0420 Uiso
C21 C -0.51366(8) 0.63012(17) 0.42800(11) 0.0358 Uani
H13 H -0.5130 0.6790 0.4595 0.0430 Uiso
C22 C -0.47497(8) 0.56328(18) 0.42876(11) 0.0377 Uani
H14 H -0.4479 0.5671 0.4598 0.0450 Uiso
C23 C 0.12603(10) 0.22489(17) 0.24650(12) 0.0381 Uani
C24 C 0.16498(10) 0.22686(17) 0.19198(13) 0.0385 Uani
C25 C 0.21633(10) 0.23456(16) 0.20600(12) 0.0370 Uani
H15 H 0.2269 0.2401 0.2500 0.0440 Uiso
C26 C 0.25447(10) 0.23453(15) 0.15596(12) 0.0342 Uani
C27 C 0.30737(9) 0.23915(16) 0.17062(13) 0.0360 Uani
H16 H 0.3183 0.2432 0.2145 0.0430 Uiso
C28 C 0.34329(11) 0.23778(16) 0.12148(12) 0.0356 Uani
H17 H 0.3790 0.2401 0.1315 0.0430 Uiso
C29 C 0.32685(9) 0.23284(15) 0.05521(13) 0.0360 Uani
C30 C 0.27550(10) 0.22785(17) 0.04068(13) 0.0383 Uani
H18 H 0.2649 0.2242 -0.0034 0.0460 Uiso
C31 C 0.23736(9) 0.22802(16) 0.09104(12) 0.0353 Uani
C32 C 0.18416(9) 0.22105(19) 0.07646(12) 0.0406 Uani
H19 H 0.1731 0.2165 0.0326 0.0490 Uiso
C33 C 0.14837(10) 0.2208(2) 0.12604(12) 0.0413 Uani
H20 H 0.1126 0.2166 0.1163 0.0490 Uiso
C34 C 0.36725(10) 0.23477(15) 0.00238(12) 0.0348 Uani
Zn1A Zn 0.400400(11) 0.25846(2) -0.123082(14) 0.0284 Uani
Zn1G Zn -0.599600(11) 0.74154(2) 0.376918(14) 0.0284 Uani
O8A O 0.15044(6) 0.26207(12) 0.44389(9) 0.0398 Uani
N4G N 0.05200(7) 0.12870(13) 0.38463(8) 0.0288 Uani
O9 O -0.00790(13) 0.7349(2) 0.32901(18) 0.0917 Uani
N5 N 0.07213(13) 0.7104(2) 0.37520(14) 0.0657 Uani
C35 C 0.03772(18) 0.7061(3) 0.3262(2) 0.0803 Uani
H21 H 0.0490 0.6792 0.2864 0.0960 Uiso
C36 C 0.12287(18) 0.6668(4) 0.3697(3) 0.1020 Uani
H22 H 0.1253 0.6328 0.3284 0.1530 Uiso
H23 H 0.1279 0.6226 0.4057 0.1530 Uiso
H24 H 0.1495 0.7158 0.3713 0.1530 Uiso
C37 C 0.0581(3) 0.7547(4) 0.4345(2) 0.1063 Uani
H25 H 0.0205 0.7536 0.4393 0.1600 Uiso
H26 H 0.0702 0.8202 0.4343 0.1600 Uiso
H27 H 0.0739 0.7208 0.4709 0.1600 Uiso
O10 O -0.30644(16) 0.3557(4) 0.0986(2) 0.1367 Uani
N6 N -0.26021(11) 0.4849(2) 0.12460(11) 0.0578 Uani
C38 C -0.30377(17) 0.4414(5) 0.1117(2) 0.0907 Uani
H28 H -0.3348 0.4770 0.1124 0.1090 Uiso
C39 C -0.21234(14) 0.4372(3) 0.12576(16) 0.0609 Uani
H29 H -0.2184 0.3690 0.1281 0.0910 Uiso
H30 H -0.1925 0.4574 0.1638 0.0910 Uiso
H31 H -0.1930 0.4519 0.0862 0.0910 Uiso
C40 C -0.2590(2) 0.5869(3) 0.13126(19) 0.0950 Uani
H32 H -0.2393 0.6142 0.0953 0.1430 Uiso
H33 H -0.2426 0.6037 0.1725 0.1430 Uiso
H34 H -0.2944 0.6115 0.1305 0.1430 Uiso
loop_
_atom_site_aniso_label
_atom_site_aniso_U_11
_atom_site_aniso_U_22
_atom_site_aniso_U_33
_atom_site_aniso_U_23
_atom_site_aniso_U_13
_atom_site_aniso_U_12
Zn1 0.01620(19) 0.0345(2) 0.0344(2) 0.00285(11) -0.00050(9) -0.00099(10)
O1 0.0317(8) 0.0513(10) 0.0423(9) -0.0029(8) -0.0100(7) -0.0023(8)
O2 0.0313(8) 0.0468(10) 0.0448(9) 0.0004(7) 0.0059(7) -0.0018(7)
O3 0.0310(8) 0.0604(11) 0.0458(9) 0.0025(8) -0.0137(7) 0.0036(8)
O4 0.0334(9) 0.0639(12) 0.0424(9) 0.0025(8) 0.0064(7) -0.0006(8)
O5 0.0268(8) 0.0601(11) 0.0477(10) 0.0027(8) 0.0106(7) 0.0027(7)
O6 0.0309(9) 0.0683(12) 0.0452(10) 0.0172(9) 0.0092(7) 0.0127(8)
O7 0.0289(8) 0.0393(9) 0.0436(9) 0.0001(7) 0.0114(7) -0.0005(6)
O8 0.0265(8) 0.0440(9) 0.0488(10) -0.0044(7) 0.0116(7) -0.0043(6)
N1 0.0201(8) 0.0359(10) 0.0329(9) 0.0020(7) -0.0031(6) 0.0009(7)
N2 0.0200(9) 0.0348(10) 0.0441(11) -0.0030(7) -0.0014(6) 0.0015(7)
N3 0.0185(8) 0.0334(10) 0.0469(11) -0.0008(8) -0.0034(7) 0.0038(7)
N4 0.0199(8) 0.0344(9) 0.0322(8) 0.0014(7) -0.0006(6) 0.0034(7)
C1 0.0256(10) 0.0366(11) 0.0447(12) -0.0014(9) -0.0108(9) -0.0019(8)
C2 0.0295(10) 0.0350(11) 0.0425(12) -0.0044(9) -0.0069(9) -0.0015(9)
C3 0.0222(10) 0.0345(11) 0.0363(11) 0.0002(8) 0.0007(7) -0.0013(9)
C4 0.0239(10) 0.0421(12) 0.0421(12) -0.0079(9) -0.0087(8) 0.0026(9)
C5 0.0256(10) 0.0411(12) 0.0359(10) -0.0074(9) -0.0064(8) 0.0032(9)
C6 0.0187(10) 0.0347(12) 0.0584(14) -0.0052(10) 0.0002(9) -0.0009(9)
C7 0.0247(10) 0.0313(10) 0.0382(11) -0.0039(8) -0.0051(8) 0.0014(8)
C8 0.0235(9) 0.0272(10) 0.0350(10) -0.0008(8) -0.0044(8) 0.0023(7)
C9 0.0269(10) 0.0323(10) 0.0323(10) -0.0009(8) -0.0027(8) 0.0011(8)
C10 0.0230(9) 0.0273(10) 0.0353(10) -0.0002(8) 0.0016(8) 0.0032(7)
C11 0.0238(9) 0.0294(10) 0.0427(12) -0.0014(9) 0.0000(8) 0.0024(8)
C12 0.0251(10) 0.0331(11) 0.0428(12) 0.0014(9) -0.0056(8) 0.0056(8)
C13 0.0242(10) 0.0278(10) 0.0364(11) -0.0008(8) -0.0056(8) 0.0038(8)
C14 0.0271(10) 0.0352(11) 0.0336(11) 0.0012(8) -0.0033(8) 0.0034(8)
C15 0.0234(9) 0.0281(10) 0.0356(11) -0.0004(8) -0.0015(8) 0.0031(8)
C16 0.0249(10) 0.0348(11) 0.0403(12) -0.0009(9) -0.0005(8) 0.0039(8)
C17 0.0206(10) 0.0339(12) 0.0602(14) -0.0003(10) -0.0038(9) 0.0018(9)
C18 0.0191(9) 0.0337(11) 0.0389(11) 0.0039(8) 0.0006(8) 0.0008(8)
C19 0.0299(10) 0.0364(11) 0.0430(12) -0.0063(9) -0.0046(9) 0.0022(9)
C20 0.0249(10) 0.0398(12) 0.0400(11) -0.0024(9) -0.0075(8) 0.0019(9)
C21 0.0297(10) 0.0440(12) 0.0338(11) -0.0051(9) -0.0064(8) 0.0068(9)
C22 0.0263(10) 0.0471(13) 0.0397(11) -0.0017(10) -0.0093(8) 0.0072(9)
C23 0.0350(12) 0.0380(12) 0.0413(12) 0.0110(10) 0.0129(10) 0.0080(9)
C24 0.0351(12) 0.0348(11) 0.0457(13) 0.0067(10) 0.0142(10) 0.0045(9)
C25 0.0362(12) 0.0349(11) 0.0400(12) 0.0048(9) 0.0029(10) 0.0025(9)
C26 0.0322(11) 0.0281(10) 0.0422(13) 0.0011(9) -0.0015(10) 0.0021(8)
C27 0.0303(12) 0.0349(11) 0.0428(13) 0.0022(9) 0.0017(10) 0.0004(8)
C28 0.0305(12) 0.0292(11) 0.0472(14) 0.0018(9) 0.0061(9) -0.0006(9)
C29 0.0325(12) 0.0263(10) 0.0492(13) -0.0003(9) 0.0142(10) -0.0006(8)
C30 0.0361(12) 0.0363(12) 0.0425(12) 0.0002(10) 0.0056(10) 0.0004(9)
C31 0.0333(12) 0.0319(11) 0.0407(12) 0.0036(9) -0.0021(9) -0.0002(9)
C32 0.0308(11) 0.0515(14) 0.0394(12) 0.0009(10) 0.0022(9) 0.0002(10)
C33 0.0275(11) 0.0494(14) 0.0469(14) 0.0037(10) 0.0035(9) 0.0019(11)
C34 0.0365(13) 0.0245(10) 0.0434(12) -0.0014(8) 0.0141(10) -0.0006(8)
Zn1A 0.0162 0.0345 0.0344 -0.00285 0.0005 -0.00099
Zn1G 0.0162 0.0345 0.0344 0.00285 0.0005 0.00099
O8A 0.0265 0.044 0.0488 0.0044 -0.0116 -0.0043
N4G 0.0199 0.0344 0.0322 0.0014 0.0006 -0.0034
O9 0.077(2) 0.085(2) 0.113(3) -0.0126(17) 0.0053(18) 0.0092(15)
N5 0.0673(19) 0.0613(17) 0.0686(18) -0.0156(13) 0.0108(13) -0.0026(15)
C35 0.087(3) 0.073(2) 0.081(3) -0.014(2) 0.012(2) -0.001(2)
C36 0.071(3) 0.097(4) 0.138(4) -0.034(3) 0.019(3) 0.003(3)
C37 0.134(5) 0.103(4) 0.082(3) -0.029(3) 0.011(3) 0.017(3)
O10 0.103(3) 0.150(4) 0.157(4) -0.001(3) 0.007(3) -0.059(3)
N6 0.0525(14) 0.0726(18) 0.0483(14) -0.0044(11) 0.0049(10) 0.0188(13)
C38 0.059(2) 0.138(5) 0.075(2) 0.008(3) 0.0065(19) -0.005(3)
C39 0.0576(19) 0.064(2) 0.0610(18) -0.0052(14) 0.0021(13) 0.0157(16)
C40 0.142(5) 0.077(3) 0.066(2) -0.0051(19) 0.005(2) 0.050(3)
loop_
_geom_bond_atom_site_label_1
_geom_bond_atom_site_label_2
_geom_bond_site_symmetry_1
_geom_bond_site_symmetry_2
Zn1 O5 1_555 1_555
O1 C7 1_555 1_555
O2 C11 1_555 1_555
O3 C12 1_555 1_555
O4 C16 1_555 1_555
O5 C23 1_555 1_555
O6 C23 1_555 1_555
O7 C34 1_555 1_555
O8 C34 1_555 1_555
N1 Zn1 1_555 1_555
N2 C6 1_555 1_555
N3 C11 1_555 1_555
N4 C20 1_555 1_555
C1 N1 1_555 1_555
H1 C1 1_555 1_555
C2 C1 1_555 1_555
H2 C2 1_555 1_555
C3 C2 1_555 1_555
C4 C3 1_555 1_555
H3 C4 1_555 1_555
C5 N1 1_555 1_555
H4 C5 1_555 1_555
C6 C3 1_555 1_555
H5 C6 1_555 1_555
H6 C6 1_555 1_555
C7 N2 1_555 1_555
C8 C7 1_555 1_555
C9 C8 1_555 1_555
H7 C9 1_555 1_555
C10 C9 1_555 1_555
C11 C10 1_555 1_555
C12 N3 1_555 1_555
C13 C10 1_555 1_555
C14 C13 1_555 1_555
H8 C14 1_555 1_555
C15 C8 1_555 1_555
C16 N2 1_555 1_555
C17 N3 1_555 1_555
H9 C17 1_555 1_555
H10 C17 1_555 1_555
C18 C17 1_555 1_555
C19 C18 1_555 1_555
H11 C19 1_555 1_555
C20 C19 1_555 1_555
H12 C20 1_555 1_555
C21 N4 1_555 1_555
H13 C21 1_555 1_555
C22 C18 1_555 1_555
H14 C22 1_555 1_555
C23 C24 1_555 1_555
C24 C25 1_555 1_555
C25 H15 1_555 1_555
C26 C25 1_555 1_555
C27 C26 1_555 1_555
H16 C27 1_555 1_555
C28 C27 1_555 1_555
H17 C28 1_555 1_555
C29 C28 1_555 1_555
C30 C29 1_555 1_555
H18 C30 1_555 1_555
C31 C26 1_555 1_555
C32 C31 1_555 1_555
H19 C32 1_555 1_555
C33 C24 1_555 1_555
H20 C33 1_555 1_555
C34 C29 1_555 1_555
O9 C35 1_555 1_555
N5 C35 1_555 1_555
C35 H21 1_555 1_555
C36 N5 1_555 1_555
H22 C36 1_555 1_555
H23 C36 1_555 1_555
H24 C36 1_555 1_555
C37 N5 1_555 1_555
H25 C37 1_555 1_555
H26 C37 1_555 1_555
H27 C37 1_555 1_555
O10 C38 1_555 1_555
N6 C38 1_555 1_555
C38 H28 1_555 1_555
C39 N6 1_555 1_555
H29 C39 1_555 1_555
H30 C39 1_555 1_555
H31 C39 1_555 1_555
C40 N6 1_555 1_555
H32 C40 1_555 1_555
H33 C40 1_555 1_555
H34 C40 1_555 1_555
Zn1A O8 1_555 1_555
Zn1G N4 1_555 1_555
O8A Zn1 1_555 1_555
N4G Zn1 1_555 1_555
C4 C5 1_555 1_555
C12 C13 1_555 1_555
C14 C15 1_555 1_555
C15 C16 1_555 1_555
C21 C22 1_555 1_555
C30 C31 1_555 1_555
C32 C33 1_555 1_555

#END
