
#######################################################################
#
#                 Cambridge Crystallographic Data Centre
#                                CCDC 
#
#######################################################################
#
# If this CIF has been generated from an entry in the Cambridge 
# Structural Database, then it will include bibliographic, chemical, 
# crystal, experimental, refinement or atomic coordinate data resulting 
# from the CCDC's data processing and validation procedures.
#
#######################################################################

data_ICAQUA
_chemical_formula_moiety         '(C138 H84 N6 O24 Zn6)n'
_chemical_name_systematic        
catena-(tetrakis(\m~6~-benzene-1,3,5-tribenzoato)-bis(\m~2~-4,4'-bipyridine)-hexa-zinc)
_symmetry_cell_setting           cubic
_symmetry_space_group_name_H-M   'P m -3 n'
_symmetry_Int_Tables_number      223
_space_group_name_Hall           '-P 4n 2 3'
loop_
_symmetry_equiv_pos_site_id
_symmetry_equiv_pos_as_xyz
1 x,y,z
2 -x,-y,z
3 -x,y,-z
4 x,-y,-z
5 z,x,y
6 z,-x,-y
7 -z,-x,y
8 -z,x,-y
9 y,z,x
10 -y,z,-x
11 y,-z,-x
12 -y,-z,x
13 1/2+y,1/2+x,1/2-z
14 1/2-y,1/2-x,1/2-z
15 1/2+y,1/2-x,1/2+z
16 1/2-y,1/2+x,1/2+z
17 1/2+x,1/2+z,1/2-y
18 1/2-x,1/2+z,1/2+y
19 1/2-x,1/2-z,1/2-y
20 1/2+x,1/2-z,1/2+y
21 1/2+z,1/2+y,1/2-x
22 1/2+z,1/2-y,1/2+x
23 1/2-z,1/2+y,1/2+x
24 1/2-z,1/2-y,1/2-x
25 -x,-y,-z
26 x,y,-z
27 x,-y,z
28 -x,y,z
29 -z,-x,-y
30 -z,x,y
31 z,x,-y
32 z,-x,y
33 -y,-z,-x
34 y,-z,x
35 -y,z,x
36 y,z,-x
37 1/2-y,1/2-x,1/2+z
38 1/2+y,1/2+x,1/2+z
39 1/2-y,1/2+x,1/2-z
40 1/2+y,1/2-x,1/2-z
41 1/2-x,1/2-z,1/2+y
42 1/2+x,1/2-z,1/2-y
43 1/2+x,1/2+z,1/2+y
44 1/2-x,1/2+z,1/2-y
45 1/2-z,1/2-y,1/2+x
46 1/2-z,1/2+y,1/2-x
47 1/2+z,1/2-y,1/2-x
48 1/2+z,1/2+y,1/2+x
_cell_length_a                   27.725(3)
_cell_length_b                   27.725(3)
_cell_length_c                   27.725(3)
_cell_angle_alpha                90
_cell_angle_beta                 90
_cell_angle_gamma                90
_cell_volume                     21311.5
_exptl_crystal_colour            white
_exptl_crystal_description       block
_cell_formula_units_Z            2
_chemical_properties_physical    moisture-sensitive
loop_
_atom_site_label
_atom_site_type_symbol
_atom_site_fract_x
_atom_site_fract_y
_atom_site_fract_z
Zn1 Zn 0.0000 0.801358(17) 0.5000
O1 O -0.05134(6) 0.78906(7) 0.55200(7)
N1 N 0.0000 0.87418(15) 0.5000
C1 C -0.0408(5) 0.8975(5) 0.5000
H1 H -0.0696 0.8803 0.5000
C2 C -0.0421(5) 0.9491(4) 0.5000
H2 H -0.0715 0.9652 0.5000
C3 C -0.06665(10) 0.7500 0.56665(10)
C4 C -0.10420(9) 0.7500 0.60420(9)
C5 C -0.12265(12) 0.79254(11) 0.62301(11)
H3 H -0.1109 0.8220 0.6120
C6 C -0.15745(12) 0.79182(11) 0.65709(12)
H4 H -0.1694 0.8211 0.6683
C7 C -0.17599(10) 0.7500 0.67599(10)
C8 C -0.21396(11) 0.7500 0.71396(11)
C9 C -0.2500 0.78505(11) 0.71495(11)
H5 H -0.2500 0.8088 0.6912
C10 C 0.0000 0.9744(2) 0.5000
Zn1U Zn 0.0000 0.698642(17) 0.5000
Zn1D Zn -0.5000 1.0000 0.801358(17)
Zn1P Zn -0.5000 1.0000 0.698642(17)
Zn1H Zn -0.198642(17) 0.5000 1.0000
Zn1M Zn -0.301358(17) 0.5000 1.0000
Zn1A Zn 0.0000 1.198642(17) 0.5000
Zn1E Zn 0.5000 1.0000 0.198642(17)
Zn1Q Zn 0.5000 1.0000 0.301358(17)
Zn1I Zn 0.198642(17) 0.5000 0.0000
Zn1L Zn 0.301358(17) 0.5000 0.0000
Zn1E_2 Zn -0.5000 1.0000 0.198642(17)
Zn1Q_2 Zn -0.5000 1.0000 0.301358(17)
Zn1H_2 Zn -0.198642(17) 0.5000 0.0000
Zn1M_2 Zn -0.301358(17) 0.5000 0.0000
Zn1D_2 Zn 0.5000 1.0000 0.801358(17)
Zn1P_2 Zn 0.5000 1.0000 0.698642(17)
Zn1I_2 Zn 0.198642(17) 0.5000 1.0000
Zn1L_2 Zn 0.301358(17) 0.5000 1.0000
Zn1T Zn 0.0000 0.301358(17) 0.5000
Zn1E_3 Zn -0.5000 1.0000 1.198642(17)
O1W O -0.05200(7) 0.71094(7) 0.55134(6)
O1D O -0.44800(7) 0.94866(6) 0.78906(7)
O1R O -0.44866(6) 0.94800(7) 0.71094(7)
O1H O -0.21094(7) 0.55200(7) 0.94866(6)
O1M O -0.28906(7) 0.55134(6) 0.94800(7)
O1B O 0.05134(6) 0.78906(7) 0.44800(7)
O1U O 0.05200(7) 0.71094(7) 0.44866(6)
O1G O 0.44800(7) 0.94866(6) 0.21094(7)
O1S O 0.44866(6) 0.94800(7) 0.28906(7)
O1I O 0.21094(7) 0.55200(7) 0.05134(6)
O1N O 0.28906(7) 0.55134(6) 0.05200(7)
O1Y O -0.05134(6) 0.78906(7) 0.44800(7)
O1RA O -0.05200(7) 0.71094(7) 0.44866(6)
O1DA O -0.44800(7) 0.94866(6) 0.21094(7)
O1NA O -0.44866(6) 0.94800(7) 0.28906(7)
O1IA O -0.21094(7) 0.55200(7) 0.05134(6)
O1JA O -0.28906(7) 0.55134(6) 0.05200(7)
O1AA O 0.05134(6) 0.78906(7) 0.55200(7)
O1TA O 0.05200(7) 0.71094(7) 0.55134(6)
O1CA O 0.44800(7) 0.94866(6) 0.78906(7)
O1OA O 0.44866(6) 0.94800(7) 0.71094(7)
O1HA O 0.21094(7) 0.55200(7) 0.94866(6)
O1MA O 0.28906(7) 0.55134(6) 0.94800(7)
O1F O -0.55200(7) 1.05134(6) 0.78906(7)
O1CA_2 O -0.55200(7) 0.94866(6) 0.78906(7)
O1EA O -0.44800(7) 1.05134(6) 0.78906(7)
O1P O -0.55134(6) 1.05200(7) 0.71094(7)
O1QA O -0.44866(6) 1.05200(7) 0.71094(7)
O1OA_2 O -0.55134(6) 0.94800(7) 0.71094(7)
O1J O -0.21094(7) 0.44800(7) 1.05134(6)
O1GA O -0.21094(7) 0.44800(7) 0.94866(6)
O1IA_2 O -0.21094(7) 0.55200(7) 1.05134(6)
O1O O -0.28906(7) 0.44866(6) 1.05200(7)
O1JA_2 O -0.28906(7) 0.55134(6) 1.05200(7)
O1LA O -0.28906(7) 0.44866(6) 0.94800(7)
N1A N 0.0000 1.12582(15) 0.5000
N1U N 0.0000 0.62582(15) 0.5000
N1T N 0.0000 0.37418(15) 0.5000
N1D N -0.5000 1.0000 0.87418(15)
N1E N -0.5000 1.0000 1.12582(15)
N1P N -0.5000 1.0000 0.62582(15)
N1H N -0.12582(15) 0.5000 1.0000
N1M N -0.37418(15) 0.5000 1.0000
C1B C 0.0408(5) 0.8975(5) 0.5000
C1A C 0.0408(5) 1.1025(5) 0.5000
C1C C -0.0408(5) 1.1025(5) 0.5000
C1W C 0.0000 0.6025(5) 0.5408(5)
C1U C 0.0000 0.6025(5) 0.4592(5)
C1V C 0.0000 0.3975(5) 0.4592(5)
C1T C 0.0000 0.3975(5) 0.5408(5)
C1D C -0.5000 0.9592(5) 0.8975(5)
C1F C -0.5000 1.0408(5) 0.8975(5)
C1E C -0.5000 1.0408(5) 1.1025(5)
C1G C -0.5000 0.9592(5) 1.1025(5)
H1B H 0.0696 0.8803 0.5000
H1C H -0.0696 1.1197 0.5000
H1A H 0.0696 1.1197 0.5000
H1W H 0.0000 0.6197 0.5696
H1U H 0.0000 0.6197 0.4304
H1T H 0.0000 0.3803 0.5696
H1V H 0.0000 0.3803 0.4304
H1D H -0.5000 0.9304 0.8803
H1F H -0.5000 1.0696 0.8803
H1G H -0.5000 0.9304 1.1197
H1E H -0.5000 1.0696 1.1197
C2B C 0.0421(5) 0.9491(4) 0.5000
C2A C 0.0421(5) 1.0509(4) 0.5000
C2C C -0.0421(5) 1.0509(4) 0.5000
C2W C 0.0000 0.5509(4) 0.5421(5)
C2U C 0.0000 0.5509(4) 0.4579(5)
C2V C 0.0000 0.4491(4) 0.4579(5)
C2T C 0.0000 0.4491(4) 0.5421(5)
C2D C -0.5000 0.9579(5) 0.9491(4)
C2F C -0.5000 1.0421(5) 0.9491(4)
C2E C -0.5000 1.0421(5) 1.0509(4)
C2G C -0.5000 0.9579(5) 1.0509(4)
H2B H 0.0715 0.9652 0.5000
H2C H -0.0715 1.0348 0.5000
H2A H 0.0715 1.0348 0.5000
H2W H 0.0000 0.5348 0.5715
H2U H 0.0000 0.5348 0.4285
H2T H 0.0000 0.4652 0.5715
H2V H 0.0000 0.4652 0.4285
H2D H -0.5000 0.9285 0.9652
H2F H -0.5000 1.0715 0.9652
H2G H -0.5000 0.9285 1.0348
H2E H -0.5000 1.0715 1.0348
C3D C -0.43335(10) 0.93335(10) 0.7500
C3H C -0.2500 0.56665(10) 0.93335(10)
C3B C 0.06665(10) 0.7500 0.43335(10)
C3G C 0.43335(10) 0.93335(10) 0.2500
C3I C 0.2500 0.56665(10) 0.06665(10)
C3Y C -0.06665(10) 0.7500 0.43335(10)
C3DA C -0.43335(10) 0.93335(10) 0.2500
C3IA C -0.2500 0.56665(10) 0.06665(10)
C3AA C 0.06665(10) 0.7500 0.56665(10)
C3CA C 0.43335(10) 0.93335(10) 0.7500
C3HA C 0.2500 0.56665(10) 0.93335(10)
C4D C -0.39580(9) 0.89580(9) 0.7500
C4H C -0.2500 0.60420(9) 0.89580(9)
C4B C 0.10420(9) 0.7500 0.39580(9)
C4G C 0.39580(9) 0.89580(9) 0.2500
C4I C 0.2500 0.60420(9) 0.10420(9)
C4Y C -0.10420(9) 0.7500 0.39580(9)
C4DA C -0.39580(9) 0.89580(9) 0.2500
C4IA C -0.2500 0.60420(9) 0.10420(9)
C4AA C 0.10420(9) 0.7500 0.60420(9)
C4CA C 0.39580(9) 0.89580(9) 0.7500
C4HA C 0.2500 0.60420(9) 0.89580(9)
C5W C -0.12301(11) 0.70746(11) 0.62265(12)
C5D C -0.37699(11) 0.87735(12) 0.79254(11)
C5R C -0.37735(12) 0.87699(11) 0.70746(11)
C5H C -0.20746(11) 0.62301(11) 0.87735(12)
C5M C -0.29254(11) 0.62265(12) 0.87699(11)
C5B C 0.12265(12) 0.79254(11) 0.37699(11)
C5U C 0.12301(11) 0.70746(11) 0.37735(12)
C5G C 0.37699(11) 0.87735(12) 0.20746(11)
C5S C 0.37735(12) 0.87699(11) 0.29254(11)
C5I C 0.20746(11) 0.62301(11) 0.12265(12)
C5N C 0.29254(11) 0.62265(12) 0.12301(11)
C5Y C -0.12265(12) 0.79254(11) 0.37699(11)
C5RA C -0.12301(11) 0.70746(11) 0.37735(12)
C5DA C -0.37699(11) 0.87735(12) 0.20746(11)
C5NA C -0.37735(12) 0.87699(11) 0.29254(11)
C5IA C -0.20746(11) 0.62301(11) 0.12265(12)
C5JA C -0.29254(11) 0.62265(12) 0.12301(11)
C5AA C 0.12265(12) 0.79254(11) 0.62301(11)
C5TA C 0.12301(11) 0.70746(11) 0.62265(12)
C5CA C 0.37699(11) 0.87735(12) 0.79254(11)
C5OA C 0.37735(12) 0.87699(11) 0.70746(11)
C5HA C 0.20746(11) 0.62301(11) 0.87735(12)
C5MA C 0.29254(11) 0.62265(12) 0.87699(11)
H3W H -0.1120 0.6780 0.6109
H3R H -0.3891 0.8880 0.6780
H3D H -0.3880 0.8891 0.8220
H3M H -0.3220 0.6109 0.8880
H3H H -0.1780 0.6120 0.8891
H3B H 0.1109 0.8220 0.3880
H3U H 0.1120 0.6780 0.3891
H3S H 0.3891 0.8880 0.3220
H3G H 0.3880 0.8891 0.1780
H3N H 0.3220 0.6109 0.1120
H3I H 0.1780 0.6120 0.1109
H3Y H -0.1109 0.8220 0.3880
H3RA H -0.1120 0.6780 0.3891
H3NA H -0.3891 0.8880 0.3220
H3DA H -0.3880 0.8891 0.1780
H3JA H -0.3220 0.6109 0.1120
H3IA H -0.1780 0.6120 0.1109
H3AA H 0.1109 0.8220 0.6120
H3TA H 0.1120 0.6780 0.6109
H3OA H 0.3891 0.8880 0.6780
H3CA H 0.3880 0.8891 0.8220
H3MA H 0.3220 0.6109 0.8880
H3HA H 0.1780 0.6120 0.8891
C6W C -0.15709(12) 0.70818(11) 0.65745(12)
C6D C -0.34291(12) 0.84255(12) 0.79182(11)
C6R C -0.34255(12) 0.84291(12) 0.70818(11)
C6H C -0.20818(11) 0.65709(12) 0.84255(12)
C6M C -0.29182(11) 0.65745(12) 0.84291(12)
C6B C 0.15745(12) 0.79182(11) 0.34291(12)
C6U C 0.15709(12) 0.70818(11) 0.34255(12)
C6G C 0.34291(12) 0.84255(12) 0.20818(11)
C6S C 0.34255(12) 0.84291(12) 0.29182(11)
C6I C 0.20818(11) 0.65709(12) 0.15745(12)
C6N C 0.29182(11) 0.65745(12) 0.15709(12)
C6Y C -0.15745(12) 0.79182(11) 0.34291(12)
C6RA C -0.15709(12) 0.70818(11) 0.34255(12)
C6DA C -0.34291(12) 0.84255(12) 0.20818(11)
C6NA C -0.34255(12) 0.84291(12) 0.29182(11)
C6IA C -0.20818(11) 0.65709(12) 0.15745(12)
C6JA C -0.29182(11) 0.65745(12) 0.15709(12)
C6AA C 0.15745(12) 0.79182(11) 0.65709(12)
C6TA C 0.15709(12) 0.70818(11) 0.65745(12)
C6CA C 0.34291(12) 0.84255(12) 0.79182(11)
C6OA C 0.34255(12) 0.84291(12) 0.70818(11)
C6HA C 0.20818(11) 0.65709(12) 0.84255(12)
C6MA C 0.29182(11) 0.65745(12) 0.84291(12)
H4W H -0.1683 0.6789 0.6694
H4R H -0.3306 0.8317 0.6789
H4D H -0.3317 0.8306 0.8211
H4M H -0.3211 0.6694 0.8317
H4H H -0.1789 0.6683 0.8306
H4B H 0.1694 0.8211 0.3317
H4U H 0.1683 0.6789 0.3306
H4S H 0.3306 0.8317 0.3211
H4G H 0.3317 0.8306 0.1789
H4N H 0.3211 0.6694 0.1683
H4I H 0.1789 0.6683 0.1694
H4Y H -0.1694 0.8211 0.3317
H4RA H -0.1683 0.6789 0.3306
H4NA H -0.3306 0.8317 0.3211
H4DA H -0.3317 0.8306 0.1789
H4JA H -0.3211 0.6694 0.1683
H4IA H -0.1789 0.6683 0.1694
H4AA H 0.1694 0.8211 0.6683
H4TA H 0.1683 0.6789 0.6694
H4OA H 0.3306 0.8317 0.6789
H4CA H 0.3317 0.8306 0.8211
H4MA H 0.3211 0.6694 0.8317
H4HA H 0.1789 0.6683 0.8306
C7D C -0.32401(10) 0.82401(10) 0.7500
C7H C -0.2500 0.67599(10) 0.82401(10)
C7B C 0.17599(10) 0.7500 0.32401(10)
C7G C 0.32401(10) 0.82401(10) 0.2500
C7I C 0.2500 0.67599(10) 0.17599(10)
C7Y C -0.17599(10) 0.7500 0.32401(10)
C7DA C -0.32401(10) 0.82401(10) 0.2500
C7IA C -0.2500 0.67599(10) 0.17599(10)
C7AA C 0.17599(10) 0.7500 0.67599(10)
C7CA C 0.32401(10) 0.82401(10) 0.7500
C7HA C 0.2500 0.67599(10) 0.82401(10)
C8D C -0.28604(11) 0.78604(11) 0.7500
C8H C -0.2500 0.71396(11) 0.78604(11)
C8B C 0.21396(11) 0.7500 0.28604(11)
C8G C 0.28604(11) 0.78604(11) 0.2500
C8I C 0.2500 0.71396(11) 0.21396(11)
C8Y C -0.21396(11) 0.7500 0.28604(11)
C8DA C -0.28604(11) 0.78604(11) 0.2500
C8IA C -0.2500 0.71396(11) 0.21396(11)
C8AA C 0.21396(11) 0.7500 0.71396(11)
C8CA C 0.28604(11) 0.78604(11) 0.7500
C8HA C 0.2500 0.71396(11) 0.78604(11)
C9D C -0.28505(11) 0.7500 0.78505(11)
C9H C -0.21495(11) 0.71495(11) 0.7500
C9B C 0.2500 0.78505(11) 0.28505(11)
C9G C 0.28505(11) 0.7500 0.21495(11)
C9I C 0.21495(11) 0.71495(11) 0.2500
C9Y C -0.2500 0.78505(11) 0.28505(11)
C9DA C -0.28505(11) 0.7500 0.21495(11)
C9IA C -0.21495(11) 0.71495(11) 0.2500
C9AA C 0.2500 0.78505(11) 0.71495(11)
C9CA C 0.28505(11) 0.7500 0.78505(11)
C9HA C 0.21495(11) 0.71495(11) 0.7500
H5H H -0.1912 0.6912 0.7500
H5D H -0.3088 0.7500 0.8088
H5B H 0.2500 0.8088 0.3088
H5I H 0.1912 0.6912 0.2500
H5G H 0.3088 0.7500 0.1912
H5Y H -0.2500 0.8088 0.3088
H5IA H -0.1912 0.6912 0.2500
H5DA H -0.3088 0.7500 0.1912
H5AA H 0.2500 0.8088 0.6912
H5HA H 0.1912 0.6912 0.7500
H5CA H 0.3088 0.7500 0.8088
C10A C 0.0000 1.0256(2) 0.5000
C10U C 0.0000 0.5256(2) 0.5000
C10T C 0.0000 0.4744(2) 0.5000
C10D C -0.5000 1.0000 0.9744(2)
C10E C -0.5000 1.0000 1.0256(2)
C11? C 0.0000 0.8978(5) 0.5350(5)
H6? H 0.0000 0.8807 0.5639
C12? C 0.0000 0.9458(5) 0.5392(5)
H7? H 0.0000 0.9597 0.5697
loop_
_geom_bond_atom_site_label_1
_geom_bond_atom_site_label_2
_geom_bond_site_symmetry_1
_geom_bond_site_symmetry_2
Zn1 O1 1_555 1_555
O1 C3 1_555 1_555
N1 Zn1 1_555 1_555
C1 N1 1_555 1_555
H1 C1 1_555 1_555
C2 C1 1_555 1_555
H2 C2 1_555 1_555
C3 C4 1_555 1_555
C4 C5 1_555 1_555
C5 H3 1_555 1_555
C6 C5 1_555 1_555
H4 C6 1_555 1_555
C7 C6 1_555 1_555
C8 C7 1_555 1_555
C9 C8 1_555 1_555
H5 C9 1_555 1_555
C10 C2 1_555 1_555
Zn1U O1W 1_555 1_555
Zn1D O1D 1_555 1_555
Zn1P O1R 1_555 1_555
Zn1H O1H 1_555 1_555
Zn1M O1M 1_555 1_555
Zn1A N1A 1_555 1_555
Zn1E O1G 1_555 1_555
Zn1Q O1S 1_555 1_555
Zn1I O1I 1_555 1_555
Zn1L O1N 1_555 1_555
Zn1E_2 O1DA 1_555 1_555
Zn1Q_2 O1NA 1_555 1_555
Zn1H_2 O1IA 1_555 1_555
Zn1M_2 O1JA 1_555 1_555
Zn1D_2 O1CA 1_555 1_555
Zn1P_2 O1OA 1_555 1_555
Zn1I_2 O1HA 1_555 1_555
Zn1L_2 O1MA 1_555 1_555
Zn1T N1T 1_555 1_555
Zn1E_3 N1E 1_555 1_555
O1W C3 1_555 1_555
O1D C3D 1_555 1_555
O1R C3D 1_555 1_555
O1H C3H 1_555 1_555
O1M C3H 1_555 1_555
O1B Zn1 1_555 1_555
O1U Zn1U 1_555 1_555
O1G C3G 1_555 1_555
O1S C3G 1_555 1_555
O1I C3I 1_555 1_555
O1N C3I 1_555 1_555
O1Y Zn1 1_555 1_555
O1RA Zn1U 1_555 1_555
O1DA C3DA 1_555 1_555
O1NA C3DA 1_555 1_555
O1IA C3IA 1_555 1_555
O1JA C3IA 1_555 1_555
O1AA Zn1 1_555 1_555
O1TA Zn1U 1_555 1_555
O1CA C3CA 1_555 1_555
O1OA C3CA 1_555 1_555
O1HA C3HA 1_555 1_555
O1MA C3HA 1_555 1_555
O1F Zn1D 1_555 1_555
O1CA_2 Zn1D 1_555 1_555
O1EA Zn1D 1_555 1_555
O1P Zn1P 1_555 1_555
O1QA Zn1P 1_555 1_555
O1OA_2 Zn1P 1_555 1_555
O1J Zn1H 1_555 1_555
O1GA Zn1H 1_555 1_555
O1IA_2 Zn1H 1_555 1_555
O1O Zn1M 1_555 1_555
O1JA_2 Zn1M 1_555 1_555
O1LA Zn1M 1_555 1_555
N1A C1A 1_555 1_555
N1U Zn1U 1_555 1_555
N1T C1V 1_555 1_555
N1D Zn1D 1_555 1_555
N1E C1E 1_555 1_555
N1P Zn1P 1_555 1_555
N1H Zn1H 1_555 1_555
N1M Zn1M 1_555 1_555
C1B N1 1_555 1_555
C1A H1A 1_555 1_555
C1C N1A 1_555 1_555
C1W N1U 1_555 1_555
C1U N1U 1_555 1_555
C1V H1V 1_555 1_555
C1T N1T 1_555 1_555
C1D N1D 1_555 1_555
C1F N1D 1_555 1_555
C1E H1E 1_555 1_555
C1G N1E 1_555 1_555
H1B C1B 1_555 1_555
H1C C1C 1_555 1_555
H1W C1W 1_555 1_555
H1U C1U 1_555 1_555
H1T C1T 1_555 1_555
H1D C1D 1_555 1_555
H1F C1F 1_555 1_555
H1G C1G 1_555 1_555
C2B C10 1_555 1_555
C2A C1A 1_555 1_555
C2C C1C 1_555 1_555
C2W C1W 1_555 1_555
C2U C1U 1_555 1_555
C2V C1V 1_555 1_555
C2T C1T 1_555 1_555
C2D C1D 1_555 1_555
C2F C1F 1_555 1_555
C2E C1E 1_555 1_555
C2G C1G 1_555 1_555
H2B C2B 1_555 1_555
H2C C2C 1_555 1_555
H2A C2A 1_555 1_555
H2W C2W 1_555 1_555
H2U C2U 1_555 1_555
H2T C2T 1_555 1_555
H2V C2V 1_555 1_555
H2D C2D 1_555 1_555
H2F C2F 1_555 1_555
H2G C2G 1_555 1_555
H2E C2E 1_555 1_555
C3D C4D 1_555 1_555
C3H C4H 1_555 1_555
C3B O1B 1_555 1_555
C3G C4G 1_555 1_555
C3I C4I 1_555 1_555
C3Y O1Y 1_555 1_555
C3DA C4DA 1_555 1_555
C3IA C4IA 1_555 1_555
C3AA O1AA 1_555 1_555
C3CA C4CA 1_555 1_555
C3HA C4HA 1_555 1_555
C4D C5D 1_555 1_555
C4H C5H 1_555 1_555
C4B C3B 1_555 1_555
C4G C5G 1_555 1_555
C4I C5I 1_555 1_555
C4Y C3Y 1_555 1_555
C4DA C5DA 1_555 1_555
C4IA C5IA 1_555 1_555
C4AA C3AA 1_555 1_555
C4CA C5CA 1_555 1_555
C4HA C5HA 1_555 1_555
C5W C4 1_555 1_555
C5D H3D 1_555 1_555
C5R C4D 1_555 1_555
C5H H3H 1_555 1_555
C5M C4H 1_555 1_555
C5B C4B 1_555 1_555
C5U C4B 1_555 1_555
C5G H3G 1_555 1_555
C5S C4G 1_555 1_555
C5I H3I 1_555 1_555
C5N C4I 1_555 1_555
C5Y C4Y 1_555 1_555
C5RA C4Y 1_555 1_555
C5DA H3DA 1_555 1_555
C5NA C4DA 1_555 1_555
C5IA H3IA 1_555 1_555
C5JA C4IA 1_555 1_555
C5AA C4AA 1_555 1_555
C5TA C4AA 1_555 1_555
C5CA H3CA 1_555 1_555
C5OA C4CA 1_555 1_555
C5HA H3HA 1_555 1_555
C5MA C4HA 1_555 1_555
H3W C5W 1_555 1_555
H3R C5R 1_555 1_555
H3M C5M 1_555 1_555
H3B C5B 1_555 1_555
H3U C5U 1_555 1_555
H3S C5S 1_555 1_555
H3N C5N 1_555 1_555
H3Y C5Y 1_555 1_555
H3RA C5RA 1_555 1_555
H3NA C5NA 1_555 1_555
H3JA C5JA 1_555 1_555
H3AA C5AA 1_555 1_555
H3TA C5TA 1_555 1_555
H3OA C5OA 1_555 1_555
H3MA C5MA 1_555 1_555
C6W C7 1_555 1_555
C6D C5D 1_555 1_555
C6R C5R 1_555 1_555
C6H C5H 1_555 1_555
C6M C5M 1_555 1_555
C6B C5B 1_555 1_555
C6U C5U 1_555 1_555
C6G C5G 1_555 1_555
C6S C5S 1_555 1_555
C6I C5I 1_555 1_555
C6N C5N 1_555 1_555
C6Y C5Y 1_555 1_555
C6RA C5RA 1_555 1_555
C6DA C5DA 1_555 1_555
C6NA C5NA 1_555 1_555
C6IA C5IA 1_555 1_555
C6JA C5JA 1_555 1_555
C6AA C5AA 1_555 1_555
C6TA C5TA 1_555 1_555
C6CA C5CA 1_555 1_555
C6OA C5OA 1_555 1_555
C6HA C5HA 1_555 1_555
C6MA C5MA 1_555 1_555
H4W C6W 1_555 1_555
H4R C6R 1_555 1_555
H4D C6D 1_555 1_555
H4M C6M 1_555 1_555
H4H C6H 1_555 1_555
H4B C6B 1_555 1_555
H4U C6U 1_555 1_555
H4S C6S 1_555 1_555
H4G C6G 1_555 1_555
H4N C6N 1_555 1_555
H4I C6I 1_555 1_555
H4Y C6Y 1_555 1_555
H4RA C6RA 1_555 1_555
H4NA C6NA 1_555 1_555
H4DA C6DA 1_555 1_555
H4JA C6JA 1_555 1_555
H4IA C6IA 1_555 1_555
H4AA C6AA 1_555 1_555
H4TA C6TA 1_555 1_555
H4OA C6OA 1_555 1_555
H4CA C6CA 1_555 1_555
H4MA C6MA 1_555 1_555
H4HA C6HA 1_555 1_555
C7D C6D 1_555 1_555
C7H C6H 1_555 1_555
C7B C6B 1_555 1_555
C7G C6G 1_555 1_555
C7I C6I 1_555 1_555
C7Y C6Y 1_555 1_555
C7DA C6DA 1_555 1_555
C7IA C6IA 1_555 1_555
C7AA C6AA 1_555 1_555
C7CA C6CA 1_555 1_555
C7HA C6HA 1_555 1_555
C8D C9 1_555 1_555
C8H C7H 1_555 1_555
C8B C7B 1_555 1_555
C8G C7G 1_555 1_555
C8I C7I 1_555 1_555
C8Y C7Y 1_555 1_555
C8DA C7DA 1_555 1_555
C8IA C7IA 1_555 1_555
C8AA C7AA 1_555 1_555
C8CA C7CA 1_555 1_555
C8HA C7HA 1_555 1_555
C9D C8D 1_555 1_555
C9H C8 1_555 1_555
C9B C8B 1_555 1_555
C9G C8G 1_555 1_555
C9I C8B 1_555 1_555
C9Y C8Y 1_555 1_555
C9DA C8DA 1_555 1_555
C9IA C8Y 1_555 1_555
C9AA C8AA 1_555 1_555
C9CA C8CA 1_555 1_555
C9HA C8AA 1_555 1_555
H5H C9H 1_555 1_555
H5D C9D 1_555 1_555
H5B C9B 1_555 1_555
H5I C9I 1_555 1_555
H5G C9G 1_555 1_555
H5Y C9Y 1_555 1_555
H5IA C9IA 1_555 1_555
H5DA C9DA 1_555 1_555
H5AA C9AA 1_555 1_555
H5HA C9HA 1_555 1_555
H5CA C9CA 1_555 1_555
C10A C10 1_555 1_555
C10U C2W 1_555 1_555
C10T C2V 1_555 1_555
C10D C2D 1_555 1_555
C10E C2E 1_555 1_555
O1U C3B 1_555 1_555
O1RA C3Y 1_555 1_555
O1TA C3AA 1_555 1_555
C1B C2B 1_555 1_555
C2A C10A 1_555 1_555
C2C C10A 1_555 1_555
C2U C10U 1_555 1_555
C2T C10T 1_555 1_555
C2F C10D 1_555 1_555
C2G C10E 1_555 1_555
C5W C6W 1_555 1_555
C6R C7D 1_555 1_555
C6M C7H 1_555 1_555
C6U C7B 1_555 1_555
C6S C7G 1_555 1_555
C6N C7I 1_555 1_555
C6RA C7Y 1_555 1_555
C6NA C7DA 1_555 1_555
C6JA C7IA 1_555 1_555
C6TA C7AA 1_555 1_555
C6OA C7CA 1_555 1_555
C6MA C7HA 1_555 1_555
C7D C8D 1_555 1_555
C8H C9D 1_555 1_555
C8H C9H 1_555 1_555
C8G C9B 1_555 1_555
C8I C9G 1_555 1_555
C8I C9I 1_555 1_555
C8DA C9Y 1_555 1_555
C8IA C9DA 1_555 1_555
C8IA C9IA 1_555 1_555
C8CA C9AA 1_555 1_555
C8HA C9CA 1_555 1_555
C8HA C9HA 1_555 1_555
C10U C10T 1_555 1_555
C10D C10E 1_555 1_555

#END
