
#######################################################################
#
#                 Cambridge Crystallographic Data Centre
#                                CCDC 
#
#######################################################################
#
# If this CIF has been generated from an entry in the Cambridge 
# Structural Database, then it will include bibliographic, chemical, 
# crystal, experimental, refinement or atomic coordinate data resulting 
# from the CCDC's data processing and validation procedures.
#
#######################################################################

data_ICAQOU
_chemical_formula_moiety         '(C138 H84 Cu6 N6 O24)n'
_chemical_name_systematic        
catena-(tetrakis(\m~6~-benzene-1,3,5-tribenzoate)-tris(\m~2~-4,4'-bipyridine)-hexa-copper)
_symmetry_cell_setting           cubic
_symmetry_space_group_name_H-M   'P m -3 n'
_symmetry_Int_Tables_number      223
_space_group_name_Hall           '-P 4n 2 3'
loop_
_symmetry_equiv_pos_site_id
_symmetry_equiv_pos_as_xyz
1 x,y,z
2 1/2-y,1/2+x,1/2+z
3 -x,-y,z
4 1/2+y,1/2-x,1/2+z
5 x,-y,-z
6 1/2+y,1/2+x,1/2-z
7 -x,y,-z
8 1/2-y,1/2-x,1/2-z
9 z,x,y
10 1/2-x,1/2+z,1/2+y
11 -z,-x,y
12 1/2+x,1/2-z,1/2+y
13 z,-x,-y
14 1/2+x,1/2+z,1/2-y
15 -z,x,-y
16 1/2-x,1/2-z,1/2-y
17 y,z,x
18 1/2-z,1/2-y,1/2-x
19 1/2-z,1/2+y,1/2+x
20 1/2+z,1/2+y,1/2-x
21 1/2+z,1/2-y,1/2+x
22 y,-z,-x
23 -y,-z,x
24 -y,z,-x
25 -x,-y,-z
26 1/2+y,1/2-x,1/2-z
27 x,y,-z
28 1/2-y,1/2+x,1/2-z
29 -x,y,z
30 1/2-y,1/2-x,1/2+z
31 x,-y,z
32 1/2+y,1/2+x,1/2+z
33 -z,-x,-y
34 1/2+x,1/2-z,1/2-y
35 z,x,-y
36 1/2-x,1/2+z,1/2-y
37 -z,x,y
38 1/2-x,1/2-z,1/2+y
39 z,-x,y
40 1/2+x,1/2+z,1/2+y
41 -y,-z,-x
42 1/2+z,1/2+y,1/2+x
43 1/2+z,1/2-y,1/2-x
44 1/2-z,1/2-y,1/2+x
45 1/2-z,1/2+y,1/2-x
46 -y,z,x
47 y,z,-x
48 y,-z,x
_cell_length_a                   27.5120(18)
_cell_length_b                   27.5120(18)
_cell_length_c                   27.5120(18)
_cell_angle_alpha                90
_cell_angle_beta                 90
_cell_angle_gamma                90
_cell_volume                     20824.1
_exptl_crystal_colour            blue
_exptl_crystal_description       block
_cell_formula_units_Z            2
_chemical_properties_physical    moisture-sensitive
loop_
_atom_site_label
_atom_site_type_symbol
_atom_site_fract_x
_atom_site_fract_y
_atom_site_fract_z
Cu1 Cu 0.5000 0.0000 0.20224(4)
O1 O 0.44969(11) 0.05026(11) 0.20914(11)
N1 N 0.5000 0.0000 0.1248(2)
C1 C 0.43522(15) 0.06478(15) 0.2500
C2 C 0.39665(18) 0.10335(18) 0.2500
C3 C 0.37906(17) 0.12174(17) 0.2059(2)
H1 H 0.3911 0.1102 0.1765
C4 C 0.34339(17) 0.15740(17) 0.20681(19)
H2 H 0.3316 0.1697 0.1776
C5 C 0.32493(18) 0.17507(18) 0.2500
C6 C 0.28614(18) 0.21386(18) 0.2500
C7 C 0.28651(19) 0.2500 0.21349(19)
H3 H 0.3104 0.2500 0.1896
C8 C 0.5000 0.0429(6) 0.1027(5)
H4 H 0.5000 0.0719 0.1200
C9 C 0.5000 0.0421(6) 0.0516(5)
H5 H 0.5000 0.0716 0.0351
C10 C 0.5000 0.0000 0.0249(5)
Cu1E Cu 0.5000 0.0000 0.29776(4)
Cu1H Cu 0.20224(4) 0.5000 0.0000
Cu1Q Cu 0.29776(4) 0.5000 0.0000
Cu1P Cu 0.0000 0.20224(4) 0.5000
Cu1K Cu 0.0000 0.29776(4) 0.5000
Cu1D Cu 0.5000 0.0000 -0.20224(4)
Cu1J Cu 0.79776(4) -0.5000 0.0000
Cu1S Cu 0.70224(4) -0.5000 0.0000
Cu1U Cu 1.0000 -0.20224(4) 0.5000
Cu1I Cu 1.0000 -0.29776(4) 0.5000
Cu1J_2 Cu 0.79776(4) 0.5000 0.0000
Cu1S_2 Cu 0.70224(4) 0.5000 0.0000
Cu1P_2 Cu 1.0000 0.20224(4) 0.5000
Cu1K_2 Cu 1.0000 0.29776(4) 0.5000
Cu1H_2 Cu 0.20224(4) -0.5000 0.0000
Cu1Q_2 Cu 0.29776(4) -0.5000 0.0000
Cu1U_2 Cu 0.0000 -0.20224(4) 0.5000
Cu1I_2 Cu 0.0000 -0.29776(4) 0.5000
Cu1A Cu 0.5000 0.0000 0.70224(4)
Cu1J_3 Cu -0.20224(4) 0.5000 0.0000
O1G O 0.44974(11) 0.05031(11) 0.29086(11)
O1H O 0.20914(11) 0.44969(11) 0.05026(11)
O1Q O 0.29086(11) 0.44974(11) 0.05031(11)
O1P O 0.05026(11) 0.20914(11) 0.44969(11)
O1O O 0.05031(11) 0.29086(11) 0.44974(11)
O1B O 0.55031(11) -0.05026(11) 0.20914(11)
O1E O 0.55026(11) -0.05031(11) 0.29086(11)
O1J O 0.79086(11) -0.44969(11) 0.05026(11)
O1S O 0.70914(11) -0.44974(11) 0.05031(11)
O1V O 0.94974(11) -0.20914(11) 0.44969(11)
O1M O 0.94969(11) -0.29086(11) 0.44974(11)
O1BA O 0.55031(11) 0.05026(11) 0.20914(11)
O1Y O 0.55026(11) 0.05031(11) 0.29086(11)
O1JA O 0.79086(11) 0.44969(11) 0.05026(11)
O1PA O 0.70914(11) 0.44974(11) 0.05031(11)
O1SA O 0.94974(11) 0.20914(11) 0.44969(11)
O1GA O 0.94969(11) 0.29086(11) 0.44974(11)
O1DA O 0.44969(11) -0.05026(11) 0.20914(11)
O1AA O 0.44974(11) -0.05031(11) 0.29086(11)
O1LA O 0.20914(11) -0.44969(11) 0.05026(11)
O1RA O 0.29086(11) -0.44974(11) 0.05031(11)
O1UA O 0.05026(11) -0.20914(11) 0.44969(11)
O1IA O 0.05031(11) -0.29086(11) 0.44974(11)
O1L O 0.20914(11) 0.55031(11) -0.05026(11)
O1LA_2 O 0.20914(11) 0.55031(11) 0.05026(11)
O1HA O 0.20914(11) 0.44969(11) -0.05026(11)
O1R O 0.29086(11) 0.55026(11) -0.05031(11)
O1QA O 0.29086(11) 0.44974(11) -0.05031(11)
O1RA_2 O 0.29086(11) 0.55026(11) 0.05031(11)
O1W O -0.05026(11) 0.20914(11) 0.55031(11)
O1TA O 0.05026(11) 0.20914(11) 0.55031(11)
O1SA_2 O -0.05026(11) 0.20914(11) 0.44969(11)
O1K O -0.05031(11) 0.29086(11) 0.55026(11)
O1GA_2 O -0.05031(11) 0.29086(11) 0.44974(11)
O1KA O 0.05031(11) 0.29086(11) 0.55026(11)
N1D N 0.5000 0.0000 -0.1248(2)
N1E N 0.5000 0.0000 0.3752(2)
N1A N 0.5000 0.0000 0.6248(2)
N1H N 0.1248(2) 0.5000 0.0000
N1J N -0.1248(2) 0.5000 0.0000
N1Q N 0.3752(2) 0.5000 0.0000
N1P N 0.0000 0.1248(2) 0.5000
N1K N 0.0000 0.3752(2) 0.5000
C1H C 0.2500 0.43522(15) 0.06478(15)
C1O C 0.06478(15) 0.2500 0.43522(15)
C1B C 0.56478(15) -0.06478(15) 0.2500
C1J C 0.7500 -0.43522(15) 0.06478(15)
C1M C 0.93522(15) -0.2500 0.43522(15)
C1Y C 0.56478(15) 0.06478(15) 0.2500
C1JA C 0.7500 0.43522(15) 0.06478(15)
C1GA C 0.93522(15) 0.2500 0.43522(15)
C1AA C 0.43522(15) -0.06478(15) 0.2500
C1LA C 0.2500 -0.43522(15) 0.06478(15)
C1IA C 0.06478(15) -0.2500 0.43522(15)
C2H C 0.2500 0.39665(18) 0.10335(18)
C2O C 0.10335(18) 0.2500 0.39665(18)
C2B C 0.60335(18) -0.10335(18) 0.2500
C2J C 0.7500 -0.39665(18) 0.10335(18)
C2M C 0.89665(18) -0.2500 0.39665(18)
C2Y C 0.60335(18) 0.10335(18) 0.2500
C2JA C 0.7500 0.39665(18) 0.10335(18)
C2GA C 0.89665(18) 0.2500 0.39665(18)
C2AA C 0.39665(18) -0.10335(18) 0.2500
C2LA C 0.2500 -0.39665(18) 0.10335(18)
C2IA C 0.10335(18) -0.2500 0.39665(18)
C3G C 0.37826(17) 0.12094(17) 0.2941(2)
C3H C 0.2059(2) 0.37906(17) 0.12174(17)
C3Q C 0.2941(2) 0.37826(17) 0.12094(17)
C3P C 0.12174(17) 0.2059(2) 0.37906(17)
C3O C 0.12094(17) 0.2941(2) 0.37826(17)
C3B C 0.62094(17) -0.12174(17) 0.2059(2)
C3E C 0.62174(17) -0.12094(17) 0.2941(2)
C3J C 0.7941(2) -0.37906(17) 0.12174(17)
C3S C 0.7059(2) -0.37826(17) 0.12094(17)
C3V C 0.87826(17) -0.2059(2) 0.37906(17)
C3M C 0.87906(17) -0.2941(2) 0.37826(17)
C3BA C 0.62094(17) 0.12174(17) 0.2059(2)
C3Y C 0.62174(17) 0.12094(17) 0.2941(2)
C3JA C 0.7941(2) 0.37906(17) 0.12174(17)
C3PA C 0.7059(2) 0.37826(17) 0.12094(17)
C3SA C 0.87826(17) 0.2059(2) 0.37906(17)
C3GA C 0.87906(17) 0.2941(2) 0.37826(17)
C3DA C 0.37906(17) -0.12174(17) 0.2059(2)
C3AA C 0.37826(17) -0.12094(17) 0.2941(2)
C3LA C 0.2059(2) -0.37906(17) 0.12174(17)
C3RA C 0.2941(2) -0.37826(17) 0.12094(17)
C3UA C 0.12174(17) -0.2059(2) 0.37906(17)
C3IA C 0.12094(17) -0.2941(2) 0.37826(17)
H1G H 0.3898 0.1089 0.3235
H1Q H 0.3235 0.3898 0.1089
H1H H 0.1765 0.3911 0.1102
H1O H 0.1089 0.3235 0.3898
H1P H 0.1102 0.1765 0.3911
H1B H 0.6089 -0.1102 0.1765
H1E H 0.6102 -0.1089 0.3235
H1S H 0.6765 -0.3898 0.1089
H1J H 0.8235 -0.3911 0.1102
H1M H 0.8911 -0.3235 0.3898
H1V H 0.8898 -0.1765 0.3911
H1BA H 0.6089 0.1102 0.1765
H1Y H 0.6102 0.1089 0.3235
H1PA H 0.6765 0.3898 0.1089
H1JA H 0.8235 0.3911 0.1102
H1GA H 0.8911 0.3235 0.3898
H1SA H 0.8898 0.1765 0.3911
H1DA H 0.3911 -0.1102 0.1765
H1AA H 0.3898 -0.1089 0.3235
H1RA H 0.3235 -0.3898 0.1089
H1LA H 0.1765 -0.3911 0.1102
H1IA H 0.1089 -0.3235 0.3898
H1UA H 0.1102 -0.1765 0.3911
C4G C 0.34260(17) 0.15661(17) 0.29319(19)
C4H C 0.20681(19) 0.34339(17) 0.15740(17)
C4Q C 0.29319(19) 0.34260(17) 0.15661(17)
C4P C 0.15740(17) 0.20681(19) 0.34339(17)
C4O C 0.15661(17) 0.29319(19) 0.34260(17)
C4B C 0.65661(17) -0.15740(17) 0.20681(19)
C4E C 0.65740(17) -0.15661(17) 0.29319(19)
C4J C 0.79319(19) -0.34339(17) 0.15740(17)
C4S C 0.70681(19) -0.34260(17) 0.15661(17)
C4V C 0.84260(17) -0.20681(19) 0.34339(17)
C4M C 0.84339(17) -0.29319(19) 0.34260(17)
C4BA C 0.65661(17) 0.15740(17) 0.20681(19)
C4Y C 0.65740(17) 0.15661(17) 0.29319(19)
C4JA C 0.79319(19) 0.34339(17) 0.15740(17)
C4PA C 0.70681(19) 0.34260(17) 0.15661(17)
C4SA C 0.84260(17) 0.20681(19) 0.34339(17)
C4GA C 0.84339(17) 0.29319(19) 0.34260(17)
C4DA C 0.34339(17) -0.15740(17) 0.20681(19)
C4AA C 0.34260(17) -0.15661(17) 0.29319(19)
C4LA C 0.20681(19) -0.34339(17) 0.15740(17)
C4RA C 0.29319(19) -0.34260(17) 0.15661(17)
C4UA C 0.15740(17) -0.20681(19) 0.34339(17)
C4IA C 0.15661(17) -0.29319(19) 0.34260(17)
H2G H 0.3303 0.1684 0.3224
H2Q H 0.3224 0.3303 0.1684
H2H H 0.1776 0.3316 0.1697
H2O H 0.1684 0.3224 0.3303
H2P H 0.1697 0.1776 0.3316
H2B H 0.6684 -0.1697 0.1776
H2E H 0.6697 -0.1684 0.3224
H2S H 0.6776 -0.3303 0.1684
H2J H 0.8224 -0.3316 0.1697
H2M H 0.8316 -0.3224 0.3303
H2V H 0.8303 -0.1776 0.3316
H2BA H 0.6684 0.1697 0.1776
H2Y H 0.6697 0.1684 0.3224
H2PA H 0.6776 0.3303 0.1684
H2JA H 0.8224 0.3316 0.1697
H2GA H 0.8316 0.3224 0.3303
H2SA H 0.8303 0.1776 0.3316
H2DA H 0.3316 -0.1697 0.1776
H2AA H 0.3303 -0.1684 0.3224
H2RA H 0.3224 -0.3303 0.1684
H2LA H 0.1776 -0.3316 0.1697
H2IA H 0.1684 -0.3224 0.3303
H2UA H 0.1697 -0.1776 0.3316
C5H C 0.2500 0.32493(18) 0.17507(18)
C5O C 0.17507(18) 0.2500 0.32493(18)
C5B C 0.67507(18) -0.17507(18) 0.2500
C5J C 0.7500 -0.32493(18) 0.17507(18)
C5M C 0.82493(18) -0.2500 0.32493(18)
C5Y C 0.67507(18) 0.17507(18) 0.2500
C5JA C 0.7500 0.32493(18) 0.17507(18)
C5GA C 0.82493(18) 0.2500 0.32493(18)
C5AA C 0.32493(18) -0.17507(18) 0.2500
C5LA C 0.2500 -0.32493(18) 0.17507(18)
C5IA C 0.17507(18) -0.2500 0.32493(18)
C6H C 0.2500 0.28614(18) 0.21386(18)
C6O C 0.21386(18) 0.2500 0.28614(18)
C6B C 0.71386(18) -0.21386(18) 0.2500
C6J C 0.7500 -0.28614(18) 0.21386(18)
C6M C 0.78614(18) -0.2500 0.28614(18)
C6Y C 0.71386(18) 0.21386(18) 0.2500
C6JA C 0.7500 0.28614(18) 0.21386(18)
C6GA C 0.78614(18) 0.2500 0.28614(18)
C6AA C 0.28614(18) -0.21386(18) 0.2500
C6LA C 0.2500 -0.28614(18) 0.21386(18)
C6IA C 0.21386(18) -0.2500 0.28614(18)
C7H C 0.21349(19) 0.28651(19) 0.2500
C7G C 0.2500 0.21349(19) 0.28651(19)
C7B C 0.71349(19) -0.2500 0.21349(19)
C7J C 0.78651(19) -0.28651(19) 0.2500
C7E C 0.7500 -0.21349(19) 0.28651(19)
C7BA C 0.71349(19) 0.2500 0.21349(19)
C7GA C 0.78651(19) 0.28651(19) 0.2500
C7Y C 0.7500 0.21349(19) 0.28651(19)
C7DA C 0.28651(19) -0.2500 0.21349(19)
C7IA C 0.21349(19) -0.28651(19) 0.2500
C7AA C 0.2500 -0.21349(19) 0.28651(19)
H3G H 0.2500 0.1896 0.3104
H3H H 0.1896 0.3104 0.2500
H3B H 0.6896 -0.2500 0.1896
H3E H 0.7500 -0.1896 0.3104
H3J H 0.8104 -0.3104 0.2500
H3BA H 0.6896 0.2500 0.1896
H3Y H 0.7500 0.1896 0.3104
H3GA H 0.8104 0.3104 0.2500
H3DA H 0.3104 -0.2500 0.1896
H3AA H 0.2500 -0.1896 0.3104
H3IA H 0.1896 -0.3104 0.2500
C8B C 0.5000 -0.0429(6) 0.1027(5)
C8D C 0.5000 -0.0429(6) -0.1027(5)
C8F C 0.5000 0.0429(6) -0.1027(5)
C8G C 0.4571(6) 0.0000 0.3973(5)
C8E C 0.5429(6) 0.0000 0.3973(5)
C8C C 0.5429(6) 0.0000 0.6027(5)
C8A C 0.4571(6) 0.0000 0.6027(5)
C8H C 0.1027(5) 0.5000 0.0429(6)
C8L C 0.1027(5) 0.5000 -0.0429(6)
C8N C -0.1027(5) 0.5000 -0.0429(6)
C8J C -0.1027(5) 0.5000 0.0429(6)
H4B H 0.5000 -0.0719 0.1200
H4F H 0.5000 0.0719 -0.1200
H4D H 0.5000 -0.0719 -0.1200
H4G H 0.4281 0.0000 0.3800
H4E H 0.5719 0.0000 0.3800
H4A H 0.4281 0.0000 0.6200
H4C H 0.5719 0.0000 0.6200
H4H H 0.1200 0.5000 0.0719
H4L H 0.1200 0.5000 -0.0719
H4J H -0.1200 0.5000 0.0719
H4N H -0.1200 0.5000 -0.0719
C9B C 0.5000 -0.0421(6) 0.0516(5)
C9D C 0.5000 -0.0421(6) -0.0516(5)
C9F C 0.5000 0.0421(6) -0.0516(5)
C9G C 0.4579(6) 0.0000 0.4484(5)
C9E C 0.5421(6) 0.0000 0.4484(5)
C9C C 0.5421(6) 0.0000 0.5516(5)
C9A C 0.4579(6) 0.0000 0.5516(5)
C9H C 0.0516(5) 0.5000 0.0421(6)
C9L C 0.0516(5) 0.5000 -0.0421(6)
C9N C -0.0516(5) 0.5000 -0.0421(6)
C9J C -0.0516(5) 0.5000 0.0421(6)
H5B H 0.5000 -0.0716 0.0351
H5F H 0.5000 0.0716 -0.0351
H5D H 0.5000 -0.0716 -0.0351
H5G H 0.4284 0.0000 0.4649
H5E H 0.5716 0.0000 0.4649
H5A H 0.4284 0.0000 0.5351
H5C H 0.5716 0.0000 0.5351
H5H H 0.0351 0.5000 0.0716
H5L H 0.0351 0.5000 -0.0716
H5J H -0.0351 0.5000 0.0716
H5N H -0.0351 0.5000 -0.0716
C10D C 0.5000 0.0000 -0.0249(5)
C10E C 0.5000 0.0000 0.4751(5)
C10A C 0.5000 0.0000 0.5249(5)
C10H C 0.0249(5) 0.5000 0.0000
C10J C -0.0249(5) 0.5000 0.0000
C11? C 0.4559(7) 0.0000 0.1018(6)
C12? C 0.4568(8) 0.0000 0.0513(6)
H6? H 0.4268 0.0000 0.1191
H7? H 0.4275 0.0000 0.0345
loop_
_geom_bond_atom_site_label_1
_geom_bond_atom_site_label_2
_geom_bond_site_symmetry_1
_geom_bond_site_symmetry_2
Cu1 O1 1_555 1_555
O1 C1 1_555 1_555
N1 Cu1 1_555 1_555
C1 C2 1_555 1_555
C2 C3 1_555 1_555
C3 H1 1_555 1_555
C4 C3 1_555 1_555
H2 C4 1_555 1_555
C5 C4 1_555 1_555
C6 C5 1_555 1_555
C7 C6 1_555 1_555
H3 C7 1_555 1_555
C8 N1 1_555 1_555
H4 C8 1_555 1_555
C9 C8 1_555 1_555
H5 C9 1_555 1_555
C10 C9 1_555 1_555
Cu1E O1G 1_555 1_555
Cu1H O1H 1_555 1_555
Cu1Q O1Q 1_555 1_555
Cu1P O1P 1_555 1_555
Cu1K O1O 1_555 1_555
Cu1D N1D 1_555 1_555
Cu1J O1J 1_555 1_555
Cu1S O1S 1_555 1_555
Cu1U O1V 1_555 1_555
Cu1I O1M 1_555 1_555
Cu1J_2 O1JA 1_555 1_555
Cu1S_2 O1PA 1_555 1_555
Cu1P_2 O1SA 1_555 1_555
Cu1K_2 O1GA 1_555 1_555
Cu1H_2 O1LA 1_555 1_555
Cu1Q_2 O1RA 1_555 1_555
Cu1U_2 O1UA 1_555 1_555
Cu1I_2 O1IA 1_555 1_555
Cu1A N1A 1_555 1_555
Cu1J_3 N1J 1_555 1_555
O1G C1 1_555 1_555
O1H C1H 1_555 1_555
O1Q C1H 1_555 1_555
O1P C1O 1_555 1_555
O1O C1O 1_555 1_555
O1B Cu1 1_555 1_555
O1E Cu1E 1_555 1_555
O1J C1J 1_555 1_555
O1S C1J 1_555 1_555
O1V C1M 1_555 1_555
O1M C1M 1_555 1_555
O1BA Cu1 1_555 1_555
O1Y Cu1E 1_555 1_555
O1JA C1JA 1_555 1_555
O1PA C1JA 1_555 1_555
O1SA C1GA 1_555 1_555
O1GA C1GA 1_555 1_555
O1DA Cu1 1_555 1_555
O1AA Cu1E 1_555 1_555
O1LA C1LA 1_555 1_555
O1RA C1LA 1_555 1_555
O1UA C1IA 1_555 1_555
O1IA C1IA 1_555 1_555
O1L Cu1H 1_555 1_555
O1LA_2 Cu1H 1_555 1_555
O1HA Cu1H 1_555 1_555
O1R Cu1Q 1_555 1_555
O1QA Cu1Q 1_555 1_555
O1RA_2 Cu1Q 1_555 1_555
O1W Cu1P 1_555 1_555
O1TA Cu1P 1_555 1_555
O1SA_2 Cu1P 1_555 1_555
O1K Cu1K 1_555 1_555
O1GA_2 Cu1K 1_555 1_555
O1KA Cu1K 1_555 1_555
N1D C8D 1_555 1_555
N1E Cu1E 1_555 1_555
N1A C8C 1_555 1_555
N1H Cu1H 1_555 1_555
N1J C8N 1_555 1_555
N1Q Cu1Q 1_555 1_555
N1P Cu1P 1_555 1_555
N1K Cu1K 1_555 1_555
C1H C2H 1_555 1_555
C1O C2O 1_555 1_555
C1B O1B 1_555 1_555
C1J C2J 1_555 1_555
C1M C2M 1_555 1_555
C1Y O1BA 1_555 1_555
C1JA C2JA 1_555 1_555
C1GA C2GA 1_555 1_555
C1AA O1DA 1_555 1_555
C1LA C2LA 1_555 1_555
C1IA C2IA 1_555 1_555
C2H C3H 1_555 1_555
C2O C3P 1_555 1_555
C2B C1B 1_555 1_555
C2J C3J 1_555 1_555
C2M C3V 1_555 1_555
C2Y C1Y 1_555 1_555
C2JA C3JA 1_555 1_555
C2GA C3SA 1_555 1_555
C2AA C1AA 1_555 1_555
C2LA C3LA 1_555 1_555
C2IA C3UA 1_555 1_555
C3G C2 1_555 1_555
C3H H1H 1_555 1_555
C3Q C2H 1_555 1_555
C3P H1P 1_555 1_555
C3O C2O 1_555 1_555
C3B C2B 1_555 1_555
C3E C2B 1_555 1_555
C3J H1J 1_555 1_555
C3S C2J 1_555 1_555
C3V H1V 1_555 1_555
C3M C2M 1_555 1_555
C3BA C2Y 1_555 1_555
C3Y C2Y 1_555 1_555
C3JA H1JA 1_555 1_555
C3PA C2JA 1_555 1_555
C3SA H1SA 1_555 1_555
C3GA C2GA 1_555 1_555
C3DA C2AA 1_555 1_555
C3AA C2AA 1_555 1_555
C3LA H1LA 1_555 1_555
C3RA C2LA 1_555 1_555
C3UA H1UA 1_555 1_555
C3IA C2IA 1_555 1_555
H1G C3G 1_555 1_555
H1Q C3Q 1_555 1_555
H1O C3O 1_555 1_555
H1B C3B 1_555 1_555
H1E C3E 1_555 1_555
H1S C3S 1_555 1_555
H1M C3M 1_555 1_555
H1BA C3BA 1_555 1_555
H1Y C3Y 1_555 1_555
H1PA C3PA 1_555 1_555
H1GA C3GA 1_555 1_555
H1DA C3DA 1_555 1_555
H1AA C3AA 1_555 1_555
H1RA C3RA 1_555 1_555
H1IA C3IA 1_555 1_555
C4G C5 1_555 1_555
C4H C3H 1_555 1_555
C4Q C3Q 1_555 1_555
C4P C3P 1_555 1_555
C4O C3O 1_555 1_555
C4B C3B 1_555 1_555
C4E C3E 1_555 1_555
C4J C3J 1_555 1_555
C4S C3S 1_555 1_555
C4V C3V 1_555 1_555
C4M C3M 1_555 1_555
C4BA C3BA 1_555 1_555
C4Y C3Y 1_555 1_555
C4JA C3JA 1_555 1_555
C4PA C3PA 1_555 1_555
C4SA C3SA 1_555 1_555
C4GA C3GA 1_555 1_555
C4DA C3DA 1_555 1_555
C4AA C3AA 1_555 1_555
C4LA C3LA 1_555 1_555
C4RA C3RA 1_555 1_555
C4UA C3UA 1_555 1_555
C4IA C3IA 1_555 1_555
H2G C4G 1_555 1_555
H2Q C4Q 1_555 1_555
H2H C4H 1_555 1_555
H2O C4O 1_555 1_555
H2P C4P 1_555 1_555
H2B C4B 1_555 1_555
H2E C4E 1_555 1_555
H2S C4S 1_555 1_555
H2J C4J 1_555 1_555
H2M C4M 1_555 1_555
H2V C4V 1_555 1_555
H2BA C4BA 1_555 1_555
H2Y C4Y 1_555 1_555
H2PA C4PA 1_555 1_555
H2JA C4JA 1_555 1_555
H2GA C4GA 1_555 1_555
H2SA C4SA 1_555 1_555
H2DA C4DA 1_555 1_555
H2AA C4AA 1_555 1_555
H2RA C4RA 1_555 1_555
H2LA C4LA 1_555 1_555
H2IA C4IA 1_555 1_555
H2UA C4UA 1_555 1_555
C5H C4H 1_555 1_555
C5O C4P 1_555 1_555
C5B C4B 1_555 1_555
C5J C4J 1_555 1_555
C5M C4V 1_555 1_555
C5Y C4BA 1_555 1_555
C5JA C4JA 1_555 1_555
C5GA C4SA 1_555 1_555
C5AA C4DA 1_555 1_555
C5LA C4LA 1_555 1_555
C5IA C4UA 1_555 1_555
C6H C7 1_555 1_555
C6O C5O 1_555 1_555
C6B C5B 1_555 1_555
C6J C5J 1_555 1_555
C6M C5M 1_555 1_555
C6Y C5Y 1_555 1_555
C6JA C5JA 1_555 1_555
C6GA C5GA 1_555 1_555
C6AA C5AA 1_555 1_555
C6LA C5LA 1_555 1_555
C6IA C5IA 1_555 1_555
C7H C6H 1_555 1_555
C7G C6 1_555 1_555
C7B C6B 1_555 1_555
C7J C6J 1_555 1_555
C7E C6B 1_555 1_555
C7BA C6Y 1_555 1_555
C7GA C6JA 1_555 1_555
C7Y C6Y 1_555 1_555
C7DA C6AA 1_555 1_555
C7IA C6LA 1_555 1_555
C7AA C6AA 1_555 1_555
H3G C7G 1_555 1_555
H3H C7H 1_555 1_555
H3B C7B 1_555 1_555
H3E C7E 1_555 1_555
H3J C7J 1_555 1_555
H3BA C7BA 1_555 1_555
H3Y C7Y 1_555 1_555
H3GA C7GA 1_555 1_555
H3DA C7DA 1_555 1_555
H3AA C7AA 1_555 1_555
H3IA C7IA 1_555 1_555
C8B N1 1_555 1_555
C8D H4D 1_555 1_555
C8F N1D 1_555 1_555
C8G N1E 1_555 1_555
C8E N1E 1_555 1_555
C8C H4C 1_555 1_555
C8A N1A 1_555 1_555
C8H N1H 1_555 1_555
C8L N1H 1_555 1_555
C8N H4N 1_555 1_555
C8J N1J 1_555 1_555
H4B C8B 1_555 1_555
H4F C8F 1_555 1_555
H4G C8G 1_555 1_555
H4E C8E 1_555 1_555
H4A C8A 1_555 1_555
H4H C8H 1_555 1_555
H4L C8L 1_555 1_555
H4J C8J 1_555 1_555
C9B C10 1_555 1_555
C9D C8D 1_555 1_555
C9F C8F 1_555 1_555
C9G C8G 1_555 1_555
C9E C8E 1_555 1_555
C9C C8C 1_555 1_555
C9A C8A 1_555 1_555
C9H C8H 1_555 1_555
C9L C8L 1_555 1_555
C9N C8N 1_555 1_555
C9J C8J 1_555 1_555
H5B C9B 1_555 1_555
H5F C9F 1_555 1_555
H5D C9D 1_555 1_555
H5G C9G 1_555 1_555
H5E C9E 1_555 1_555
H5A C9A 1_555 1_555
H5C C9C 1_555 1_555
H5H C9H 1_555 1_555
H5L C9L 1_555 1_555
H5J C9J 1_555 1_555
H5N C9N 1_555 1_555
C10D C10 1_555 1_555
C10E C9G 1_555 1_555
C10A C9C 1_555 1_555
C10H C9H 1_555 1_555
C10J C9N 1_555 1_555
O1E C1B 1_555 1_555
O1Y C1Y 1_555 1_555
O1AA C1AA 1_555 1_555
C3G C4G 1_555 1_555
C4Q C5H 1_555 1_555
C4O C5O 1_555 1_555
C4E C5B 1_555 1_555
C4S C5J 1_555 1_555
C4M C5M 1_555 1_555
C4Y C5Y 1_555 1_555
C4PA C5JA 1_555 1_555
C4GA C5GA 1_555 1_555
C4AA C5AA 1_555 1_555
C4RA C5LA 1_555 1_555
C4IA C5IA 1_555 1_555
C5H C6H 1_555 1_555
C6O C7H 1_555 1_555
C6O C7G 1_555 1_555
C6J C7B 1_555 1_555
C6M C7J 1_555 1_555
C6M C7E 1_555 1_555
C6JA C7BA 1_555 1_555
C6GA C7GA 1_555 1_555
C6GA C7Y 1_555 1_555
C6LA C7DA 1_555 1_555
C6IA C7IA 1_555 1_555
C6IA C7AA 1_555 1_555
C8B C9B 1_555 1_555
C9D C10D 1_555 1_555
C9F C10D 1_555 1_555
C9E C10E 1_555 1_555
C9A C10A 1_555 1_555
C9L C10H 1_555 1_555
C9J C10J 1_555 1_555
C10E C10A 1_555 1_555
C10H C10J 1_555 1_555

#END
