
#######################################################################
#
#                 Cambridge Crystallographic Data Centre
#                                CCDC 
#
#######################################################################
#
# If this CIF has been generated from an entry in the Cambridge 
# Structural Database, then it will include bibliographic, chemical, 
# crystal, experimental, refinement or atomic coordinate data resulting 
# from the CCDC's data processing and validation procedures.
#
#######################################################################

data_ICAROV
_chemical_formula_moiety         '(C138 H84 N6 Ni6 O24)n'
_chemical_name_systematic        
catena-(tetrakis(\m~6~-benzene-1,3,5-tribenzoato)-bis(\m~2~-4,4'-bipyridine)-hexa-nickel)
_symmetry_cell_setting           cubic
_symmetry_space_group_name_H-M   'P m -3 n'
_symmetry_Int_Tables_number      223
_space_group_name_Hall           '-P 4n 2 3'
loop_
_symmetry_equiv_pos_site_id
_symmetry_equiv_pos_as_xyz
1 x,y,z
2 -x,-y,z
3 -x,y,-z
4 x,-y,-z
5 z,x,y
6 z,-x,-y
7 -z,-x,y
8 -z,x,-y
9 y,z,x
10 -y,z,-x
11 y,-z,-x
12 -y,-z,x
13 1/2+y,1/2+x,1/2-z
14 1/2-y,1/2-x,1/2-z
15 1/2+y,1/2-x,1/2+z
16 1/2-y,1/2+x,1/2+z
17 1/2+x,1/2+z,1/2-y
18 1/2-x,1/2+z,1/2+y
19 1/2-x,1/2-z,1/2-y
20 1/2+x,1/2-z,1/2+y
21 1/2+z,1/2+y,1/2-x
22 1/2+z,1/2-y,1/2+x
23 1/2-z,1/2+y,1/2+x
24 1/2-z,1/2-y,1/2-x
25 -x,-y,-z
26 x,y,-z
27 x,-y,z
28 -x,y,z
29 -z,-x,-y
30 -z,x,y
31 z,x,-y
32 z,-x,y
33 -y,-z,-x
34 y,-z,x
35 -y,z,x
36 y,z,-x
37 1/2-y,1/2-x,1/2+z
38 1/2+y,1/2+x,1/2+z
39 1/2-y,1/2+x,1/2-z
40 1/2+y,1/2-x,1/2-z
41 1/2-x,1/2-z,1/2+y
42 1/2+x,1/2-z,1/2-y
43 1/2+x,1/2+z,1/2+y
44 1/2-x,1/2+z,1/2-y
45 1/2-z,1/2-y,1/2+x
46 1/2-z,1/2+y,1/2-x
47 1/2+z,1/2-y,1/2-x
48 1/2+z,1/2+y,1/2+x
_cell_length_a                   27.560(3)
_cell_length_b                   27.560(3)
_cell_length_c                   27.560(3)
_cell_angle_alpha                90
_cell_angle_beta                 90
_cell_angle_gamma                90
_cell_volume                     20933.3
_exptl_crystal_colour            green
_exptl_crystal_description       block
_cell_formula_units_Z            2
_chemical_properties_physical    moisture-sensitive
loop_
_atom_site_label
_atom_site_type_symbol
_atom_site_fract_x
_atom_site_fract_y
_atom_site_fract_z
Ni1 Ni 0.5000 0.201561(9) 0.0000
O1 O 0.44919(4) 0.20959(4) 0.05116(4)
C1 C 0.43438(5) 0.2500 0.06562(5)
C2 C 0.39591(5) 0.2500 0.10409(5)
C3 C 0.28596(6) 0.2500 0.21404(6)
C4 C 0.37821(8) 0.20682(6) 0.12269(8)
H1 H 0.3902 0.1774 0.1112
C5 C 0.34300(8) 0.20716(7) 0.15818(9)
H2 H 0.3317 0.1779 0.1705
C6 C 0.2500 0.28543(6) 0.21457(6)
H3 H 0.2500 0.3093 0.1907
C7 C 0.32421(6) 0.2500 0.17579(6)
N1 N 0.5000 0.12840(8) 0.0000
C8 C 0.5000 0.02724(9) 0.0000
C9 C 0.5000 0.05321(17) 0.0439(2)
H4 H 0.5000 0.0371 0.0735
C10 C 0.5000 0.10383(15) 0.0419(2)
H5 H 0.5000 0.1212 0.0708
Ni1U Ni 0.5000 0.298439(9) 0.0000
Ni1M Ni 0.298439(9) 0.0000 0.5000
Ni1H Ni 0.201561(9) 0.0000 0.5000
Ni1P Ni 0.0000 0.5000 0.298439(9)
Ni1D Ni 0.0000 0.5000 0.201561(9)
Ni1A Ni 0.5000 -0.201561(9) 0.0000
Ni1L Ni 0.701561(9) 0.0000 -0.5000
Ni1I Ni 0.798439(9) 0.0000 -0.5000
Ni1Q Ni 1.0000 0.5000 -0.298439(9)
Ni1E Ni 1.0000 0.5000 -0.201561(9)
Ni1M_2 Ni 0.298439(9) 0.0000 -0.5000
Ni1H_2 Ni 0.201561(9) 0.0000 -0.5000
Ni1Q_2 Ni 0.0000 0.5000 -0.298439(9)
Ni1E_2 Ni 0.0000 0.5000 -0.201561(9)
Ni1L_2 Ni 0.701561(9) 0.0000 0.5000
Ni1I_2 Ni 0.798439(9) 0.0000 0.5000
Ni1P_2 Ni 1.0000 0.5000 0.298439(9)
Ni1D_2 Ni 1.0000 0.5000 0.201561(9)
Ni1T Ni 0.5000 0.701561(9) 0.0000
O1W O 0.44884(4) 0.29041(4) 0.05081(4)
O1M O 0.29041(4) 0.05081(4) 0.44884(4)
O1H O 0.20959(4) 0.05116(4) 0.44919(4)
O1R O 0.05081(4) 0.44884(4) 0.29041(4)
O1D O 0.05116(4) 0.44919(4) 0.20959(4)
O1B O 0.55081(4) 0.20959(4) -0.05116(4)
O1U O 0.55116(4) 0.29041(4) -0.05081(4)
O1N O 0.70959(4) 0.05081(4) -0.44884(4)
O1I O 0.79041(4) 0.05116(4) -0.44919(4)
O1S O 0.94919(4) 0.44884(4) -0.29041(4)
O1G O 0.94884(4) 0.44919(4) -0.20959(4)
O1Y O 0.44919(4) 0.20959(4) -0.05116(4)
O1RA O 0.44884(4) 0.29041(4) -0.05081(4)
O1JA O 0.29041(4) 0.05081(4) -0.44884(4)
O1IA O 0.20959(4) 0.05116(4) -0.44919(4)
O1NA O 0.05081(4) 0.44884(4) -0.29041(4)
O1DA O 0.05116(4) 0.44919(4) -0.20959(4)
O1AA O 0.55081(4) 0.20959(4) 0.05116(4)
O1TA O 0.55116(4) 0.29041(4) 0.05081(4)
O1MA O 0.70959(4) 0.05081(4) 0.44884(4)
O1HA O 0.79041(4) 0.05116(4) 0.44919(4)
O1OA O 0.94919(4) 0.44884(4) 0.29041(4)
O1CA O 0.94884(4) 0.44919(4) 0.20959(4)
O1O O 0.29041(4) -0.05081(4) 0.55116(4)
O1JA_2 O 0.29041(4) 0.05081(4) 0.55116(4)
O1LA O 0.29041(4) -0.05081(4) 0.44884(4)
O1J O 0.20959(4) -0.05116(4) 0.55081(4)
O1GA O 0.20959(4) -0.05116(4) 0.44919(4)
O1IA_2 O 0.20959(4) 0.05116(4) 0.55081(4)
O1P O -0.05081(4) 0.55116(4) 0.29041(4)
O1QA O 0.05081(4) 0.55116(4) 0.29041(4)
O1OA_2 O -0.05081(4) 0.44884(4) 0.29041(4)
O1F O -0.05116(4) 0.55081(4) 0.20959(4)
O1CA_2 O -0.05116(4) 0.44919(4) 0.20959(4)
O1EA O 0.05116(4) 0.55081(4) 0.20959(4)
C1H C 0.2500 0.06562(5) 0.43438(5)
C1D C 0.06562(5) 0.43438(5) 0.2500
C1B C 0.56562(5) 0.2500 -0.06562(5)
C1I C 0.7500 0.06562(5) -0.43438(5)
C1G C 0.93438(5) 0.43438(5) -0.2500
C1Y C 0.43438(5) 0.2500 -0.06562(5)
C1IA C 0.2500 0.06562(5) -0.43438(5)
C1DA C 0.06562(5) 0.43438(5) -0.2500
C1AA C 0.56562(5) 0.2500 0.06562(5)
C1HA C 0.7500 0.06562(5) 0.43438(5)
C1CA C 0.93438(5) 0.43438(5) 0.2500
C2H C 0.2500 0.10409(5) 0.39591(5)
C2D C 0.10409(5) 0.39591(5) 0.2500
C2B C 0.60409(5) 0.2500 -0.10409(5)
C2I C 0.7500 0.10409(5) -0.39591(5)
C2G C 0.89591(5) 0.39591(5) -0.2500
C2Y C 0.39591(5) 0.2500 -0.10409(5)
C2IA C 0.2500 0.10409(5) -0.39591(5)
C2DA C 0.10409(5) 0.39591(5) -0.2500
C2AA C 0.60409(5) 0.2500 0.10409(5)
C2HA C 0.7500 0.10409(5) 0.39591(5)
C2CA C 0.89591(5) 0.39591(5) 0.2500
C3D C 0.21404(6) 0.28596(6) 0.2500
C3H C 0.2500 0.21404(6) 0.28596(6)
C3B C 0.71404(6) 0.2500 -0.21404(6)
C3G C 0.78596(6) 0.28596(6) -0.2500
C3I C 0.7500 0.21404(6) -0.28596(6)
C3Y C 0.28596(6) 0.2500 -0.21404(6)
C3DA C 0.21404(6) 0.28596(6) -0.2500
C3IA C 0.2500 0.21404(6) -0.28596(6)
C3AA C 0.71404(6) 0.2500 0.21404(6)
C3CA C 0.78596(6) 0.28596(6) 0.2500
C3HA C 0.7500 0.21404(6) 0.28596(6)
C4M C 0.29318(6) 0.12179(8) 0.37731(8)
C4H C 0.20682(6) 0.12269(8) 0.37821(8)
C4R C 0.12179(8) 0.37731(8) 0.29318(6)
C4D C 0.12269(8) 0.37821(8) 0.20682(6)
C4W C 0.37731(8) 0.29318(6) 0.12179(8)
C4B C 0.62179(8) 0.20682(6) -0.12269(8)
C4N C 0.70682(6) 0.12179(8) -0.37731(8)
C4I C 0.79318(6) 0.12269(8) -0.37821(8)
C4S C 0.87821(8) 0.37731(8) -0.29318(6)
C4G C 0.87731(8) 0.37821(8) -0.20682(6)
C4U C 0.62269(8) 0.29318(6) -0.12179(8)
C4Y C 0.37821(8) 0.20682(6) -0.12269(8)
C4JA C 0.29318(6) 0.12179(8) -0.37731(8)
C4IA C 0.20682(6) 0.12269(8) -0.37821(8)
C4NA C 0.12179(8) 0.37731(8) -0.29318(6)
C4DA C 0.12269(8) 0.37821(8) -0.20682(6)
C4RA C 0.37731(8) 0.29318(6) -0.12179(8)
C4AA C 0.62179(8) 0.20682(6) 0.12269(8)
C4MA C 0.70682(6) 0.12179(8) 0.37731(8)
C4HA C 0.79318(6) 0.12269(8) 0.37821(8)
C4OA C 0.87821(8) 0.37731(8) 0.29318(6)
C4CA C 0.87731(8) 0.37821(8) 0.20682(6)
C4TA C 0.62269(8) 0.29318(6) 0.12179(8)
H1H H 0.1774 0.1112 0.3902
H1M H 0.3226 0.1098 0.3888
H1D H 0.1112 0.3902 0.1774
H1R H 0.1098 0.3888 0.3226
H1W H 0.3888 0.3226 0.1098
H1B H 0.6098 0.1774 -0.1112
H1I H 0.8226 0.1112 -0.3902
H1N H 0.6774 0.1098 -0.3888
H1G H 0.8888 0.3902 -0.1774
H1S H 0.8902 0.3888 -0.3226
H1U H 0.6112 0.3226 -0.1098
H1Y H 0.3902 0.1774 -0.1112
H1IA H 0.1774 0.1112 -0.3902
H1JA H 0.3226 0.1098 -0.3888
H1DA H 0.1112 0.3902 -0.1774
H1NA H 0.1098 0.3888 -0.3226
H1RA H 0.3888 0.3226 -0.1098
H1AA H 0.6098 0.1774 0.1112
H1HA H 0.8226 0.1112 0.3902
H1MA H 0.6774 0.1098 0.3888
H1CA H 0.8888 0.3902 0.1774
H1OA H 0.8902 0.3888 0.3226
H1TA H 0.6112 0.3226 0.1098
C5M C 0.29284(7) 0.15700(8) 0.34182(9)
C5H C 0.20716(7) 0.15818(9) 0.34300(8)
C5R C 0.15700(8) 0.34182(9) 0.29284(7)
C5D C 0.15818(9) 0.34300(8) 0.20716(7)
C5W C 0.34182(9) 0.29284(7) 0.15700(8)
C5B C 0.65700(8) 0.20716(7) -0.15818(9)
C5N C 0.70716(7) 0.15700(8) -0.34182(9)
C5I C 0.79284(7) 0.15818(9) -0.34300(8)
C5S C 0.84300(8) 0.34182(9) -0.29284(7)
C5G C 0.84182(9) 0.34300(8) -0.20716(7)
C5U C 0.65818(9) 0.29284(7) -0.15700(8)
C5Y C 0.34300(8) 0.20716(7) -0.15818(9)
C5JA C 0.29284(7) 0.15700(8) -0.34182(9)
C5IA C 0.20716(7) 0.15818(9) -0.34300(8)
C5NA C 0.15700(8) 0.34182(9) -0.29284(7)
C5DA C 0.15818(9) 0.34300(8) -0.20716(7)
C5RA C 0.34182(9) 0.29284(7) -0.15700(8)
C5AA C 0.65700(8) 0.20716(7) 0.15818(9)
C5MA C 0.70716(7) 0.15700(8) 0.34182(9)
C5HA C 0.79284(7) 0.15818(9) 0.34300(8)
C5OA C 0.84300(8) 0.34182(9) 0.29284(7)
C5CA C 0.84182(9) 0.34300(8) 0.20716(7)
C5TA C 0.65818(9) 0.29284(7) 0.15700(8)
H2H H 0.1779 0.1705 0.3317
H2M H 0.3221 0.1683 0.3295
H2D H 0.1705 0.3317 0.1779
H2R H 0.1683 0.3295 0.3221
H2W H 0.3295 0.3221 0.1683
H2B H 0.6683 0.1779 -0.1705
H2I H 0.8221 0.1705 -0.3317
H2N H 0.6779 0.1683 -0.3295
H2G H 0.8295 0.3317 -0.1779
H2S H 0.8317 0.3295 -0.3221
H2U H 0.6705 0.3221 -0.1683
H2Y H 0.3317 0.1779 -0.1705
H2IA H 0.1779 0.1705 -0.3317
H2JA H 0.3221 0.1683 -0.3295
H2DA H 0.1705 0.3317 -0.1779
H2NA H 0.1683 0.3295 -0.3221
H2RA H 0.3295 0.3221 -0.1683
H2AA H 0.6683 0.1779 0.1705
H2HA H 0.8221 0.1705 0.3317
H2MA H 0.6779 0.1683 0.3295
H2CA H 0.8295 0.3317 0.1779
H2OA H 0.8317 0.3295 0.3221
H2TA H 0.6705 0.3221 0.1683
C6D C 0.21457(6) 0.2500 0.28543(6)
C6H C 0.28543(6) 0.21457(6) 0.2500
C6B C 0.7500 0.28543(6) -0.21457(6)
C6G C 0.78543(6) 0.2500 -0.28543(6)
C6I C 0.71457(6) 0.21457(6) -0.2500
C6Y C 0.2500 0.28543(6) -0.21457(6)
C6DA C 0.21457(6) 0.2500 -0.28543(6)
C6IA C 0.28543(6) 0.21457(6) -0.2500
C6AA C 0.7500 0.28543(6) 0.21457(6)
C6CA C 0.78543(6) 0.2500 0.28543(6)
C6HA C 0.71457(6) 0.21457(6) 0.2500
H3H H 0.3093 0.1907 0.2500
H3D H 0.1907 0.2500 0.3093
H3B H 0.7500 0.3093 -0.1907
H3I H 0.6907 0.1907 -0.2500
H3G H 0.8093 0.2500 -0.3093
H3Y H 0.2500 0.3093 -0.1907
H3IA H 0.3093 0.1907 -0.2500
H3DA H 0.1907 0.2500 -0.3093
H3AA H 0.7500 0.3093 0.1907
H3HA H 0.6907 0.1907 0.2500
H3CA H 0.8093 0.2500 0.3093
C7H C 0.2500 0.17579(6) 0.32421(6)
C7D C 0.17579(6) 0.32421(6) 0.2500
C7B C 0.67579(6) 0.2500 -0.17579(6)
C7I C 0.7500 0.17579(6) -0.32421(6)
C7G C 0.82421(6) 0.32421(6) -0.2500
C7Y C 0.32421(6) 0.2500 -0.17579(6)
C7IA C 0.2500 0.17579(6) -0.32421(6)
C7DA C 0.17579(6) 0.32421(6) -0.2500
C7AA C 0.67579(6) 0.2500 0.17579(6)
C7HA C 0.7500 0.17579(6) 0.32421(6)
C7CA C 0.82421(6) 0.32421(6) 0.2500
N1A N 0.5000 -0.12840(8) 0.0000
N1U N 0.5000 0.37160(8) 0.0000
N1T N 0.5000 0.62840(8) 0.0000
N1M N 0.37160(8) 0.0000 0.5000
N1L N 0.62840(8) 0.0000 0.5000
N1H N 0.12840(8) 0.0000 0.5000
N1P N 0.0000 0.5000 0.37160(8)
N1D N 0.0000 0.5000 0.12840(8)
C8A C 0.5000 -0.02724(9) 0.0000
C8U C 0.5000 0.47276(9) 0.0000
C8T C 0.5000 0.52724(9) 0.0000
C8M C 0.47276(9) 0.0000 0.5000
C8L C 0.52724(9) 0.0000 0.5000
C9A C 0.5000 -0.05321(17) 0.0439(2)
C9C C 0.5000 -0.05321(17) -0.0439(2)
C9B C 0.5000 0.05321(17) -0.0439(2)
C9W C 0.4561(2) 0.44679(17) 0.0000
C9V C 0.4561(2) 0.55321(17) 0.0000
C9T C 0.5439(2) 0.55321(17) 0.0000
C9U C 0.5439(2) 0.44679(17) 0.0000
C9M C 0.44679(17) 0.0000 0.4561(2)
C9L C 0.55321(17) 0.0000 0.4561(2)
C9N C 0.55321(17) 0.0000 0.5439(2)
C9O C 0.44679(17) 0.0000 0.5439(2)
H4A H 0.5000 -0.0371 0.0735
H4C H 0.5000 -0.0371 -0.0735
H4B H 0.5000 0.0371 -0.0735
H4W H 0.4265 0.4629 0.0000
H4V H 0.4265 0.5371 0.0000
H4T H 0.5735 0.5371 0.0000
H4U H 0.5735 0.4629 0.0000
H4M H 0.4629 0.0000 0.4265
H4L H 0.5371 0.0000 0.4265
H4N H 0.5371 0.0000 0.5735
H4O H 0.4629 0.0000 0.5735
C10A C 0.5000 -0.10383(15) 0.0419(2)
C10C C 0.5000 -0.10383(15) -0.0419(2)
C10B C 0.5000 0.10383(15) -0.0419(2)
C10W C 0.4581(2) 0.39617(15) 0.0000
C10V C 0.4581(2) 0.60383(15) 0.0000
C10T C 0.5419(2) 0.60383(15) 0.0000
C10U C 0.5419(2) 0.39617(15) 0.0000
C10M C 0.39617(15) 0.0000 0.4581(2)
C10L C 0.60383(15) 0.0000 0.4581(2)
C10N C 0.60383(15) 0.0000 0.5419(2)
C10O C 0.39617(15) 0.0000 0.5419(2)
H5C H 0.5000 -0.1212 -0.0708
H5A H 0.5000 -0.1212 0.0708
H5B H 0.5000 0.1212 -0.0708
H5W H 0.4292 0.3788 0.0000
H5T H 0.5708 0.6212 0.0000
H5V H 0.4292 0.6212 0.0000
H5U H 0.5708 0.3788 0.0000
H5M H 0.3788 0.0000 0.4292
H5N H 0.6212 0.0000 0.5708
H5L H 0.6212 0.0000 0.4292
H5O H 0.3788 0.0000 0.5708
C11? C 0.4577(8) 0.0532(5) 0.0000
C12? C 0.5276(6) 0.0529(3) 0.0314(5)
C13? C 0.4592(8) 0.1044(4) 0.0000
C14? C 0.5295(5) 0.1019(3) 0.0273(3)
H6? H 0.4280 0.0371 0.0000
H7? H 0.5452 0.0371 0.0555
H8? H 0.4301 0.1216 0.0000
H9? H 0.5532 0.1182 0.0450
loop_
_geom_bond_atom_site_label_1
_geom_bond_atom_site_label_2
_geom_bond_site_symmetry_1
_geom_bond_site_symmetry_2
Ni1 O1 1_555 1_555
O1 C1 1_555 1_555
C1 C2 1_555 1_555
C2 C4 1_555 1_555
C3 C6 1_555 1_555
C4 H1 1_555 1_555
C5 C4 1_555 1_555
H2 C5 1_555 1_555
C6 H3 1_555 1_555
C7 C3 1_555 1_555
N1 Ni1 1_555 1_555
C8 C9 1_555 1_555
C9 H4 1_555 1_555
C10 N1 1_555 1_555
H5 C10 1_555 1_555
Ni1U O1W 1_555 1_555
Ni1M O1M 1_555 1_555
Ni1H O1H 1_555 1_555
Ni1P O1R 1_555 1_555
Ni1D O1D 1_555 1_555
Ni1A N1A 1_555 1_555
Ni1L O1N 1_555 1_555
Ni1I O1I 1_555 1_555
Ni1Q O1S 1_555 1_555
Ni1E O1G 1_555 1_555
Ni1M_2 O1JA 1_555 1_555
Ni1H_2 O1IA 1_555 1_555
Ni1Q_2 O1NA 1_555 1_555
Ni1E_2 O1DA 1_555 1_555
Ni1L_2 O1MA 1_555 1_555
Ni1I_2 O1HA 1_555 1_555
Ni1P_2 O1OA 1_555 1_555
Ni1D_2 O1CA 1_555 1_555
Ni1T N1T 1_555 1_555
O1W C1 1_555 1_555
O1M C1H 1_555 1_555
O1H C1H 1_555 1_555
O1R C1D 1_555 1_555
O1D C1D 1_555 1_555
O1B Ni1 1_555 1_555
O1U Ni1U 1_555 1_555
O1N C1I 1_555 1_555
O1I C1I 1_555 1_555
O1S C1G 1_555 1_555
O1G C1G 1_555 1_555
O1Y Ni1 1_555 1_555
O1RA Ni1U 1_555 1_555
O1JA C1IA 1_555 1_555
O1IA C1IA 1_555 1_555
O1NA C1DA 1_555 1_555
O1DA C1DA 1_555 1_555
O1AA Ni1 1_555 1_555
O1TA Ni1U 1_555 1_555
O1MA C1HA 1_555 1_555
O1HA C1HA 1_555 1_555
O1OA C1CA 1_555 1_555
O1CA C1CA 1_555 1_555
O1O Ni1M 1_555 1_555
O1JA_2 Ni1M 1_555 1_555
O1LA Ni1M 1_555 1_555
O1J Ni1H 1_555 1_555
O1GA Ni1H 1_555 1_555
O1IA_2 Ni1H 1_555 1_555
O1P Ni1P 1_555 1_555
O1QA Ni1P 1_555 1_555
O1OA_2 Ni1P 1_555 1_555
O1F Ni1D 1_555 1_555
O1CA_2 Ni1D 1_555 1_555
O1EA Ni1D 1_555 1_555
C1H C2H 1_555 1_555
C1D C2D 1_555 1_555
C1B O1B 1_555 1_555
C1I C2I 1_555 1_555
C1G C2G 1_555 1_555
C1Y O1Y 1_555 1_555
C1IA C2IA 1_555 1_555
C1DA C2DA 1_555 1_555
C1AA O1AA 1_555 1_555
C1HA C2HA 1_555 1_555
C1CA C2CA 1_555 1_555
C2H C4M 1_555 1_555
C2D C4R 1_555 1_555
C2B C1B 1_555 1_555
C2I C4N 1_555 1_555
C2G C4S 1_555 1_555
C2Y C1Y 1_555 1_555
C2IA C4JA 1_555 1_555
C2DA C4NA 1_555 1_555
C2AA C1AA 1_555 1_555
C2HA C4MA 1_555 1_555
C2CA C4OA 1_555 1_555
C3D C6 1_555 1_555
C3H C6D 1_555 1_555
C3B C6B 1_555 1_555
C3G C6B 1_555 1_555
C3I C6G 1_555 1_555
C3Y C6Y 1_555 1_555
C3DA C6Y 1_555 1_555
C3IA C6DA 1_555 1_555
C3AA C6AA 1_555 1_555
C3CA C6AA 1_555 1_555
C3HA C6CA 1_555 1_555
C4M H1M 1_555 1_555
C4H C2H 1_555 1_555
C4R H1R 1_555 1_555
C4D C2D 1_555 1_555
C4W C2 1_555 1_555
C4B C2B 1_555 1_555
C4N H1N 1_555 1_555
C4I C2I 1_555 1_555
C4S H1S 1_555 1_555
C4G C2G 1_555 1_555
C4U C2B 1_555 1_555
C4Y C2Y 1_555 1_555
C4JA H1JA 1_555 1_555
C4IA C2IA 1_555 1_555
C4NA H1NA 1_555 1_555
C4DA C2DA 1_555 1_555
C4RA C2Y 1_555 1_555
C4AA C2AA 1_555 1_555
C4MA H1MA 1_555 1_555
C4HA C2HA 1_555 1_555
C4OA H1OA 1_555 1_555
C4CA C2CA 1_555 1_555
C4TA C2AA 1_555 1_555
H1H C4H 1_555 1_555
H1D C4D 1_555 1_555
H1W C4W 1_555 1_555
H1B C4B 1_555 1_555
H1I C4I 1_555 1_555
H1G C4G 1_555 1_555
H1U C4U 1_555 1_555
H1Y C4Y 1_555 1_555
H1IA C4IA 1_555 1_555
H1DA C4DA 1_555 1_555
H1RA C4RA 1_555 1_555
H1AA C4AA 1_555 1_555
H1HA C4HA 1_555 1_555
H1CA C4CA 1_555 1_555
H1TA C4TA 1_555 1_555
C5M C4M 1_555 1_555
C5H C4H 1_555 1_555
C5R C4R 1_555 1_555
C5D C4D 1_555 1_555
C5W C7 1_555 1_555
C5B C4B 1_555 1_555
C5N C4N 1_555 1_555
C5I C4I 1_555 1_555
C5S C4S 1_555 1_555
C5G C4G 1_555 1_555
C5U C4U 1_555 1_555
C5Y C4Y 1_555 1_555
C5JA C4JA 1_555 1_555
C5IA C4IA 1_555 1_555
C5NA C4NA 1_555 1_555
C5DA C4DA 1_555 1_555
C5RA C4RA 1_555 1_555
C5AA C4AA 1_555 1_555
C5MA C4MA 1_555 1_555
C5HA C4HA 1_555 1_555
C5OA C4OA 1_555 1_555
C5CA C4CA 1_555 1_555
C5TA C4TA 1_555 1_555
H2H C5H 1_555 1_555
H2M C5M 1_555 1_555
H2D C5D 1_555 1_555
H2R C5R 1_555 1_555
H2W C5W 1_555 1_555
H2B C5B 1_555 1_555
H2I C5I 1_555 1_555
H2N C5N 1_555 1_555
H2G C5G 1_555 1_555
H2S C5S 1_555 1_555
H2U C5U 1_555 1_555
H2Y C5Y 1_555 1_555
H2IA C5IA 1_555 1_555
H2JA C5JA 1_555 1_555
H2DA C5DA 1_555 1_555
H2NA C5NA 1_555 1_555
H2RA C5RA 1_555 1_555
H2AA C5AA 1_555 1_555
H2HA C5HA 1_555 1_555
H2MA C5MA 1_555 1_555
H2CA C5CA 1_555 1_555
H2OA C5OA 1_555 1_555
H2TA C5TA 1_555 1_555
C6D C3D 1_555 1_555
C6H C3 1_555 1_555
C6B H3B 1_555 1_555
C6G C3G 1_555 1_555
C6I C3B 1_555 1_555
C6Y H3Y 1_555 1_555
C6DA C3DA 1_555 1_555
C6IA C3Y 1_555 1_555
C6AA H3AA 1_555 1_555
C6CA C3CA 1_555 1_555
C6HA C3AA 1_555 1_555
H3H C6H 1_555 1_555
H3D C6D 1_555 1_555
H3I C6I 1_555 1_555
H3G C6G 1_555 1_555
H3IA C6IA 1_555 1_555
H3DA C6DA 1_555 1_555
H3HA C6HA 1_555 1_555
H3CA C6CA 1_555 1_555
C7H C3H 1_555 1_555
C7D C3D 1_555 1_555
C7B C3B 1_555 1_555
C7I C3I 1_555 1_555
C7G C3G 1_555 1_555
C7Y C3Y 1_555 1_555
C7IA C3IA 1_555 1_555
C7DA C3DA 1_555 1_555
C7AA C3AA 1_555 1_555
C7HA C3HA 1_555 1_555
C7CA C3CA 1_555 1_555
N1A C10A 1_555 1_555
N1U Ni1U 1_555 1_555
N1T C10V 1_555 1_555
N1M Ni1M 1_555 1_555
N1L Ni1L_2 1_555 1_555
N1H Ni1H 1_555 1_555
N1P Ni1P 1_555 1_555
N1D Ni1D 1_555 1_555
C8A C8 1_555 1_555
C8U C8T 1_555 1_555
C8T C9V 1_555 1_555
C8M C8L 1_555 1_555
C8L C9L 1_555 1_555
C9A C8A 1_555 1_555
C9C C8A 1_555 1_555
C9B C8 1_555 1_555
C9W C8U 1_555 1_555
C9V H4V 1_555 1_555
C9T C8T 1_555 1_555
C9U C8U 1_555 1_555
C9M C8M 1_555 1_555
C9L H4L 1_555 1_555
C9N C8L 1_555 1_555
C9O C8M 1_555 1_555
H4A C9A 1_555 1_555
H4C C9C 1_555 1_555
H4B C9B 1_555 1_555
H4W C9W 1_555 1_555
H4T C9T 1_555 1_555
H4U C9U 1_555 1_555
H4M C9M 1_555 1_555
H4N C9N 1_555 1_555
H4O C9O 1_555 1_555
C10A C9A 1_555 1_555
C10C N1A 1_555 1_555
C10B N1 1_555 1_555
C10W N1U 1_555 1_555
C10V C9V 1_555 1_555
C10T N1T 1_555 1_555
C10U N1U 1_555 1_555
C10M N1M 1_555 1_555
C10L N1L 1_555 1_555
C10N N1L 1_555 1_555
C10O N1M 1_555 1_555
H5C C10C 1_555 1_555
H5A C10A 1_555 1_555
H5B C10B 1_555 1_555
H5W C10W 1_555 1_555
H5T C10T 1_555 1_555
H5V C10V 1_555 1_555
H5U C10U 1_555 1_555
H5M C10M 1_555 1_555
H5N C10N 1_555 1_555
H5L C10L 1_555 1_555
H5O C10O 1_555 1_555
C5 C7 1_555 1_555
C9 C10 1_555 1_555
O1U C1B 1_555 1_555
O1RA C1Y 1_555 1_555
O1TA C1AA 1_555 1_555
C3H C6H 1_555 1_555
C3I C6I 1_555 1_555
C3IA C6IA 1_555 1_555
C3HA C6HA 1_555 1_555
C4W C5W 1_555 1_555
C5M C7H 1_555 1_555
C5H C7H 1_555 1_555
C5R C7D 1_555 1_555
C5D C7D 1_555 1_555
C5B C7B 1_555 1_555
C5N C7I 1_555 1_555
C5I C7I 1_555 1_555
C5S C7G 1_555 1_555
C5G C7G 1_555 1_555
C5U C7B 1_555 1_555
C5Y C7Y 1_555 1_555
C5JA C7IA 1_555 1_555
C5IA C7IA 1_555 1_555
C5NA C7DA 1_555 1_555
C5DA C7DA 1_555 1_555
C5RA C7Y 1_555 1_555
C5AA C7AA 1_555 1_555
C5MA C7HA 1_555 1_555
C5HA C7HA 1_555 1_555
C5OA C7CA 1_555 1_555
C5CA C7CA 1_555 1_555
C5TA C7AA 1_555 1_555
C9C C10C 1_555 1_555
C9B C10B 1_555 1_555
C9W C10W 1_555 1_555
C9T C10T 1_555 1_555
C9U C10U 1_555 1_555
C9M C10M 1_555 1_555
C9L C10L 1_555 1_555
C9N C10N 1_555 1_555
C9O C10O 1_555 1_555

#END
