
#######################################################################
#
#                 Cambridge Crystallographic Data Centre
#                                CCDC 
#
#######################################################################
#
# If this CIF has been generated from an entry in the Cambridge 
# Structural Database, then it will include bibliographic, chemical, 
# crystal, experimental, refinement or atomic coordinate data resulting 
# from the CCDC's data processing and validation procedures.
#
#######################################################################

data_HEBJUV
_chemical_formula_moiety         '(C12 H17 Cd1 Cl1 N2 O2)n,n(H2 O1)'
_chemical_name_systematic        
'catena-((\m~3~-N-(Pyridin-4-ylmethyl)leucinato)-chloro-cadmium monohydrate)'
_symmetry_cell_setting           orthorhombic
_symmetry_space_group_name_H-M   'P 21 21 21'
_symmetry_Int_Tables_number      19
_space_group_name_Hall           'P 2ac 2ab'
loop_
_symmetry_equiv_pos_site_id
_symmetry_equiv_pos_as_xyz
1 x,y,z
2 1/2-x,-y,1/2+z
3 1/2+x,1/2-y,-z
4 -x,1/2+y,1/2-z
_cell_length_a                   7.123(3)
_cell_length_b                   13.896(5)
_cell_length_c                   15.893(6)
_cell_angle_alpha                90
_cell_angle_beta                 90
_cell_angle_gamma                90
_cell_volume                     1573.11
_exptl_crystal_colour            colorless
_exptl_crystal_description       rod
_cell_formula_units_Z            4
loop_
_atom_site_label
_atom_site_type_symbol
_atom_site_fract_x
_atom_site_fract_y
_atom_site_fract_z
_atom_site_U_iso_or_equiv
_atom_site_thermal_displace_type
Cd1 Cd 0.65386(5) 0.26693(3) 0.10986(2) 0.0342 Uani
Cl1 Cl 0.3959(2) 0.24977(12) 0.21341(11) 0.0581 Uani
O1 O 0.8987(5) 0.2267(3) 0.0199(3) 0.0452 Uani
O2 O 1.0629(7) 0.1066(4) -0.0320(3) 0.0663 Uani
N1 N 1.1694(7) -0.1256(3) 0.3135(3) 0.0413 Uani
N2 N 0.7719(6) 0.1154(3) 0.1492(3) 0.0299 Uani
H1 H 0.6760 0.0799 0.1708 0.0360 Uiso
C1 C 0.9889(8) -0.1063(4) 0.3274(4) 0.0420 Uani
H2 H 0.9188 -0.1488 0.3600 0.0500 Uiso
C2 C 0.9029(8) -0.0260(5) 0.2953(3) 0.0457 Uani
H3 H 0.7760 -0.0157 0.3056 0.0550 Uiso
C3 C 1.0018(8) 0.0392(4) 0.2482(4) 0.0403 Uani
C4 C 1.1870(9) 0.0158(5) 0.2314(6) 0.0733 Uani
H4 H 1.2588 0.0562 0.1976 0.0880 Uiso
C5 C 1.2639(10) -0.0641(6) 0.2633(6) 0.0810 Uani
H5 H 1.3883 -0.0779 0.2503 0.0970 Uiso
C6 C 0.9135(9) 0.1304(4) 0.2155(4) 0.0437 Uani
H6 H 0.8555 0.1640 0.2618 0.0520 Uiso
H7 H 1.0118 0.1722 0.1931 0.0520 Uiso
C7 C 0.8428(8) 0.0671(4) 0.0744(3) 0.0360 Uani
H8 H 0.9325 0.0172 0.0912 0.0430 Uiso
C8 C 0.9422(8) 0.1407(4) 0.0174(4) 0.0443 Uani
C9 C 0.6810(9) 0.0206(4) 0.0257(3) 0.0460 Uani
H9 H 0.5816 0.0677 0.0191 0.0550 Uiso
H10 H 0.7253 0.0036 -0.0300 0.0550 Uiso
C10 C 0.5991(13) -0.0692(6) 0.0672(5) 0.0743 Uani
H11 H 0.5699 -0.0522 0.1256 0.0890 Uiso
C11 C 0.4107(17) -0.0943(9) 0.0238(7) 0.1467 Uani
H12 H 0.4376 -0.1361 -0.0250 0.1760 Uiso
H13 H 0.3524 -0.0370 0.0014 0.1760 Uiso
H14 H 0.3499 -0.1426 0.0474 0.1760 Uiso
C12 C 0.740(2) -0.1479(6) 0.0700(6) 0.1327 Uani
H15 H 0.7695 -0.1680 0.0137 0.1990 Uiso
H16 H 0.6897 -0.2014 0.1009 0.1990 Uiso
H17 H 0.8520 -0.1253 0.0972 0.1990 Uiso
Cd1B Cd 1.15386(5) 0.23307(3) -0.10986(2) 0.0342 Uani
Cd1C Cd 1.34614(5) -0.23307(3) 0.39014(2) 0.0342 Uani
O2B O 0.5629(7) 0.3934(4) 0.0320(3) 0.0663 Uani
N1C N 0.8306(7) 0.3744(3) 0.1865(3) 0.0413 Uani
O3 O 0.5319(12) 0.0943(10) 0.3578(7) 0.1777 Uani
loop_
_atom_site_aniso_label
_atom_site_aniso_U_11
_atom_site_aniso_U_22
_atom_site_aniso_U_33
_atom_site_aniso_U_23
_atom_site_aniso_U_13
_atom_site_aniso_U_12
Cd1 0.03614(19) 0.02264(17) 0.0439(2) -0.00020(14) -0.01413(16) 0.00123(14)
Cl1 0.0435(7) 0.0504(10) 0.0805(10) -0.0049(8) 0.0068(7) 0.0033(6)
O1 0.056(2) 0.0276(18) 0.052(2) 0.0144(17) 0.0051(17) -0.0138(18)
O2 0.066 0.057 0.076 0.015 0.04 0.003
N1 0.035 0.037 0.052 0.014 -0.006 -0.004
N2 0.0257(19) 0.029(2) 0.035(2) 0.0051(17) 0.0022(16) 0.0044(16)
C1 0.034 0.047 0.045 0.016 -0.004 -0.004
C2 0.036 0.055 0.046 0.009 -0.002 0.008
C3 0.037 0.032 0.052 0.007 -0.014 0.003
C4 0.037 0.058 0.125 0.055 0.014 0
C5 0.031 0.077 0.135 0.057 0.019 0.011
C6 0.050(3) 0.025(3) 0.056(3) 0.007(2) -0.015(3) -0.003(2)
C7 0.038(3) 0.028(2) 0.042(2) 0.006(2) 0.017(2) -0.001(2)
C8 0.036(3) 0.047(3) 0.050(3) 0.013(3) 0.008(3) -0.009(3)
C9 0.054(4) 0.044(3) 0.040(3) -0.008(2) 0.010(3) -0.014(3)
C10 0.104(7) 0.057(4) 0.062(4) -0.017(4) 0.032(4) -0.041(4)
C11 0.173(13) 0.111(9) 0.156(10) -0.036(8) 0.024(10) -0.108(9)
C12 0.251(16) 0.038(4) 0.109(7) 0.015(5) 0.066(9) -0.016(7)
Cd1B 0.03614 0.02264 0.0439 -0.0002 0.01413 -0.00123
Cd1C 0.03614 0.02264 0.0439 0.0002 -0.01413 -0.00123
O2B 0.066 0.057 0.076 0.015 -0.04 -0.003
N1C 0.035 0.037 0.052 -0.014 -0.006 0.004
O3 0.094(6) 0.186(11) 0.253(10) 0.021(10) -0.054(7) 0.029(7)
loop_
_geom_bond_atom_site_label_1
_geom_bond_atom_site_label_2
_geom_bond_site_symmetry_1
_geom_bond_site_symmetry_2
Cd1 Cl1 1_555 1_555
O1 Cd1 1_555 1_555
O2 C8 1_555 1_555
N1 C1 1_555 1_555
N2 Cd1 1_555 1_555
H1 N2 1_555 1_555
C1 H2 1_555 1_555
C2 C1 1_555 1_555
H3 C2 1_555 1_555
C3 C2 1_555 1_555
C4 C3 1_555 1_555
H4 C4 1_555 1_555
C5 N1 1_555 1_555
H5 C5 1_555 1_555
C6 N2 1_555 1_555
H6 C6 1_555 1_555
H7 C6 1_555 1_555
C7 N2 1_555 1_555
H8 C7 1_555 1_555
C8 O1 1_555 1_555
C9 C7 1_555 1_555
H9 C9 1_555 1_555
H10 C9 1_555 1_555
C10 C9 1_555 1_555
H11 C10 1_555 1_555
C11 C10 1_555 1_555
H12 C11 1_555 1_555
H13 C11 1_555 1_555
H14 C11 1_555 1_555
C12 C10 1_555 1_555
H15 C12 1_555 1_555
H16 C12 1_555 1_555
H17 C12 1_555 1_555
Cd1B O2 1_555 1_555
Cd1C N1 1_555 1_555
O2B Cd1 1_555 1_555
N1C Cd1 1_555 1_555
C3 C6 1_555 1_555
C4 C5 1_555 1_555
C7 C8 1_555 1_555

#END
