
#######################################################################
#
#                 Cambridge Crystallographic Data Centre
#                                CCDC 
#
#######################################################################
#
# If this CIF has been generated from an entry in the Cambridge 
# Structural Database, then it will include bibliographic, chemical, 
# crystal, experimental, refinement or atomic coordinate data resulting 
# from the CCDC's data processing and validation procedures.
#
#######################################################################

data_HEBKOQ
_chemical_formula_moiety         '(C10 H13 Cd1 Cl1 N2 O3)n,2n(H2 O1)'
_chemical_name_systematic        
'catena-((\m~3~-N-(Pyridin-4-ylmethyl)threoninato)-chloro-cadmium dihydrate)'
_symmetry_cell_setting           monoclinic
_symmetry_space_group_name_H-M   'P 21'
_symmetry_Int_Tables_number      4
_space_group_name_Hall           'P 2yb'
loop_
_symmetry_equiv_pos_site_id
_symmetry_equiv_pos_as_xyz
1 x,y,z
2 -x,1/2+y,-z
_cell_length_a                   7.9060(7)
_cell_length_b                   10.7338(10)
_cell_length_c                   8.9647(8)
_cell_angle_alpha                90
_cell_angle_beta                 110.5280(10)
_cell_angle_gamma                90
_cell_volume                     712.45
_exptl_crystal_colour            colorless
_exptl_crystal_description       rod
_cell_formula_units_Z            2
loop_
_atom_site_label
_atom_site_type_symbol
_atom_site_fract_x
_atom_site_fract_y
_atom_site_fract_z
Cd1 Cd 0.49672(2) 0.98452(3) 0.141522(18)
Cl1 Cl 0.27835(11) 0.94019(8) 0.28360(11)
O1 O 0.7061(2) 0.9921(3) -0.0110(2)
N1 N 0.3294(3) 0.9891(4) -0.1304(2)
H1 H 0.3254 1.0682 -0.1681
O2 O 0.5071(3) 0.7812(2) 0.0379(2)
C1 C 0.6183(3) 0.9686(3) -0.1791(3)
H2 H 0.6908 0.9073 -0.2113
C2 C 0.1436(4) 0.9417(3) -0.1644(3)
H3 H 0.0883 0.9903 -0.1025
H4 H 0.1521 0.8564 -0.1266
N2 N -0.2492(3) 0.95652(19) -0.6385(3)
C3 C -0.2382(4) 0.8602(3) -0.5412(4)
H5 H -0.3237 0.7971 -0.5760
C4 C 0.0123(4) 1.0420(3) -0.4371(4)
H6 H 0.0974 1.1056 -0.4056
C5 C -0.1225(5) 1.0452(3) -0.5862(4)
H7 H -0.1251 1.1120 -0.6531
C6 C -0.1082(4) 0.8489(3) -0.3928(4)
H8 H -0.1049 0.7788 -0.3307
C7 C 0.0190(3) 0.9438(3) -0.3360(3)
C8 C 0.4751(4) 0.7821(2) -0.1093(4)
O3 O 0.4810(3) 0.6903(2) -0.1939(3)
C9 C 0.4347(4) 0.9086(2) -0.1994(3)
H9 H 0.3666 0.8943 -0.3127
C10 C 0.6038(4) 1.0848(3) -0.2793(4)
H10 H 0.5428 1.1490 -0.2431
H11 H 0.5367 1.0661 -0.3889
H12 H 0.7226 1.1129 -0.2692
H13 H 0.810(6) 1.050(4) 0.021(5)
Cd1_2 Cd -0.50328(2) 0.98452(3) -0.858478(18)
Cd1A Cd 0.50328(2) 0.48452(3) -0.141522(18)
N2_2 N 0.7508(3) 0.95652(19) 0.3615(3)
O3A O 0.5190(3) 1.1903(2) 0.1939(3)
O4 O 0.9250(4) 0.7645(2) 0.1457(3)
O5 O -0.0055(3) 0.1429(2) 0.0898(3)
loop_
_geom_bond_atom_site_label_1
_geom_bond_atom_site_label_2
_geom_bond_site_symmetry_1
_geom_bond_site_symmetry_2
Cd1 Cl1 1_555 1_555
O1 Cd1 1_555 1_555
N1 Cd1 1_555 1_555
H1 N1 1_555 1_555
O2 Cd1 1_555 1_555
C1 O1 1_555 1_555
H2 C1 1_555 1_555
C2 N1 1_555 1_555
H3 C2 1_555 1_555
H4 C2 1_555 1_555
N2 C3 1_555 1_555
C3 H5 1_555 1_555
C4 H6 1_555 1_555
C5 N2 1_555 1_555
H7 C5 1_555 1_555
C6 C3 1_555 1_555
H8 C6 1_555 1_555
C7 C2 1_555 1_555
C8 O2 1_555 1_555
O3 C8 1_555 1_555
C9 N1 1_555 1_555
H9 C9 1_555 1_555
C10 C1 1_555 1_555
H10 C10 1_555 1_555
H11 C10 1_555 1_555
H12 C10 1_555 1_555
H13 O1 1_555 1_555
Cd1_2 N2 1_555 1_555
Cd1A O3 1_555 1_555
N2_2 Cd1 1_555 1_555
O3A Cd1 1_555 1_555
C1 C9 1_555 1_555
C4 C5 1_555 1_555
C4 C7 1_555 1_555
C6 C7 1_555 1_555
C8 C9 1_555 1_555

#END
