
#######################################################################
#
#                 Cambridge Crystallographic Data Centre
#                                CCDC 
#
#######################################################################
#
# If this CIF has been generated from an entry in the Cambridge 
# Structural Database, then it will include bibliographic, chemical, 
# crystal, experimental, refinement or atomic coordinate data resulting 
# from the CCDC's data processing and validation procedures.
#
#######################################################################

data_HEBKAC
_chemical_formula_moiety         '(C12 H17 Br1 Cd1 N2 O2)n'
_chemical_name_systematic        
catena-((\m~3~-N-(Pyridin-4-ylmethyl)leucinato)-bromo-cadmium)
_symmetry_cell_setting           orthorhombic
_symmetry_space_group_name_H-M   'P 21 21 21'
_symmetry_Int_Tables_number      19
_space_group_name_Hall           'P 2ac 2ab'
loop_
_symmetry_equiv_pos_site_id
_symmetry_equiv_pos_as_xyz
1 x,y,z
2 1/2-x,-y,1/2+z
3 -x,1/2+y,1/2-z
4 1/2+x,1/2-y,-z
_cell_length_a                   7.2398(6)
_cell_length_b                   13.7041(11)
_cell_length_c                   16.5286(13)
_cell_angle_alpha                90
_cell_angle_beta                 90
_cell_angle_gamma                90
_cell_volume                     1639.88
_cell_formula_units_Z            4
loop_
_atom_site_label
_atom_site_type_symbol
_atom_site_fract_x
_atom_site_fract_y
_atom_site_fract_z
_atom_site_U_iso_or_equiv
_atom_site_thermal_displace_type
Cd1 Cd 0.18387(5) -0.21607(3) -0.40014(2) 0.0467 Uani
Br1 Br -0.08708(11) -0.22358(6) -0.29696(6) 0.0843 Uani
N1 N 0.6532(8) -0.5941(4) -0.1650(4) 0.0617 Uani
C1 C 0.4773(9) -0.5760(5) -0.1575(3) 0.0553 Uani
H1 H 0.4056 -0.6197 -0.1280 0.0660 Uiso
C2 C 0.4088(9) -0.3416(4) -0.2767(4) 0.0543 Uani
H2 H 0.3379 -0.3053 -0.2370 0.0660 Uiso
H3 H 0.5074 -0.2996 -0.2957 0.0660 Uiso
C3 C 0.4930(9) -0.4305(4) -0.2359(4) 0.0553 Uani
C4 C 0.3734(9) -0.4228(4) -0.4097(3) 0.0527 Uani
H4 H 0.4595 -0.4699 -0.3859 0.0630 Uiso
C5 C 0.2208(12) -0.4787(4) -0.4576(4) 0.0680 Uani
H5 H 0.1183 -0.4346 -0.4672 0.0810 Uiso
H6 H 0.2704 -0.4975 -0.5098 0.0810 Uiso
C6 C 0.7463(13) -0.5312(8) -0.2068(9) 0.1460 Uani
H7 H 0.8722 -0.5427 -0.2127 0.1750 Uiso
C7 C 0.3918(9) -0.4957(5) -0.1909(3) 0.0593 Uani
H8 H 0.2661 -0.4857 -0.1830 0.0710 Uiso
C8 C 0.6767(14) -0.4495(8) -0.2431(9) 0.1410 Uani
H9 H 0.7533 -0.4077 -0.2721 0.1690 Uiso
C9 C 0.1469(18) -0.5706(6) -0.4149(5) 0.1027 Uani
H10 H 0.1127 -0.5526 -0.3595 0.1230 Uiso
O1 O 0.6038(9) -0.3944(4) -0.5085(3) 0.0823 Uani
O2 O 0.4356(7) -0.2674(3) -0.4740(2) 0.0587 Uani
C10 C 0.4772(9) -0.3568(5) -0.4670(4) 0.0567 Uani
N2 N 0.2874(6) -0.3665(3) -0.3455(2) 0.0427 Uani
H11 H 0.1881 -0.4001 -0.3266 0.0510 Uiso
C11 C 0.295(3) -0.6485(7) -0.4104(8) 0.1707 Uani
H12 H 0.2537 -0.7002 -0.3755 0.2580 Uiso
H13 H 0.4062 -0.6207 -0.3891 0.2580 Uiso
H14 H 0.3175 -0.6740 -0.4635 0.2580 Uiso
C12 C -0.024(3) -0.6031(11) -0.4580(9) 0.1713 Uani
H15 H -0.0887 -0.5471 -0.4786 0.2580 Uiso
H16 H -0.1026 -0.6377 -0.4210 0.2580 Uiso
H17 H 0.0089 -0.6452 -0.5021 0.2580 Uiso
Cd1C Cd 0.68387(5) -0.28393(3) -0.59986(2) 0.0467 Uani
Cd1B Cd 0.81613(5) -0.71607(3) -0.09986(2) 0.0467 Uani
N1B N 0.3468(8) -0.0941(4) -0.3350(4) 0.0617 Uani
O1C O 0.1038(9) -0.1056(4) -0.4915(3) 0.0823 Uani
loop_
_atom_site_aniso_label
_atom_site_aniso_U_11
_atom_site_aniso_U_22
_atom_site_aniso_U_33
_atom_site_aniso_U_23
_atom_site_aniso_U_13
_atom_site_aniso_U_12
Cd1 0.0534 0.03426 0.0523 -3e-05 -0.01588 0.00098
Br1 0.0641 0.0716 0.1171 -0.0163 0.0206 0.005
N1 0.058 0.045 0.082 0.014 -0.02 -0.011
C1 0.061 0.063 0.042 0.012 -0.007 0.005
C2 0.061 0.04 0.062 0.003 -0.011 0.006
C3 0.058 0.044 0.064 0.009 -0.022 0.001
C4 0.067 0.04 0.051 0.008 0.019 0.004
C5 0.106 0.052 0.046 -0.003 0.01 -0.018
C6 0.05 0.111 0.277 0.126 -0.013 -0.002
C7 0.055 0.072 0.051 0.016 0.007 0.019
C8 0.063 0.1 0.26 0.114 -0.017 -0.017
C9 0.185 0.056 0.067 -0.008 0.042 -0.052
O1 0.094 0.072 0.081 0.016 0.049 0.012
O2 0.075 0.043 0.058 0.009 0.0123 -0.019
C10 0.062 0.053 0.055 0.008 0.022 0.004
N2 0.047 0.041 0.04 0.003 -0.0002 0.0014
C11 0.32 0.044 0.148 0.02 0.11 0.015
C12 0.24 0.13 0.144 -0.007 0.004 -0.118
Cd1C 0.0534 0.03426 0.0523 -3e-05 0.01588 -0.00098
Cd1B 0.0534 0.03426 0.0523 3e-05 -0.01588 -0.00098
N1B 0.058 0.045 0.082 -0.014 -0.02 0.011
O1C 0.094 0.072 0.081 0.016 -0.049 -0.012
loop_
_geom_bond_atom_site_label_1
_geom_bond_atom_site_label_2
_geom_bond_site_symmetry_1
_geom_bond_site_symmetry_2
Cd1 Br1 1_555 1_555
N1 C1 1_555 1_555
C1 H1 1_555 1_555
C2 H2 1_555 1_555
H3 C2 1_555 1_555
C3 C2 1_555 1_555
C4 H4 1_555 1_555
C5 C4 1_555 1_555
H5 C5 1_555 1_555
H6 C5 1_555 1_555
C6 N1 1_555 1_555
H7 C6 1_555 1_555
C7 C1 1_555 1_555
H8 C7 1_555 1_555
C8 C3 1_555 1_555
H9 C8 1_555 1_555
C9 C5 1_555 1_555
H10 C9 1_555 1_555
O1 C10 1_555 1_555
O2 Cd1 1_555 1_555
C10 C4 1_555 1_555
N2 Cd1 1_555 1_555
H11 N2 1_555 1_555
C11 C9 1_555 1_555
H12 C11 1_555 1_555
H13 C11 1_555 1_555
H14 C11 1_555 1_555
C12 C9 1_555 1_555
H15 C12 1_555 1_555
H16 C12 1_555 1_555
H17 C12 1_555 1_555
Cd1C O1 1_555 1_555
Cd1B N1 1_555 1_555
N1B Cd1 1_555 1_555
O1C Cd1 1_555 1_555
C2 N2 1_555 1_555
C3 C7 1_555 1_555
C4 N2 1_555 1_555
C6 C8 1_555 1_555
O2 C10 1_555 1_555

#END
