
#######################################################################
#
#                 Cambridge Crystallographic Data Centre
#                                CCDC 
#
#######################################################################
#
# If this CIF has been generated from an entry in the Cambridge 
# Structural Database, then it will include bibliographic, chemical, 
# crystal, experimental, refinement or atomic coordinate data resulting 
# from the CCDC's data processing and validation procedures.
#
#######################################################################

data_HEBKUW
_chemical_formula_moiety         '(C10 H13 Br1 Cd1 N2 O3)n,2n(H2 O1)'
_chemical_name_systematic        
'catena-((\m~3~-N-(Pyridin-4-ylmethyl)threoninato)-bromo-cadmium dihydrate)'
_symmetry_cell_setting           monoclinic
_symmetry_space_group_name_H-M   'P 21'
_symmetry_Int_Tables_number      4
_space_group_name_Hall           'P 2yb'
loop_
_symmetry_equiv_pos_site_id
_symmetry_equiv_pos_as_xyz
1 x,y,z
2 -x,1/2+y,-z
_cell_length_a                   7.9689(12)
_cell_length_b                   10.7406(15)
_cell_length_c                   8.9501(13)
_cell_angle_alpha                90
_cell_angle_beta                 110.444(2)
_cell_angle_gamma                90
_cell_volume                     717.796
_exptl_crystal_colour            colorless
_exptl_crystal_description       rod
_cell_formula_units_Z            2
loop_
_atom_site_label
_atom_site_type_symbol
_atom_site_fract_x
_atom_site_fract_y
_atom_site_fract_z
Cd1 Cd 0.00009(7) 0.83001(6) 0.14296(6)
Br1 Br -0.22130(13) 0.78457(14) 0.29987(11)
O1 O 0.0058(10) 0.6261(8) 0.0391(8)
N1 N -0.7453(10) 0.8027(8) -0.6365(9)
N2 N -0.1685(8) 0.8350(11) -0.1288(8)
H1 H -0.1709 0.9138 -0.1668
C1 C -0.7335(13) 0.7032(10) -0.5412(12)
H2 H -0.8149 0.6382 -0.5773
C2 C -0.6024(13) 0.6954(11) -0.3903(12)
H3 H -0.5969 0.6256 -0.3273
C3 C -0.3547(11) 0.7896(11) -0.1615(10)
H4 H -0.4079 0.8399 -0.0996
H5 H -0.3479 0.7049 -0.1224
C4 C -0.4801(11) 0.7911(11) -0.3336(11)
C5 C -0.6240(14) 0.8933(12) -0.5833(12)
H6 H -0.6297 0.9611 -0.6496
C6 C -0.4906(13) 0.8915(11) -0.4347(12)
H7 H -0.4090 0.9566 -0.4027
O3 O -0.0289(11) 0.5348(7) -0.1944(9)
O4 O 0.2051(8) 0.8335(11) -0.0111(7)
C7 C 0.1143(12) 0.8116(10) -0.1798(10)
H8 H 0.1840 0.7498 -0.2137
C8 C -0.0671(12) 0.7529(9) -0.1986(10)
H9 H -0.1355 0.7394 -0.3119
C9 C -0.0302(12) 0.6273(10) -0.1107(11)
C10 C 0.1038(15) 0.9279(11) -0.2780(12)
H10 H 0.0391 0.9912 -0.2451
H11 H 0.0431 0.9092 -0.3887
H12 H 0.2227 0.9570 -0.2625
Cd1_2 Cd -0.99991(7) 0.83001(6) -0.85704(6)
Cd1A Cd -0.00009(7) 0.33001(6) -0.14296(6)
N1_2 N 0.2547(10) 0.8027(8) 0.3635(9)
O3A O 0.0289(11) 1.0348(7) 0.1944(9)
O2 O 0.5149(10) 0.4893(8) 0.9141(10)
O5 O 0.4128(12) 0.6049(10) 0.1410(10)
loop_
_geom_bond_atom_site_label_1
_geom_bond_atom_site_label_2
_geom_bond_site_symmetry_1
_geom_bond_site_symmetry_2
Cd1 Br1 1_555 1_555
O1 Cd1 1_555 1_555
N1 C1 1_555 1_555
N2 Cd1 1_555 1_555
H1 N2 1_555 1_555
C1 H2 1_555 1_555
C2 C1 1_555 1_555
H3 C2 1_555 1_555
C3 N2 1_555 1_555
H4 C3 1_555 1_555
H5 C3 1_555 1_555
C4 C2 1_555 1_555
C5 N1 1_555 1_555
H6 C5 1_555 1_555
C6 C4 1_555 1_555
H7 C6 1_555 1_555
O3 C9 1_555 1_555
O4 Cd1 1_555 1_555
C7 O4 1_555 1_555
H8 C7 1_555 1_555
C8 N2 1_555 1_555
H9 C8 1_555 1_555
C9 O1 1_555 1_555
C10 C7 1_555 1_555
H10 C10 1_555 1_555
H11 C10 1_555 1_555
H12 C10 1_555 1_555
Cd1_2 N1 1_555 1_555
Cd1A O3 1_555 1_555
N1_2 Cd1 1_555 1_555
O3A Cd1 1_555 1_555
C3 C4 1_555 1_555
C5 C6 1_555 1_555
C7 C8 1_555 1_555
C8 C9 1_555 1_555

#END
