
#######################################################################
#
#                 Cambridge Crystallographic Data Centre
#                                CCDC 
#
#######################################################################
#
# If this CIF has been generated from an entry in the Cambridge 
# Structural Database, then it will include bibliographic, chemical, 
# crystal, experimental, refinement or atomic coordinate data resulting 
# from the CCDC's data processing and validation procedures.
#
#######################################################################

data_UZUNAF
_chemical_formula_moiety         '(C22 H22 Cu2 N4 O8)n,4n(H2 O1)'
_chemical_name_systematic        
"catena-[bis(\m~4~-Glutarato)-(\m~2~-N,N'-bis(pyridin-4-ylmethylene)hydrazine)-di-copper tetrahydrate]"
_symmetry_cell_setting           monoclinic
_symmetry_space_group_name_H-M   'C 2/c'
_symmetry_Int_Tables_number      15
_space_group_name_Hall           '-C 2yc'
loop_
_symmetry_equiv_pos_site_id
_symmetry_equiv_pos_as_xyz
1 x,y,z
2 -x,y,1/2-z
3 1/2+x,1/2+y,z
4 1/2-x,1/2+y,1/2-z
5 -x,-y,-z
6 x,-y,1/2+z
7 1/2-x,1/2-y,-z
8 1/2+x,1/2-y,1/2+z
_cell_length_a                   27.6739(15)
_cell_length_b                   13.1598(6)
_cell_length_c                   8.6462(4)
_cell_angle_alpha                90
_cell_angle_beta                 95.435(3)
_cell_angle_gamma                90
_cell_volume                     3134.64
_exptl_crystal_colour            green
_exptl_crystal_description       parallelepiped
_cell_formula_units_Z            4
loop_
_atom_site_label
_atom_site_type_symbol
_atom_site_fract_x
_atom_site_fract_y
_atom_site_fract_z
C1 C 0.1157(3) -0.3191(6) 0.1964(9)
H1 H 0.1140 -0.2496 0.1766
C2 C 0.0817(3) -0.3606(6) 0.2807(8)
H2 H 0.0576 -0.3204 0.3171
C3 C 0.0836(3) -0.4628(6) 0.3110(8)
C4 C 0.1203(3) -0.5172(6) 0.2534(9)
H3 H 0.1228 -0.5867 0.2715
C5 C 0.1528(3) -0.4698(6) 0.1699(8)
H4 H 0.1773 -0.5082 0.1318
C6 C 0.0478(3) -0.5175(7) 0.3970(8)
H5 H 0.0487 -0.5880 0.4039
C7 C 0.2871(3) -0.5803(5) 0.4422(7)
C8 C 0.3079(3) -0.4792(5) 0.3991(8)
H6 H 0.2955 -0.4635 0.2931
H7 H 0.3428 -0.4865 0.4008
C9 C 0.2973(3) -0.3881(5) 0.5025(7)
H8 H 0.2626 -0.3844 0.5116
H9 H 0.3135 -0.3982 0.6058
C10 C 0.3144(3) -0.2882(5) 0.4358(7)
H10 H 0.3076 -0.2331 0.5050
H11 H 0.3493 -0.2911 0.4317
C11 C 0.2903(3) -0.2651(5) 0.2740(8)
N1 N 0.1510(2) -0.3712(4) 0.1409(6)
N2 N 0.0152(2) -0.4673(5) 0.4621(7)
O1 O 0.2448(2) -0.5800(3) 0.4849(6)
O2 O 0.24782(19) -0.2940(4) 0.2447(5)
O4 O 0.31250(19) -0.6571(4) 0.4264(6)
O5 O 0.31583(19) -0.2216(4) 0.1805(5)
Cu1 Cu 0.21051(3) -0.29559(6) 0.03811(9)
C1D C -0.1157(3) -0.6809(6) 0.8036(9)
H1D H -0.1140 -0.7504 0.8234
C2D C -0.0817(3) -0.6394(6) 0.7193(8)
H2D H -0.0576 -0.6796 0.6829
C3D C -0.0836(3) -0.5372(6) 0.6890(8)
C4D C -0.1203(3) -0.4828(6) 0.7466(9)
H3D H -0.1228 -0.4133 0.7285
C5D C -0.1528(3) -0.5302(6) 0.8301(8)
H4D H -0.1773 -0.4918 0.8682
C6D C -0.0478(3) -0.4825(7) 0.6030(8)
H5D H -0.0487 -0.4120 0.5961
C7C C 0.2129(3) -0.0803(5) 0.0578(7)
C8C C 0.1921(3) 0.0208(5) 0.1009(8)
H6C H 0.2045 0.0365 0.2069
H7C H 0.1572 0.0135 0.0992
C9C C 0.2027(3) 0.1119(5) -0.0025(7)
H8C H 0.2374 0.1156 -0.0116
H9C H 0.1865 0.1018 -0.1058
C10C C 0.1856(3) 0.2118(5) 0.0642(7)
H10C H 0.1924 0.2669 -0.0050
H11C H 0.1507 0.2089 0.0683
C11C C 0.2097(3) 0.2349(5) 0.2260(8)
N1D N -0.1510(2) -0.6288(4) 0.8591(6)
N2D N -0.0152(2) -0.5327(5) 0.5379(7)
O1C O 0.2552(2) -0.0800(3) 0.0151(6)
O1E O 0.2448(2) -0.4200(3) -0.0151(6)
O1A O -0.2448(2) -0.5800(3) 1.0151(6)
O2C O 0.25218(19) 0.2060(4) 0.2553(5)
O2D O -0.24782(19) -0.7060(4) 0.7553(5)
O4C O 0.18750(19) -0.1571(4) 0.0736(6)
O4G O -0.18750(19) -0.8429(4) 0.9264(6)
O5C O 0.18417(19) 0.2784(4) 0.3195(5)
O5F O 0.18417(19) -0.2784(4) -0.1805(5)
O5B O -0.18417(19) -0.7216(4) 1.1805(5)
Cu1D Cu -0.21051(3) -0.70441(6) 0.96189(9)
Cu1E Cu 0.21051(3) -0.70441(6) 0.53811(9)
Cu1C Cu 0.28949(3) -0.79559(6) 0.46189(9)
Cu1F Cu 0.28949(3) -0.20441(6) -0.03811(9)
Cu1C_2 Cu 0.28949(3) 0.20441(6) 0.46189(9)
Cu1E_2 Cu 0.21051(3) 0.29559(6) 0.53811(9)
O3 O 0.0863(5) 0.1651(17) 0.3445(18)
H12 H 0.0638 0.1848 0.4069
H13 H 0.1048 0.2118 0.3022
O6 O 0.0304(12) 0.241(2) 0.104(3)
O7 O 0.0365(17) 0.094(2) 0.564(4)
loop_
_geom_bond_atom_site_label_1
_geom_bond_atom_site_label_2
_geom_bond_site_symmetry_1
_geom_bond_site_symmetry_2
C1 H1 1_555 1_555
C2 C1 1_555 1_555
H2 C2 1_555 1_555
C3 C2 1_555 1_555
C4 C3 1_555 1_555
H3 C4 1_555 1_555
C5 C4 1_555 1_555
H4 C5 1_555 1_555
C6 C3 1_555 1_555
H5 C6 1_555 1_555
C7 C8 1_555 1_555
C8 H6 1_555 1_555
H7 C8 1_555 1_555
C9 C8 1_555 1_555
H8 C9 1_555 1_555
H9 C9 1_555 1_555
C10 C9 1_555 1_555
H10 C10 1_555 1_555
H11 C10 1_555 1_555
C11 C10 1_555 1_555
N1 C1 1_555 1_555
N2 C6 1_555 1_555
O1 C7 1_555 1_555
O2 C11 1_555 1_555
O3 H12 1_555 1_555
H13 O3 1_555 1_555
O4 C7 1_555 1_555
O5 C11 1_555 1_555
Cu1 N1 1_555 1_555
C1D H1D 1_555 1_555
C2D C1D 1_555 1_555
H2D C2D 1_555 1_555
C3D C2D 1_555 1_555
C4D C3D 1_555 1_555
H3D C4D 1_555 1_555
C5D C4D 1_555 1_555
H4D C5D 1_555 1_555
C6D C3D 1_555 1_555
H5D C6D 1_555 1_555
C7C C8C 1_555 1_555
C8C H6C 1_555 1_555
H7C C8C 1_555 1_555
C9C C8C 1_555 1_555
H8C C9C 1_555 1_555
H9C C9C 1_555 1_555
C10C C9C 1_555 1_555
H10C C10C 1_555 1_555
H11C C10C 1_555 1_555
C11C C10C 1_555 1_555
N1D C1D 1_555 1_555
N2D N2 1_555 1_555
O1C C7C 1_555 1_555
O1E Cu1 1_555 1_555
O1A Cu1D 1_555 1_555
O2C C11C 1_555 1_555
O2D Cu1D 1_555 1_555
O4C Cu1 1_555 1_555
O4G Cu1D 1_555 1_555
O5C C11C 1_555 1_555
O5F Cu1 1_555 1_555
O5B Cu1D 1_555 1_555
Cu1D N1D 1_555 1_555
Cu1E O1 1_555 1_555
Cu1C O4 1_555 1_555
Cu1F O5 1_555 1_555
Cu1C_2 O2C 1_555 1_555
Cu1E_2 O5C 1_555 1_555
C5 N1 1_555 1_555
O2 Cu1 1_555 1_555
C5D N1D 1_555 1_555
C6D N2D 1_555 1_555
C7C O4C 1_555 1_555
O1C Cu1F 1_555 1_555

#END
