
#######################################################################
#
#                 Cambridge Crystallographic Data Centre
#                                CCDC 
#
#######################################################################
#
# If this CIF has been generated from an entry in the Cambridge 
# Structural Database, then it will include bibliographic, chemical, 
# crystal, experimental, refinement or atomic coordinate data resulting 
# from the CCDC's data processing and validation procedures.
#
#######################################################################

data_LASYOU
_chemical_name_common            MOF-505
_chemical_formula_moiety         '(C16 H10 Cu2 O10)n,3n(C3 H7 N1 O1),n(H2 O1)'
_chemical_name_systematic        
"catena-((\m~8~-3,3',5,5'-Biphenyltetracarboxylato)-diaqua-di-copper dimethylformamide solvate monohydrate)"
_symmetry_cell_setting           rhombohedral
_symmetry_space_group_name_H-M   'R -3 m'
_symmetry_Int_Tables_number      166
_space_group_name_Hall           '-R 3 2"'
loop_
_symmetry_equiv_pos_site_id
_symmetry_equiv_pos_as_xyz
1 x,y,z
2 -y,x-y,z
3 -x+y,-x,z
4 y,x,-z
5 2/3+x,1/3+y,1/3+z
6 2/3-y,1/3+x-y,1/3+z
7 2/3-x+y,1/3-x,1/3+z
8 2/3+y,1/3+x,1/3-z
9 1/3+x,2/3+y,2/3+z
10 1/3+y,2/3+x,2/3-z
11 x-y,-y,-z
12 -x,-x+y,-z
13 1/3-y,2/3+x-y,2/3+z
14 1/3-x+y,2/3-x,2/3+z
15 1/3+x-y,2/3-y,2/3-z
16 1/3-x,2/3-x+y,2/3-z
17 2/3+x-y,1/3-y,1/3-z
18 2/3-x,1/3-x+y,1/3-z
19 -x,-y,-z
20 y,-x+y,-z
21 x-y,x,-z
22 -y,-x,z
23 1/3-x,2/3-y,2/3-z
24 1/3+y,2/3-x+y,2/3-z
25 1/3+x-y,2/3+x,2/3-z
26 1/3-y,2/3-x,2/3+z
27 2/3-x,1/3-y,1/3-z
28 2/3-y,1/3-x,1/3+z
29 -x+y,y,z
30 x,x-y,z
31 2/3+y,1/3-x+y,1/3-z
32 2/3+x-y,1/3+x,1/3-z
33 2/3-x+y,1/3+y,1/3+z
34 2/3+x,1/3+x-y,1/3+z
35 1/3-x+y,2/3+y,2/3+z
36 1/3+x,2/3+x-y,2/3+z
_cell_length_a                   18.4826(8)
_cell_length_b                   18.4826(8)
_cell_length_c                   24.713(2)
_cell_angle_alpha                90
_cell_angle_beta                 90
_cell_angle_gamma                120
_cell_volume                     7311.09
_exptl_crystal_colour            blue
_exptl_crystal_description       block
_cell_formula_units_Z            9
loop_
_atom_site_label
_atom_site_type_symbol
_atom_site_fract_x
_atom_site_fract_y
_atom_site_fract_z
_atom_site_U_iso_or_equiv
_atom_site_thermal_displace_type
Cu1 Cu 0.857322(11) 0.142678(11) 0.122930(14) 0.0254 Uani
O1 O 0.81459(11) 0.03818(10) 0.16239(7) 0.0453 Uani
O2 O 0.77355(10) 0.07785(12) 0.23635(7) 0.0433 Uani
C1 C 0.78374(15) 0.02647(15) 0.20892(10) 0.0372 Uani
C2 C 0.71486(18) -0.07802(16) 0.28292(11) 0.0509 Uani
H1 H 0.7005 -0.0406 0.2996 0.0610 Uiso
C3 C 0.6920(3) -0.15402(14) 0.30744(17) 0.0550 Uani
C4 C 0.75830(17) -0.05592(15) 0.23453(10) 0.0435 Uani
C5 C 0.7793(2) -0.11033(11) 0.20982(15) 0.0408 Uani
H2 H 0.8080 -0.0960 0.1762 0.0490 Uiso
O3 O 0.89714(10) 0.10286(10) 0.05386(12) 0.0813 Uani
Cu1A Cu 0.857322(11) -0.285356(16) 0.122930(14) 0.0254 Uani
Cu1G Cu 0.809345(11) 0.190655(11) 0.210403(14) 0.0254 Uani
Cu1DA Cu 0.809345(11) -0.381311(16) 0.210403(14) 0.0254 Uani
Cu1I Cu 0.476011(11) -0.476011(11) 0.543737(14) 0.0254 Uani
Cu1D Cu 0.523989(11) -0.523989(11) 0.456263(14) 0.0254 Uani
Cu1W Cu 0.476011(11) -0.047977(16) 0.543737(14) 0.0254 Uani
Cu1E Cu 0.523989(11) 0.047977(16) 0.456263(14) 0.0254 Uani
O1CA O 0.81459(11) -0.22359(15) 0.16239(7) 0.0453 Uani
O1V O 0.51874(11) -0.37151(10) 0.50428(7) 0.0453 Uani
O1O O 0.51874(11) -0.10974(15) 0.50428(7) 0.0453 Uani
O1U O 0.96182(10) 0.18541(11) 0.16239(7) 0.0453 Uani
O1A O 0.96182(10) -0.22359(15) 0.16239(7) 0.0453 Uani
O2CA O 0.77355(10) -0.30430(16) 0.23635(7) 0.0433 Uani
O2V O 0.55978(10) -0.41118(12) 0.43032(7) 0.0433 Uani
O2O O 0.55978(10) -0.02903(16) 0.43032(7) 0.0433 Uani
O2G O 0.74452(12) 0.10688(10) 0.09698(7) 0.0433 Uani
O2Z O 0.89312(10) 0.25548(12) 0.09698(7) 0.0433 Uani
O2DA O 0.74452(12) -0.36237(16) 0.09698(7) 0.0433 Uani
O2Q O 0.89312(10) -0.36237(16) 0.09698(7) 0.0433 Uani
C1CA C 0.78374(15) -0.24273(21) 0.20892(10) 0.0372 Uani
C1V C 0.54959(15) -0.35980(15) 0.45775(10) 0.0372 Uani
C1O C 0.54959(15) -0.09060(21) 0.45775(10) 0.0372 Uani
C2CA C 0.71486(18) -0.20712(24) 0.28292(11) 0.0509 Uani
C2V C 0.61847(18) -0.25531(16) 0.38375(11) 0.0509 Uani
C2O C 0.61847(18) -0.12621(24) 0.38375(11) 0.0509 Uani
H1CA H 0.7005 -0.2589 0.2996 0.0610 Uiso
H1V H 0.6328 -0.2927 0.3671 0.0610 Uiso
H1O H 0.6328 -0.0744 0.3671 0.0610 Uiso
C3V C 0.6413(3) -0.17931(14) 0.35923(17) 0.0550 Uani
C4CA C 0.75830(17) -0.18578(23) 0.23453(10) 0.0435 Uani
C4V C 0.57503(17) -0.27741(15) 0.43214(10) 0.0435 Uani
C4O C 0.57503(17) -0.14755(23) 0.43214(10) 0.0435 Uani
C5V C 0.5540(2) -0.22300(11) 0.45685(15) 0.0408 Uani
H2V H 0.5253 -0.2373 0.4905 0.0490 Uiso
O3A O 0.89714(10) -0.20572(14) 0.05386(12) 0.0813 Uani
loop_
_atom_site_aniso_label
_atom_site_aniso_U_11
_atom_site_aniso_U_22
_atom_site_aniso_U_33
_atom_site_aniso_U_23
_atom_site_aniso_U_13
_atom_site_aniso_U_12
Cu1 0.02659(18) 0.02659(18) 0.0276(2) -0.00086(7) 0.00086(7) 0.01678(17)
O1 0.0631(12) 0.0340(10) 0.0480(10) 0.0093(8) 0.0170(9) 0.0312(9)
O2 0.056 0.0327 0.0475 0.0113 0.0168 0.0269
C1 0.0344(13) 0.0305(13) 0.0507(14) 0.0060(11) 0.0052(11) 0.0192(11)
C2 0.0678(19) 0.0368(15) 0.0603(17) 0.0157(12) 0.0279(14) 0.0352(14)
C3 0.073(3) 0.0425(15) 0.060(2) 0.0150(11) 0.030(2) 0.0367(15)
C4 0.0484(16) 0.0330(13) 0.0547(15) 0.0112(11) 0.0159(12) 0.0245(12)
C5 0.041(2) 0.0340(14) 0.050(2) 0.0044(8) 0.0089(16) 0.0206(10)
O3 0.111(2) 0.111(2) 0.0505(17) -0.0172(8) 0.0172(8) 0.077(2)
Cu1A 0.02659 0.01962 0.0276 0.00172 0.00086 0.00981
Cu1G 0.02659 0.02659 0.0276 -0.00086 0.00086 0.01678
Cu1DA 0.02659 0.01962 0.0276 0.00172 0.00086 0.00981
Cu1I 0.02659 0.02659 0.0276 -0.00086 0.00086 0.01678
Cu1D 0.02659 0.02659 0.0276 -0.00086 0.00086 0.01678
Cu1W 0.02659 0.01962 0.0276 0.00172 0.00086 0.00981
Cu1E 0.02659 0.01962 0.0276 0.00172 0.00086 0.00981
O1CA 0.0631 0.0347 0.048 0.0077 0.017 0.0319
O1V 0.0631 0.034 0.048 0.0093 0.017 0.0312
O1O 0.0631 0.0347 0.048 0.0077 0.017 0.0319
O1U 0.034 0.0631 0.048 -0.017 -0.0093 0.0312
O1A 0.034 0.0347 0.048 0.0077 -0.0093 0.0028
O2CA 0.056 0.0349 0.0475 0.0055 0.0168 0.0291
O2V 0.056 0.0327 0.0475 0.0113 0.0168 0.0269
O2O 0.056 0.0349 0.0475 0.0055 0.0168 0.0291
O2G 0.0327 0.056 0.0475 -0.0168 -0.0113 0.0269
O2Z 0.056 0.0327 0.0475 0.0113 0.0168 0.0269
O2DA 0.0327 0.0349 0.0475 0.0055 -0.0113 0.0058
O2Q 0.056 0.0349 0.0475 0.0055 0.0168 0.0291
C1CA 0.0344 0.0265 0.0507 -0.0008 0.0052 0.0152
C1V 0.0344 0.0305 0.0507 0.006 0.0052 0.0192
C1O 0.0344 0.0265 0.0507 -0.0008 0.0052 0.0152
C2CA 0.0678 0.0342 0.0603 0.0122 0.0279 0.0326
C2V 0.0678 0.0368 0.0603 0.0157 0.0279 0.0352
C2O 0.0678 0.0342 0.0603 0.0122 0.0279 0.0326
C3V 0.073 0.0421 0.06 0.015 0.03 0.0363
C4CA 0.0484 0.0324 0.0547 0.0047 0.0159 0.0239
C4V 0.0484 0.033 0.0547 0.0112 0.0159 0.0245
C4O 0.0484 0.0324 0.0547 0.0047 0.0159 0.0239
C5V 0.041 0.0338 0.05 0.0045 0.0089 0.0204
O3A 0.111 0.068 0.0505 0.0344 0.0172 0.034
loop_
_geom_bond_atom_site_label_1
_geom_bond_atom_site_label_2
_geom_bond_site_symmetry_1
_geom_bond_site_symmetry_2
Cu1 O1 1_555 1_555
O1 C1 1_555 1_555
O2 C1 1_555 1_555
C1 C4 1_555 1_555
C2 H1 1_555 1_555
C3 C2 1_555 1_555
C4 C2 1_555 1_555
C5 C4 1_555 1_555
H2 C5 1_555 1_555
O3 Cu1 1_555 1_555
Cu1A O1CA 1_555 1_555
Cu1G O2 1_555 1_555
Cu1DA O2CA 1_555 1_555
Cu1I O1V 1_555 1_555
Cu1D O2V 1_555 1_555
Cu1W O1O 1_555 1_555
Cu1E O2O 1_555 1_555
O1CA C1CA 1_555 1_555
O1V C1V 1_555 1_555
O1O C1O 1_555 1_555
O1U Cu1 1_555 1_555
O1A Cu1A 1_555 1_555
O2CA C1CA 1_555 1_555
O2V C1V 1_555 1_555
O2O C1O 1_555 1_555
O2G Cu1 1_555 1_555
O2Z Cu1 1_555 1_555
O2DA Cu1A 1_555 1_555
O2Q Cu1A 1_555 1_555
C1CA C4CA 1_555 1_555
C1V C4V 1_555 1_555
C1O C4O 1_555 1_555
C2CA C3 1_555 1_555
C2V H1V 1_555 1_555
C2O H1O 1_555 1_555
H1CA C2CA 1_555 1_555
C3V C3 1_555 1_555
C4CA C5 1_555 1_555
C4V C2V 1_555 1_555
C4O C2O 1_555 1_555
C5V C4V 1_555 1_555
H2V C5V 1_555 1_555
O3A Cu1A 1_555 1_555
C2CA C4CA 1_555 1_555
C2V C3V 1_555 1_555
C2O C3V 1_555 1_555
C4O C5V 1_555 1_555

#END
