
#######################################################################
#
#                 Cambridge Crystallographic Data Centre
#                                CCDC 
#
#######################################################################
#
# If this CIF has been generated from an entry in the Cambridge 
# Structural Database, then it will include bibliographic, chemical, 
# crystal, experimental, refinement or atomic coordinate data resulting 
# from the CCDC's data processing and validation procedures.
#
#######################################################################

data_DIZVAK
_chemical_formula_moiety         
'(C22 H20 Co2 N2 O8)n,4n(C3 H7 N1 O1),3n(H2 O1)'
_chemical_name_systematic        
"catena-(bis(\m~4~-1,4-Benzenedicarboxylato-O,O',O'',O''')-(\m~2~-1,4-diazabicyclo(2.2.2)octane-N,N')-di-cobalt(ii) dimethylformamide solvate trihydrate)"
_symmetry_cell_setting           tetragonal
_symmetry_space_group_name_H-M   'I 4/m c m'
_symmetry_Int_Tables_number      140
_space_group_name_Hall           '-I 4 2c'
loop_
_symmetry_equiv_pos_site_id
_symmetry_equiv_pos_as_xyz
1 x,y,z
2 -y,x,z
3 y,-x,z
4 y,x,1/2-z
5 1/2+x,1/2+y,1/2+z
6 1/2-y,1/2+x,1/2+z
7 1/2+y,1/2-x,1/2+z
8 1/2+y,1/2+x,-z
9 -x,-y,z
10 -x,y,1/2-z
11 x,-y,1/2-z
12 -y,-x,1/2-z
13 1/2-x,1/2-y,1/2+z
14 1/2-x,1/2+y,-z
15 1/2+x,1/2-y,-z
16 1/2-y,1/2-x,-z
17 -x,-y,-z
18 y,-x,-z
19 -y,x,-z
20 -y,-x,1/2+z
21 1/2-x,1/2-y,1/2-z
22 1/2+y,1/2-x,1/2-z
23 1/2-y,1/2+x,1/2-z
24 1/2-y,1/2-x,z
25 x,y,-z
26 x,-y,1/2+z
27 -x,y,1/2+z
28 y,x,1/2+z
29 1/2+x,1/2+y,1/2-z
30 1/2+x,1/2-y,z
31 1/2-x,1/2+y,z
32 1/2+y,1/2+x,z
_cell_length_a                   15.1644(3)
_cell_length_b                   15.1644(3)
_cell_length_c                   19.0430(6)
_cell_angle_alpha                90
_cell_angle_beta                 90
_cell_angle_gamma                90
_cell_volume                     4379.11
_cell_formula_units_Z            4
loop_
_atom_site_label
_atom_site_type_symbol
_atom_site_fract_x
_atom_site_fract_y
_atom_site_fract_z
N2 N 0.1357(12) 0.3643(12) 0.3309(15)
C6 C 0.0625(16) 0.3245(16) 0.3803(14)
O2 O 0.1403(16) 0.2821(17) 0.2660(14)
C6W C 0.1755(16) 0.4375(16) 0.3803(14)
O2W O 0.2179(17) 0.3597(16) 0.2660(14)
O3 O 0.124(6) 0.376(6) 0.5000
Co1 Co 1.0000 1.0000 0.42791(5)
C1 C 1.1486(4) 1.0832(4) 0.5000
C2 C 1.2250(4) 1.1447(4) 0.5000
C3 C 1.2598(3) 1.1759(3) 0.43734(19)
H1 H 1.2396 1.1532 0.3949
O1 O 1.1180(2) 1.0606(2) 0.44161(15)
N1 N 1.0000 1.0000 0.3176(3)
C4 C 0.9257(15) 1.058(2) 0.2915(8)
C5 C 0.963(2) 1.0872(13) 0.2899(8)
C7 C 1.012(2) 1.0922(10) 0.2914(8)
Co1CA Co 1.5000 1.5000 0.42791(5)
Co1G Co 1.5000 1.5000 0.57209(5)
Co1X Co 1.0000 1.0000 0.57209(5)
Co1C Co 1.0000 1.0000 0.07209(5)
Co1CA_2 Co 0.5000 1.5000 0.42791(5)
Co1G_2 Co 0.5000 1.5000 0.57209(5)
C1W C 1.4168(4) 1.3514(4) 0.5000
C1A C 0.9168(4) 1.1486(4) 0.5000
C1CA C 0.6486(4) 1.4168(4) 0.5000
C2W C 1.3553(4) 1.2750(4) 0.5000
C2A C 0.8553(4) 1.2250(4) 0.5000
C2CA C 0.7250(4) 1.3553(4) 0.5000
C3W C 1.3241(3) 1.2402(3) 0.43734(19)
C3O C 1.3241(3) 1.2402(3) 0.56266(19)
C3X C 1.2598(3) 1.1759(3) 0.56266(19)
C3A C 0.8241(3) 1.2598(3) 0.43734(19)
C3CA C 0.7598(3) 1.3241(3) 0.43734(19)
C3N C 0.7598(3) 1.3241(3) 0.56266(19)
C3R C 0.8241(3) 1.2598(3) 0.56266(19)
H1X H 1.2396 1.1532 0.6051
H1O H 1.3468 1.2604 0.6051
H1W H 1.3468 1.2604 0.3949
H1A H 0.8468 1.2396 0.3949
H1R H 0.8468 1.2396 0.6051
H1N H 0.7396 1.3468 0.6051
H1CA H 0.7396 1.3468 0.3949
O1W O 1.4394(2) 1.3820(2) 0.44161(15)
O1O O 1.4394(2) 1.3820(2) 0.55839(15)
O1X O 1.1180(2) 1.0606(2) 0.55839(15)
O1A O 0.9394(2) 1.1180(2) 0.44161(15)
O1CA O 0.6180(2) 1.4394(2) 0.44161(15)
O1N O 0.6180(2) 1.4394(2) 0.55839(15)
O1R O 0.9394(2) 1.1180(2) 0.55839(15)
O1B O 1.0606(2) 0.8820(2) 0.44161(15)
O1H O 0.8820(2) 0.9394(2) 0.44161(15)
O1CA_2 O 1.6180(2) 1.4394(2) 0.44161(15)
O1DA O 1.3820(2) 1.5606(2) 0.44161(15)
O1EA O 1.5606(2) 1.6180(2) 0.44161(15)
N1C N 1.0000 1.0000 0.1824(3)
N1CA N 1.5000 1.5000 0.3176(3)
C4K C 0.942(2) 1.0743(15) 0.2085(8)
C4I C 1.0743(15) 1.058(2) 0.2085(8)
C4B C 1.058(2) 1.0743(15) 0.2915(8)
C4A C 0.942(2) 0.9257(15) 0.2915(8)
C4J C 0.9257(15) 0.942(2) 0.2085(8)
C4C C 1.058(2) 0.9257(15) 0.2085(8)
C4H C 1.0743(15) 0.942(2) 0.2915(8)
C5A C 0.9128(13) 0.963(2) 0.2899(8)
C5B C 1.0872(13) 1.037(2) 0.2899(8)
C5K C 0.9128(13) 1.037(2) 0.2101(8)
C5I C 1.037(2) 1.0872(13) 0.2101(8)
C5C C 1.0872(13) 0.963(2) 0.2101(8)
C5J C 0.963(2) 0.9128(13) 0.2101(8)
C5H C 1.037(2) 0.9128(13) 0.2899(8)
C7I C 0.988(2) 1.0922(10) 0.2086(8)
C7K C 0.9078(10) 0.988(2) 0.2086(8)
C7B C 1.0922(10) 0.988(2) 0.2914(8)
C7A C 0.9078(10) 1.012(2) 0.2914(8)
C7J C 1.012(2) 0.9078(10) 0.2086(8)
C7C C 1.0922(10) 1.012(2) 0.2086(8)
C7H C 0.988(2) 0.9078(10) 0.2914(8)
loop_
_geom_bond_atom_site_label_1
_geom_bond_atom_site_label_2
_geom_bond_site_symmetry_1
_geom_bond_site_symmetry_2
Co1 O1 1_555 1_555
C1 C2 1_555 1_555
C2 C3 1_555 1_555
C3 H1 1_555 1_555
O1 C1 1_555 1_555
N1 Co1 1_555 1_555
C4 N1 1_555 1_555
C5 N1 1_555 1_555
N2 C6 1_555 1_555
O2 N2 1_555 1_555
C7 N1 1_555 1_555
Co1CA O1W 1_555 1_555
Co1G O1O 1_555 1_555
Co1X O1X 1_555 1_555
Co1C N1C 1_555 1_555
Co1CA_2 O1CA 1_555 1_555
Co1G_2 O1N 1_555 1_555
C1W C2W 1_555 1_555
C1A C2A 1_555 1_555
C1CA C2CA 1_555 1_555
C2W C3W 1_555 1_555
C2A C3A 1_555 1_555
C2CA C3CA 1_555 1_555
C3W C3 1_555 1_555
C3O C2W 1_555 1_555
C3X C2 1_555 1_555
C3A C3CA 1_555 1_555
C3CA H1CA 1_555 1_555
C3N C2CA 1_555 1_555
C3R C2A 1_555 1_555
H1X C3X 1_555 1_555
H1O C3O 1_555 1_555
H1W C3W 1_555 1_555
H1A C3A 1_555 1_555
H1R C3R 1_555 1_555
H1N C3N 1_555 1_555
O1W C1W 1_555 1_555
O1O C1W 1_555 1_555
O1X C1 1_555 1_555
O1A Co1 1_555 1_555
O1CA C1CA 1_555 1_555
O1N C1CA 1_555 1_555
O1R Co1X 1_555 1_555
O1B Co1 1_555 1_555
O1H Co1 1_555 1_555
O1CA_2 Co1CA 1_555 1_555
O1DA Co1CA 1_555 1_555
O1EA Co1CA 1_555 1_555
N1C C4K 1_555 1_555
N1CA Co1CA 1_555 1_555
C4K C4 1_555 1_555
C4I N1C 1_555 1_555
C4B N1 1_555 1_555
C4A N1 1_555 1_555
C4J N1C 1_555 1_555
C4C N1C 1_555 1_555
C4H N1 1_555 1_555
C5A N1 1_555 1_555
C5B N1 1_555 1_555
C5K C4 1_555 1_555
C5I C7 1_555 1_555
C5C N1C 1_555 1_555
C5J N1C 1_555 1_555
C5H N1 1_555 1_555
C6W N2 1_555 1_555
O2W N2 1_555 1_555
C7I C5 1_555 1_555
C7K N1C 1_555 1_555
C7B N1 1_555 1_555
C7A N1 1_555 1_555
C7J N1C 1_555 1_555
C7C N1C 1_555 1_555
C7H N1 1_555 1_555
C4 C5 1_555 1_555
C4 C7 1_555 1_555
C4 C5A 1_555 1_555
C4 C7A 1_555 1_555
C5 C7 1_555 1_555
C5 C4K 1_555 1_555
C5 C4B 1_555 1_555
C5 C7A 1_555 1_555
O2 O2W 1_555 1_555
C7 C4B 1_555 1_555
C7 C5B 1_555 1_555
C7 C7I 1_555 1_555
C1A O1A 1_555 1_555
C1A O1R 1_555 1_555
C3O C3X 1_555 1_555
C3N C3R 1_555 1_555
N1C C5K 1_555 1_555
N1C C5I 1_555 1_555
N1C C7I 1_555 1_555
C4K C5K 1_555 1_555
C4K C5I 1_555 1_555
C4K C7I 1_555 1_555
C4K C7K 1_555 1_555
C4I C4B 1_555 1_555
C4I C5B 1_555 1_555
C4I C5I 1_555 1_555
C4I C5C 1_555 1_555
C4I C7I 1_555 1_555
C4I C7C 1_555 1_555
C4B C5B 1_555 1_555
C4B C5I 1_555 1_555
C4B C7B 1_555 1_555
C4A C4J 1_555 1_555
C4A C5A 1_555 1_555
C4A C5J 1_555 1_555
C4A C5H 1_555 1_555
C4A C7A 1_555 1_555
C4A C7H 1_555 1_555
C4J C5A 1_555 1_555
C4J C5K 1_555 1_555
C4J C5J 1_555 1_555
C4J C7K 1_555 1_555
C4J C7J 1_555 1_555
C4C C4H 1_555 1_555
C4C C5C 1_555 1_555
C4C C5J 1_555 1_555
C4C C5H 1_555 1_555
C4C C7J 1_555 1_555
C4C C7C 1_555 1_555
C4H C5B 1_555 1_555
C4H C5C 1_555 1_555
C4H C5H 1_555 1_555
C4H C7B 1_555 1_555
C4H C7H 1_555 1_555
C5A C7K 1_555 1_555
C5A C7A 1_555 1_555
C5A C7H 1_555 1_555
C5B C7B 1_555 1_555
C5B C7C 1_555 1_555
C5K C7I 1_555 1_555
C5K C7K 1_555 1_555
C5K C7A 1_555 1_555
C5I C7I 1_555 1_555
C5I C7C 1_555 1_555
C5C C7B 1_555 1_555
C5C C7J 1_555 1_555
C5C C7C 1_555 1_555
C5J C7K 1_555 1_555
C5J C7J 1_555 1_555
C5J C7H 1_555 1_555
C5H C7B 1_555 1_555
C5H C7J 1_555 1_555
C5H C7H 1_555 1_555
C7K C7A 1_555 1_555
C7B C7C 1_555 1_555
C7J C7H 1_555 1_555

#END
