
#######################################################################
#
#                 Cambridge Crystallographic Data Centre
#                                CCDC 
#
#######################################################################
#
# If this CIF has been generated from an entry in the Cambridge 
# Structural Database, then it will include bibliographic, chemical, 
# crystal, experimental, refinement or atomic coordinate data resulting 
# from the CCDC's data processing and validation procedures.
#
#######################################################################

data_GUYLOC
_chemical_formula_moiety         '(C30 H16 N2 O8 S4 Zn2)n'
_chemical_name_systematic        
"catena-[bis(\m~4~-2,2'-Bithiophene-5,5'-dicarboxylato)-(\m~2~-4,4'-bipyridyl)-di-zinc unknown solvate]"
_symmetry_cell_setting           monoclinic
_symmetry_space_group_name_H-M   'C 2/c'
_symmetry_Int_Tables_number      15
_space_group_name_Hall           '-C 2yc'
loop_
_symmetry_equiv_pos_site_id
_symmetry_equiv_pos_as_xyz
1 x,y,z
2 -x,y,1/2-z
3 1/2+x,1/2+y,z
4 1/2-x,1/2+y,1/2-z
5 -x,-y,-z
6 x,-y,1/2+z
7 1/2-x,1/2-y,-z
8 1/2+x,1/2-y,1/2+z
_cell_length_a                   20.472(10)
_cell_length_b                   19.400(8)
_cell_length_c                   13.944(7)
_cell_angle_alpha                90
_cell_angle_beta                 117.185(5)
_cell_angle_gamma                90
_cell_volume                     4926.21
_exptl_crystal_colour            yellow
_cell_formula_units_Z            4
loop_
_atom_site_label
_atom_site_type_symbol
_atom_site_fract_x
_atom_site_fract_y
_atom_site_fract_z
Zn1 Zn -0.02118(3) 0.15467(2) 0.13250(4)
S1 S -0.16530(8) -0.01605(7) 0.30002(11)
S2 S -0.34189(8) -0.16678(8) 0.19957(12)
O1 O -0.09262(19) 0.07809(19) 0.1196(3)
O2 O -0.4009(2) -0.27558(19) 0.3819(3)
O3 O -0.0625(2) 0.08518(19) 0.2938(3)
O4 O -0.4437(2) -0.26900(19) 0.2039(3)
C1 C -0.0988(3) 0.0612(3) 0.2015(4)
C2 C -0.4020(3) -0.2525(3) 0.2981(4)
C3 C -0.3440(3) -0.1998(3) 0.3131(4)
C4 C -0.2661(3) -0.1176(3) 0.2779(4)
C5 C -0.1558(3) 0.0080(3) 0.1890(5)
C6 C -0.2442(3) -0.1262(3) 0.3859(5)
H1 H -0.2033 -0.1033 0.4413
C7 C -0.2906(3) -0.1739(3) 0.4047(5)
H2 H -0.2843 -0.1859 0.4745
C8 C -0.2329(3) -0.0737(3) 0.2268(5)
C9 C -0.2025(4) -0.0255(4) 0.0991(5)
H3 H -0.2061 -0.0173 0.0297
C10 C -0.2464(4) -0.0751(4) 0.1206(5)
H4 H -0.2806 -0.1052 0.0679
C11 C -0.0257(5) 0.2116(2) -0.1662(5)
H5 H -0.0354 0.2523 -0.2084
C12 C -0.0334(4) 0.21187(18) -0.0722(5)
H6 H -0.0483 0.2527 -0.0502
N1 N -0.0192(2) 0.15234(19) -0.0104(3)
C13 C 0.0027(3) 0.09255(17) -0.0426(3)
H7 H 0.0124 0.0519 -0.0004
C14 C 0.0104(3) 0.0923(2) -0.1366(4)
H8 H 0.0254 0.0514 -0.1586
C15 C -0.0038(4) 0.1518(3) -0.1984(4)
Zn1C Zn -0.47882(3) 0.65467(2) 0.36750(4)
Zn1C_2 Zn -0.47882(3) -0.34533(2) 0.36750(4)
Zn1A Zn 0.02118(3) 0.15467(2) 0.36750(4)
Zn1B Zn -0.52118(3) -0.34533(2) 0.13250(4)
Zn1A_2 Zn 0.02118(3) 0.15467(2) -0.63250(4)
Zn1B_2 Zn -0.52118(3) 0.65467(2) 0.13250(4)
S1C S -0.33470(8) 0.48395(7) 0.19998(11)
S2C S -0.15811(8) 0.33322(8) 0.30043(12)
O1C O -0.40738(19) 0.57809(19) 0.3804(3)
O2C O -0.0991(2) 0.22442(19) 0.1181(3)
O2_2 O -0.4009(2) 0.72442(19) 0.3819(3)
O3C O -0.4375(2) 0.58518(19) 0.2062(3)
O3A O 0.0625(2) 0.08518(19) 0.2062(3)
O3B O -0.5625(2) 0.58518(19) 0.2938(3)
O4C O -0.0563(2) 0.23100(19) 0.2961(3)
O4B O 0.0563(2) 0.23100(19) 0.2039(3)
O4A O -0.5563(2) 0.73100(19) 0.2961(3)
C1C C -0.4012(3) 0.5612(3) 0.2985(4)
C2C C -0.0980(3) 0.2475(3) 0.2019(4)
C3C C -0.1560(3) 0.3002(3) 0.1869(4)
C4C C -0.2339(3) 0.3824(3) 0.2221(4)
C5C C -0.3442(3) 0.5080(3) 0.3110(5)
C6C C -0.2558(3) 0.3738(3) 0.1141(5)
H1C H -0.2967 0.3967 0.0587
C7C C -0.2094(3) 0.3261(3) 0.0953(5)
H2C H -0.2157 0.3141 0.0255
C8C C -0.2671(3) 0.4263(3) 0.2732(5)
C9C C -0.2975(4) 0.4745(4) 0.4009(5)
H3C H -0.2939 0.4827 0.4703
C10C C -0.2536(4) 0.4249(4) 0.3794(5)
H4C H -0.2194 0.3948 0.4321
C11A C 0.0257(5) 0.2116(2) -0.3338(5)
H5A H 0.0354 0.2523 -0.2916
C12A C 0.0334(4) 0.21187(18) -0.4278(5)
H6A H 0.0483 0.2527 -0.4498
N1A N 0.0192(2) 0.15234(19) -0.4896(3)
N1C N -0.4808(2) 0.65234(19) 0.5104(3)
C13A C -0.0027(3) 0.09255(17) -0.4574(3)
H7A H -0.0124 0.0519 -0.4996
C14A C -0.0104(3) 0.0923(2) -0.3634(4)
H8A H -0.0254 0.0514 -0.3414
C15A C 0.0038(4) 0.1518(3) -0.3016(4)
loop_
_geom_bond_atom_site_label_1
_geom_bond_atom_site_label_2
_geom_bond_site_symmetry_1
_geom_bond_site_symmetry_2
Zn1 O1 1_555 1_555
S1 C5 1_555 1_555
S2 C3 1_555 1_555
O1 C1 1_555 1_555
O2 C2 1_555 1_555
O3 C1 1_555 1_555
O4 C2 1_555 1_555
C1 C5 1_555 1_555
C2 C3 1_555 1_555
C3 C7 1_555 1_555
C4 S2 1_555 1_555
C5 C9 1_555 1_555
C6 C4 1_555 1_555
H1 C6 1_555 1_555
C7 C6 1_555 1_555
H2 C7 1_555 1_555
C8 S1 1_555 1_555
C9 H3 1_555 1_555
C10 C8 1_555 1_555
H4 C10 1_555 1_555
C11 H5 1_555 1_555
C12 C11 1_555 1_555
H6 C12 1_555 1_555
N1 Zn1 1_555 1_555
C13 N1 1_555 1_555
H7 C13 1_555 1_555
C14 C13 1_555 1_555
H8 C14 1_555 1_555
C15 C11 1_555 1_555
Zn1C O1C 1_555 1_555
Zn1C_2 O2 1_555 1_555
Zn1A O3 1_555 1_555
Zn1B O4 1_555 1_555
Zn1A_2 N1A 1_555 1_555
Zn1B_2 O3C 1_555 1_555
S1C C5C 1_555 1_555
S2C C3C 1_555 1_555
O1C C1C 1_555 1_555
O2C Zn1 1_555 1_555
O2_2 Zn1C 1_555 1_555
O3C C1C 1_555 1_555
O3A Zn1 1_555 1_555
O3B Zn1C 1_555 1_555
O4C Zn1A 1_555 1_555
O4B Zn1 1_555 1_555
O4A Zn1C 1_555 1_555
C1C C5C 1_555 1_555
C2C O2C 1_555 1_555
C3C C2C 1_555 1_555
C4C S2C 1_555 1_555
C5C C9C 1_555 1_555
C6C C4C 1_555 1_555
H1C C6C 1_555 1_555
C7C C3C 1_555 1_555
H2C C7C 1_555 1_555
C8C S1C 1_555 1_555
C9C H3C 1_555 1_555
C10C C8C 1_555 1_555
H4C C10C 1_555 1_555
C11A H5A 1_555 1_555
C12A C11A 1_555 1_555
H6A C12A 1_555 1_555
N1A C12A 1_555 1_555
N1C Zn1C 1_555 1_555
C13A N1A 1_555 1_555
H7A C13A 1_555 1_555
C14A C13A 1_555 1_555
H8A C14A 1_555 1_555
C15A C15 1_555 1_555
C4 C8 1_555 1_555
C9 C10 1_555 1_555
C12 N1 1_555 1_555
C14 C15 1_555 1_555
O4C C2C 1_555 1_555
C4C C8C 1_555 1_555
C6C C7C 1_555 1_555
C9C C10C 1_555 1_555
C11A C15A 1_555 1_555
C14A C15A 1_555 1_555

#END
