
#######################################################################
#
#                 Cambridge Crystallographic Data Centre
#                                CCDC 
#
#######################################################################
#
# If this CIF has been generated from an entry in the Cambridge 
# Structural Database, then it will include bibliographic, chemical, 
# crystal, experimental, refinement or atomic coordinate data resulting 
# from the CCDC's data processing and validation procedures.
#
#######################################################################

data_KOGSIK
_chemical_formula_moiety         
'(C38 H24 N4 O8 Zn2)n,2n(C3 H7 N1 O1),2n(H2 O1)'
_chemical_name_systematic        
"catena-[bis(\m~4~-Biphenyl-4,4'-dicarboxylato)-(\m~2~-4,4'-diazene-1,2-diyldipyridine)-di-zinc N,N-dimethylformamide solvate dihydrate]"
_symmetry_cell_setting           triclinic
_symmetry_space_group_name_H-M   'P -1'
_symmetry_Int_Tables_number      2
_space_group_name_Hall           '-P 1'
loop_
_symmetry_equiv_pos_site_id
_symmetry_equiv_pos_as_xyz
1 x,y,z
2 -x,-y,-z
_cell_length_a                   15.2090(4)
_cell_length_b                   15.2245(4)
_cell_length_c                   15.8758(4)
_cell_angle_alpha                92.4270(10)
_cell_angle_beta                 99.1830(10)
_cell_angle_gamma                90.0520(10)
_cell_volume                     3625.55
_exptl_crystal_colour            red
_exptl_crystal_description       block
_cell_formula_units_Z            2
loop_
_atom_site_label
_atom_site_type_symbol
_atom_site_fract_x
_atom_site_fract_y
_atom_site_fract_z
C1 C 0.8145(6) 0.4180(4) 0.1322(4)
H1 H 0.7900 0.3849 0.0826
C2 C 0.8523(3) 0.2764(3) 0.2051(3)
C3 C 0.8510(4) 0.3746(3) 0.2044(3)
C4 C 0.8844(6) 0.4255(4) 0.2759(4)
H2 H 0.9081 0.3981 0.3264
C5 C 0.8840(7) 0.5145(4) 0.2751(4)
H3 H 0.9073 0.5472 0.3252
C6 C 0.8499(5) 0.5589(3) 0.2020(4)
C7 C 0.8135(6) 0.5068(4) 0.1313(4)
H4 H 0.7873 0.5339 0.0814
C8 C 0.8503(5) 0.6566(3) 0.2016(4)
C9 C 0.8550(7) 0.7089(4) 0.2753(4)
H5 H 0.8562 0.6822 0.3277
C10 C 0.8580(6) 0.7987(4) 0.2742(4)
H6 H 0.8612 0.8321 0.3258
C11 C 0.8565(4) 0.8408(3) 0.1999(4)
C12 C 0.8507(5) 0.7895(4) 0.1251(4)
H7 H 0.8495 0.8169 0.0729
C13 C 0.8467(6) 0.6994(4) 0.1255(4)
H8 H 0.8415 0.6662 0.0736
C14 C 0.6873(3) 0.1022(3) 0.1884(3)
C15 C 0.5887(3) 0.1023(4) 0.1896(3)
C16 C 0.5560(4) 0.1348(5) 0.2612(4)
H9 H 0.5961 0.1558 0.3091
C17 C 0.4669(4) 0.1371(6) 0.2636(4)
H10 H 0.4469 0.1600 0.3130
C18 C 0.4050(4) 0.1063(5) 0.1948(4)
C19 C 0.4381(4) 0.0736(5) 0.1236(4)
H11 H 0.3984 0.0527 0.0754
C20 C 0.5284(4) 0.0713(5) 0.1220(4)
H12 H 0.5490 0.0477 0.0731
C21 C 0.3081(3) 0.1095(5) 0.1992(4)
C22 C 0.2465(4) 0.1171(5) 0.1248(4)
H13 H 0.2663 0.1194 0.0718
C23 C 0.2761(4) 0.1031(5) 0.2752(4)
H14 H 0.3165 0.0973 0.3259
C24 C 0.1865(3) 0.1050(5) 0.2781(4)
H15 H 0.1666 0.0999 0.3308
C25 C 0.1252(3) 0.1142(4) 0.2053(3)
C26 C 0.1567(3) 0.1211(5) 0.1287(4)
H16 H 0.1161 0.1287 0.0784
C27 C 0.0275(3) 0.1128(3) 0.2076(3)
C28 C 0.9099(4) 0.1001(4) -0.0562(3)
H17 H 0.9642 0.0913 -0.0201
C29 C 0.7605(4) 0.1178(5) -0.0734(4)
H18 H 0.7079 0.1219 -0.0495
C30 C 0.9105(4) 0.1039(5) -0.1417(4)
H19 H 0.9643 0.0985 -0.1635
C31 C 0.7544(4) 0.1220(6) -0.1604(4)
H20 H 0.6989 0.1289 -0.1952
C32 C 0.8317(4) 0.1158(5) -0.1956(3)
C33 C 0.8839(5) 0.1163(5) -0.4036(3)
C34 C 0.9495(10) 0.0691(11) -0.4407(9)
H21 H 0.9954 0.0387 -0.4076
C35 C 0.8228(12) 0.1573(13) -0.4506(10)
H22 H 0.7789 0.1885 -0.4267
C36 C 0.8229(12) 0.1544(12) -0.5427(10)
H23 H 0.7781 0.1848 -0.5774
C37 C 0.9421(9) 0.0706(10) -0.5274(7)
H24 H 0.9842 0.0392 -0.5537
C38 C 0.8595(3) 0.9390(3) 0.1993(4)
N1 N 0.8370(3) 0.1082(3) -0.0216(2)
N2 N 0.8223(4) 0.1179(5) -0.2869(3)
N3 N 0.8926(4) 0.1165(5) -0.3119(3)
N4 N 0.8792(3) 0.1137(3) -0.5775(2)
O1 O 0.7372(2) 0.1176(3) 0.2578(2)
O2 O 0.7115(2) 0.0878(3) 0.1174(2)
O3 O 0.8769(3) 0.2424(2) 0.2756(2)
O4 O 0.8294(3) 0.2347(2) 0.1352(2)
O5 O 0.8623(3) 0.9798(2) 0.2695(3)
O6 O 0.8593(3) 0.9727(2) 0.1289(3)
O7 O 0.0032(2) 0.1051(3) 0.2795(2)
O8 O -0.0239(2) 0.1180(3) 0.1382(2)
Zn1 Zn 0.84151(3) 0.10346(3) 0.10680(3)
Zn2 Zn 0.87253(3) 0.11197(3) 0.29318(3)
N4_2 N 0.8792(3) 0.1137(3) 0.4225(2)
O5_2 O 0.8623(3) -0.0202(2) 0.2695(3)
O6_2 O 0.8593(3) -0.0273(2) 0.1289(3)
O7_2 O 1.0032(2) 0.1051(3) 0.2795(2)
O8_2 O 0.9761(2) 0.1180(3) 0.1382(2)
Zn1_2 Zn -0.15849(3) 0.10346(3) 0.10680(3)
Zn1_3 Zn 0.84151(3) 1.10346(3) 0.10680(3)
Zn2_2 Zn -0.12747(3) 0.11197(3) 0.29318(3)
Zn2_3 Zn 0.87253(3) 0.11197(3) -0.70682(3)
Zn2_4 Zn 0.87253(3) 1.11197(3) 0.29318(3)
C39? C 0.9420(13) 0.1653(13) -0.4387(11)
H25? H 0.9867 0.1985 -0.4035
C40? C 0.8216(10) 0.0699(10) -0.4557(8)
H26? H 0.7764 0.0398 -0.4343
C41? C 0.9350(11) 0.1660(12) -0.5280(9)
H27? H 0.9711 0.2046 -0.5525
C42? C 0.8254(10) 0.0675(10) -0.5413(8)
H28? H 0.7858 0.0291 -0.5767
loop_
_geom_bond_atom_site_label_1
_geom_bond_atom_site_label_2
_geom_bond_site_symmetry_1
_geom_bond_site_symmetry_2
C1 H1 1_555 1_555
C2 C3 1_555 1_555
C3 C1 1_555 1_555
C4 C3 1_555 1_555
H2 C4 1_555 1_555
C5 C4 1_555 1_555
H3 C5 1_555 1_555
C6 C5 1_555 1_555
C7 C1 1_555 1_555
H4 C7 1_555 1_555
C8 C6 1_555 1_555
C9 C8 1_555 1_555
H5 C9 1_555 1_555
C10 C9 1_555 1_555
H6 C10 1_555 1_555
C11 C10 1_555 1_555
C12 C11 1_555 1_555
H7 C12 1_555 1_555
C13 C8 1_555 1_555
H8 C13 1_555 1_555
C14 C15 1_555 1_555
C15 C16 1_555 1_555
C16 H9 1_555 1_555
C17 C16 1_555 1_555
H10 C17 1_555 1_555
C18 C17 1_555 1_555
C19 C18 1_555 1_555
H11 C19 1_555 1_555
C20 C15 1_555 1_555
H12 C20 1_555 1_555
C21 C18 1_555 1_555
C22 C21 1_555 1_555
H13 C22 1_555 1_555
C23 C21 1_555 1_555
H14 C23 1_555 1_555
C24 C23 1_555 1_555
H15 C24 1_555 1_555
C25 C24 1_555 1_555
C26 C22 1_555 1_555
H16 C26 1_555 1_555
C27 C25 1_555 1_555
C28 H17 1_555 1_555
C29 H18 1_555 1_555
C30 C28 1_555 1_555
H19 C30 1_555 1_555
C31 C29 1_555 1_555
H20 C31 1_555 1_555
C32 C30 1_555 1_555
C33 C34 1_555 1_555
C34 H21 1_555 1_555
C35 C33 1_555 1_555
H22 C35 1_555 1_555
C36 C35 1_555 1_555
H23 C36 1_555 1_555
C37 C34 1_555 1_555
H24 C37 1_555 1_555
C38 C11 1_555 1_555
N1 C28 1_555 1_555
N2 C32 1_555 1_555
N3 C33 1_555 1_555
N4 C36 1_555 1_555
O1 C14 1_555 1_555
O2 C14 1_555 1_555
O3 C2 1_555 1_555
O4 C2 1_555 1_555
O5 C38 1_555 1_555
O6 C38 1_555 1_555
O7 C27 1_555 1_555
O8 C27 1_555 1_555
Zn1 N1 1_555 1_555
Zn2 O1 1_555 1_555
N4_2 Zn2 1_555 1_555
O5_2 Zn2 1_555 1_555
O6_2 Zn1 1_555 1_555
O7_2 Zn2 1_555 1_555
O8_2 Zn1 1_555 1_555
Zn1_2 O8 1_555 1_555
Zn1_3 O6 1_555 1_555
Zn2_2 O7 1_555 1_555
Zn2_3 N4 1_555 1_555
Zn2_4 O5 1_555 1_555
C6 C7 1_555 1_555
C12 C13 1_555 1_555
C19 C20 1_555 1_555
C25 C26 1_555 1_555
C29 N1 1_555 1_555
C31 C32 1_555 1_555
C37 N4 1_555 1_555
N2 N3 1_555 1_555
O2 Zn1 1_555 1_555
O3 Zn2 1_555 1_555
O4 Zn1 1_555 1_555

#END
