
#######################################################################
#
#                 Cambridge Crystallographic Data Centre
#                                CCDC 
#
#######################################################################
#
# If this CIF has been generated from an entry in the Cambridge 
# Structural Database, then it will include bibliographic, chemical, 
# crystal, experimental, refinement or atomic coordinate data resulting 
# from the CCDC's data processing and validation procedures.
#
#######################################################################

data_KOGSOQ
_chemical_formula_moiety         
'(C52 H32 N4 O12 Zn3)n,2n(C5 H11 N1 O1),4n(H2 O1)'
_chemical_name_systematic        
"catena-[tris(\m~4~-Biphenyl-4,4'-dicarboxylato)-(\m~2~-4,4'-diazene-1,2-diyldipyridine)-tri-zinc N,N-diethylformamide solvate tetrahydrate]"
_symmetry_cell_setting           monoclinic
_symmetry_space_group_name_H-M   'P 21/n'
_symmetry_Int_Tables_number      14
_space_group_name_Hall           '-P 2yn'
loop_
_symmetry_equiv_pos_site_id
_symmetry_equiv_pos_as_xyz
1 x,y,z
2 1/2-x,1/2+y,1/2-z
3 -x,-y,-z
4 1/2+x,1/2-y,1/2+z
_cell_length_a                   14.1046(5)
_cell_length_b                   19.9260(7)
_cell_length_c                   25.9898(9)
_cell_angle_alpha                90
_cell_angle_beta                 90.0050(10)
_cell_angle_gamma                90
_cell_volume                     7304.39
_exptl_crystal_colour            red
_exptl_crystal_description       block
_cell_formula_units_Z            4
loop_
_atom_site_label
_atom_site_type_symbol
_atom_site_fract_x
_atom_site_fract_y
_atom_site_fract_z
C53 C 0.237(3) -0.057(2) 0.862(2)
C54 C 0.263(3) 0.1102(18) 0.7932(15)
N7 N 0.192(2) 0.0293(18) 0.8226(11)
O13 O 0.021(3) -0.035(2) 0.8109(16)
C55 C 0.193(15) -0.044(3) 0.809(8)
C56 C 0.0832 0.0265 0.8138
C57 C 0.2074 0.1057 0.8263
C1 C -0.1317(4) 0.1448(3) 0.51092(19)
C2 C -0.1623(5) 0.2037(3) 0.4890(2)
H1 H -0.1512 0.2448 0.5057
C3 C -0.2087(5) 0.2028(3) 0.4428(2)
H2 H -0.2285 0.2437 0.4283
C4 C -0.1979(5) 0.0844(3) 0.4396(2)
H3 H -0.2116 0.0433 0.4236
C5 C -0.2278(4) 0.1437(3) 0.4167(2)
C6 C -0.1285(4) 0.1460(3) 0.77097(19)
C7 C -0.1823(6) 0.0874(3) 0.8460(2)
H4 H -0.1867 0.0470 0.8647
C8 C -0.1358(6) 0.0873(3) 0.7996(2)
H5 H -0.1087 0.0474 0.7871
C9 C -0.1734(6) 0.2005(3) 0.7890(3)
H6 H -0.1726 0.2403 0.7696
C10 C -0.2209(6) 0.1995(3) 0.8357(3)
H7 H -0.2529 0.2383 0.8467
C11 C -0.0759(4) 0.1479(3) 0.72093(19)
C12 C -0.3725(4) 0.1453(3) 0.27093(19)
C13 C -0.4237(4) 0.1474(3) 0.22091(19)
C14 C -0.0238(5) -0.0601(3) 0.6029(3)
H8 H -0.0436 -0.0367 0.5734
C15 C -0.0320(6) -0.1295(3) 0.6039(4)
H9 H -0.0602 -0.1525 0.5762
C16 C 0.0016(7) -0.1640(3) 0.6459(5)
C17 C 0.0385(7) -0.1290(4) 0.6843(4)
H10 H 0.0622 -0.1517 0.7133
C18 C 0.0428(6) -0.0595(3) 0.6825(3)
H11 H 0.0687 -0.0362 0.7106
C19 C -0.1487(5) 0.0843(3) 0.4852(2)
H12 H -0.1265 0.0436 0.4990
C20 C -0.0778(4) 0.1462(3) 0.56102(18)
C21 C 0.2729(4) 0.1727(3) 0.6486(2)
C22 C 0.1796(4) 0.1397(3) 0.6445(2)
C23 C 0.3555(5) 0.1354(4) 0.6563(4)
H13 H 0.3514 0.0884 0.6591
C24 C 0.4413(5) 0.1653(3) 0.6599(4)
H14 H 0.4950 0.1389 0.6670
C25 C 0.4520(4) 0.2338(3) 0.6534(3)
C26 C 0.3703(4) 0.2706(3) 0.6450(3)
H15 H 0.3743 0.3173 0.6405
C27 C 0.2836(4) 0.2397(3) 0.6432(3)
H16 H 0.2293 0.2662 0.6381
C28 C -0.2803(7) 0.2002(3) 0.3361(3)
H17 H -0.2502 0.2395 0.3476
C29 C -0.3169(6) 0.0874(3) 0.3453(2)
H18 H -0.3100 0.0465 0.3629
C30 C -0.3259(6) 0.2003(4) 0.2892(3)
H19 H -0.3249 0.2396 0.2692
C31 C -0.3656(6) 0.0880(3) 0.3000(2)
H20 H -0.3950 0.0484 0.2884
C32 C 0.5581(5) 0.3355(3) 0.6598(4)
H21 H 0.5045 0.3625 0.6658
C33 C 0.6293(4) 0.2298(3) 0.6457(3)
H22 H 0.6253 0.1830 0.6416
C34 C 0.6449(5) 0.3641(4) 0.6571(4)
H23 H 0.6499 0.4109 0.6609
C35 C 0.7170(4) 0.2604(3) 0.6435(3)
H24 H 0.7713 0.2339 0.6380
C36 C 0.7269(4) 0.3269(3) 0.6489(2)
C37 C 0.8201(4) 0.3600(3) 0.6445(2)
C38 C 0.5475(4) 0.2660(3) 0.6537(3)
C39 C -0.2779(5) 0.1436(3) 0.3662(2)
C40 C -0.2223(5) 0.1438(3) 0.8659(2)
C41 C -0.2725(4) 0.1440(3) 0.9168(2)
C42 C -0.2900(5) 0.2035(3) 0.9427(2)
H25 H -0.2679 0.2443 0.9289
C43 C -0.3023(5) 0.0842(3) 0.9394(2)
H26 H -0.2897 0.0432 0.9228
C44 C -0.3397(5) 0.2037(3) 0.9886(2)
H27 H -0.3541 0.2447 1.0046
C45 C -0.3683(4) 0.1442(3) 1.01112(19)
C46 C -0.3501(5) 0.0842(3) 0.9859(2)
H28 H -0.3702 0.0434 1.0005
C47 C -0.4218(4) 0.1464(3) 1.06083(19)
C48 C -0.0015(7) -0.3363(4) 0.6463(5)
C49 C 0.0293(6) -0.3698(4) 0.6048(4)
H29 H 0.0545 -0.3463 0.5765
C50 C -0.0377(7) -0.3715(4) 0.6847(4)
H30 H -0.0621 -0.3491 0.7137
C51 C -0.0400(7) -0.4404(3) 0.6827(3)
H31 H -0.0637 -0.4640 0.7112
C52 C 0.0239(5) -0.4391(3) 0.6039(3)
H32 H 0.0456 -0.4619 0.5745
N1 N -0.0104(4) -0.4747(2) 0.64269(18)
N2 N 0.0122(4) -0.0253(2) 0.6431(2)
N3 N 0.0101(16) -0.2684(4) 0.6339(8)
N4 N -0.0012(16) -0.2303(4) 0.6641(7)
O1 O -0.0392(3) 0.09319(18) 0.70629(13)
O2 O -0.0740(3) 0.20166(19) 0.69748(14)
O3 O -0.4280(3) 0.20044(19) 1.08354(14)
O4 O -0.4567(3) 0.09064(18) 1.07615(13)
O5 O -0.0433(3) 0.09076(18) 0.57612(13)
O6 O -0.4256(3) 0.2018(2) 0.19730(14)
O7 O -0.4608(3) 0.09276(18) 0.20590(13)
O8 O 0.1719(3) 0.07681(19) 0.6463(2)
O9 O 0.1060(3) 0.17362(17) 0.63937(15)
O10 O 0.8291(3) 0.42258(19) 0.6466(2)
O11 O 0.8938(3) 0.32693(17) 0.63894(15)
O12 O -0.0719(3) 0.20061(19) 0.58342(14)
Zn1 Zn 0.02442(4) 0.07819(2) 0.640805(18)
Zn2 Zn 0.00009(4) 0.25002(2) 0.640622(17)
Zn3 Zn 0.97560(4) 0.42185(2) 0.640682(18)
N1_2 N 0.9896(4) 0.5253(2) 0.64269(18)
O3C O 0.0720(3) 0.29956(19) 0.58354(14)
O4C O 1.0433(3) 0.40936(18) 0.57615(13)
O6C O 0.0744(3) 0.2982(2) 0.69730(14)
O7C O 1.0392(3) 0.40724(18) 0.70590(13)
O11_2 O -0.1062(3) 0.32693(17) 0.63894(15)
Zn2_2 Zn 1.00009(4) 0.25002(2) 0.640622(17)
Zn2C Zn -0.49991(4) 0.24998(2) 0.140622(17)
Zn2C_2 Zn -0.49991(4) 0.24998(2) 1.140622(17)
Zn3_2 Zn -0.02440(4) -0.57815(2) 0.640682(18)
Zn3C Zn -0.52440(4) 0.07815(2) 0.140682(18)
Zn3C_2 Zn -0.52440(4) 0.07815(2) 1.140682(18)
N5? N -0.0063(12) -0.2404(6) 0.6261(5)
N6? N -0.0018(13) -0.2600(7) 0.6688(6)
loop_
_geom_bond_atom_site_label_1
_geom_bond_atom_site_label_2
_geom_bond_site_symmetry_1
_geom_bond_site_symmetry_2
C1 C2 1_555 1_555
C2 H1 1_555 1_555
C3 C2 1_555 1_555
H2 C3 1_555 1_555
C4 H3 1_555 1_555
C5 C3 1_555 1_555
C6 C8 1_555 1_555
C7 H4 1_555 1_555
C8 C7 1_555 1_555
H5 C8 1_555 1_555
C9 C6 1_555 1_555
H6 C9 1_555 1_555
C10 C9 1_555 1_555
H7 C10 1_555 1_555
C11 C6 1_555 1_555
C12 C13 1_555 1_555
C13 O6 1_555 1_555
C14 H8 1_555 1_555
C15 C14 1_555 1_555
H9 C15 1_555 1_555
C16 C15 1_555 1_555
C17 C16 1_555 1_555
H10 C17 1_555 1_555
C18 C17 1_555 1_555
H11 C18 1_555 1_555
C19 C1 1_555 1_555
H12 C19 1_555 1_555
C20 C1 1_555 1_555
C21 C22 1_555 1_555
C22 O8 1_555 1_555
C23 C21 1_555 1_555
H13 C23 1_555 1_555
C24 C23 1_555 1_555
H14 C24 1_555 1_555
C25 C24 1_555 1_555
C26 C25 1_555 1_555
H15 C26 1_555 1_555
C27 C21 1_555 1_555
H16 C27 1_555 1_555
C28 H17 1_555 1_555
C29 H18 1_555 1_555
C30 C12 1_555 1_555
H19 C30 1_555 1_555
C31 C12 1_555 1_555
H20 C31 1_555 1_555
C32 H21 1_555 1_555
C33 H22 1_555 1_555
C34 C32 1_555 1_555
H23 C34 1_555 1_555
C35 C33 1_555 1_555
H24 C35 1_555 1_555
C36 C34 1_555 1_555
C37 C36 1_555 1_555
C38 C25 1_555 1_555
C39 C5 1_555 1_555
C40 C7 1_555 1_555
C41 C40 1_555 1_555
C42 C41 1_555 1_555
H25 C42 1_555 1_555
C43 C41 1_555 1_555
H26 C43 1_555 1_555
C44 C42 1_555 1_555
H27 C44 1_555 1_555
C45 C44 1_555 1_555
C46 C43 1_555 1_555
H28 C46 1_555 1_555
C47 C45 1_555 1_555
C48 C49 1_555 1_555
C49 H29 1_555 1_555
C50 C48 1_555 1_555
H30 C50 1_555 1_555
C51 C50 1_555 1_555
H31 C51 1_555 1_555
C52 C49 1_555 1_555
H32 C52 1_555 1_555
N1 C51 1_555 1_555
N2 C14 1_555 1_555
N3 C48 1_555 1_555
N4 C16 1_555 1_555
O1 C11 1_555 1_555
O2 C11 1_555 1_555
O3 C47 1_555 1_555
O4 C47 1_555 1_555
O5 C20 1_555 1_555
O6 Zn2C 1_555 1_555
O7 C13 1_555 1_555
O8 Zn1 1_555 1_555
O9 C22 1_555 1_555
O10 C37 1_555 1_555
O11 C37 1_555 1_555
O12 C20 1_555 1_555
Zn1 N2 1_555 1_555
Zn2 O2 1_555 1_555
Zn3 O10 1_555 1_555
C53 C55 1_555 1_555
C54 C57 1_555 1_555
N7 C55 1_555 1_555
O13 C56 1_555 1_555
C56 N7 1_555 1_555
C57 N7 1_555 1_555
N1_2 Zn3 1_555 1_555
O3C Zn2 1_555 1_555
O4C Zn3 1_555 1_555
O6C Zn2 1_555 1_555
O7C Zn3 1_555 1_555
O11_2 Zn2 1_555 1_555
Zn2_2 O11 1_555 1_555
Zn2C_2 O3 1_555 1_555
Zn3_2 N1 1_555 1_555
Zn3C O7 1_555 1_555
Zn3C_2 O4 1_555 1_555
C4 C5 1_555 1_555
C4 C19 1_555 1_555
C10 C40 1_555 1_555
C18 N2 1_555 1_555
C26 C27 1_555 1_555
C28 C30 1_555 1_555
C28 C39 1_555 1_555
C29 C31 1_555 1_555
C29 C39 1_555 1_555
C32 C38 1_555 1_555
C33 C38 1_555 1_555
C35 C36 1_555 1_555
C45 C46 1_555 1_555
C52 N1 1_555 1_555
N3 N4 1_555 1_555
O1 Zn1 1_555 1_555
O5 Zn1 1_555 1_555
O9 Zn1 1_555 1_555
O9 Zn2 1_555 1_555
O11 Zn3 1_555 1_555
O12 Zn2 1_555 1_555

#END
