
#######################################################################
#
#                 Cambridge Crystallographic Data Centre
#                                CCDC 
#
#######################################################################
#
# If this CIF has been generated from an entry in the Cambridge 
# Structural Database, then it will include bibliographic, chemical, 
# crystal, experimental, refinement or atomic coordinate data resulting 
# from the CCDC's data processing and validation procedures.
#
#######################################################################

data_NUCPIM
_chemical_formula_moiety         
'(C46 H22 O22 Zn4 2-)n,2(C2 H8 N1 1+),4(C4 H9 N1 O1),6(H2 O1)'
_chemical_name_systematic        
"catena-[bis(dimethylammonium) bis(\m-1,1':3',1''-terphenyl-3,3'',4',5,5''-pentacarboxylato)-sesquiaqua-tetra-zinc N,N-dimethylacetamide solvate hexahydrate]"
_symmetry_cell_setting           monoclinic
_symmetry_space_group_name_H-M   'P 21/n'
_symmetry_Int_Tables_number      14
_space_group_name_Hall           '-P 2yn'
loop_
_symmetry_equiv_pos_site_id
_symmetry_equiv_pos_as_xyz
1 x,y,z
2 1/2-x,1/2+y,1/2-z
3 -x,-y,-z
4 1/2+x,1/2-y,1/2+z
_cell_length_a                   14.1192(17)
_cell_length_b                   33.389(4)
_cell_length_c                   16.938(2)
_cell_angle_alpha                90
_cell_angle_beta                 111.664(2)
_cell_angle_gamma                90
_cell_volume                     7420.99
_cell_formula_units_Z            4
loop_
_atom_site_label
_atom_site_type_symbol
_atom_site_fract_x
_atom_site_fract_y
_atom_site_fract_z
Zn1 Zn 0.66439(19) 0.13430(8) 0.40264(19)
O1 O 0.543(4) 0.0952(18) 0.386(3)
Zn2 Zn 0.4947(2) 0.21115(12) 0.4148(2)
Zn3 Zn 0.31271(19) 0.05949(8) 0.8236(2)
Zn4 Zn 1.09577(19) 0.08720(8) 0.8513(2)
O2 O 0.5832(14) 0.1849(6) 0.5198(13)
O3 O 0.7119(13) 0.1472(6) 0.5248(12)
O4 O 0.9601(11) 0.1093(5) 0.8066(11)
O5 O 1.0001(14) 0.1566(6) 0.9054(15)
O6 O 0.8481(14) 0.2760(6) 0.8310(16)
O7 O 0.8617(14) 0.2935(7) 0.9541(16)
O8 O 0.332(4) 0.1174(17) 0.862(3)
O9 O 0.1651(12) 0.1299(5) 0.8094(12)
O10 O 0.0775(12) 0.2694(5) 0.8527(14)
O11 O 0.1773(13) 0.3186(5) 0.8408(15)
O12 O 0.5206(14) 0.2690(6) 0.4759(14)
H1 H 0.5502 0.2866 0.4465
H2 H 0.5665 0.2660 0.5337
O13 O 0.317(3) 0.0827(11) 0.702(2)
H3 H 0.3082 0.1113 0.6998
H4 H 0.2636 0.0706 0.6555
O14 O -0.2437(12) 0.0969(5) 0.3804(12)
O15 O -0.1174(13) 0.1407(5) 0.4252(14)
O16 O -0.2003(13) -0.0271(5) 0.2471(13)
O17 O -0.0664(12) -0.0361(5) 0.2111(11)
O18 O 0.485(4) 0.1504(13) 0.361(3)
O19 O 0.1826(13) 0.0784(5) -0.0309(11)
O20 O 0.3007(15) 0.0465(7) -0.0657(13)
O21 O 0.584(5) -0.0246(18) 0.286(5)
O22 O 0.5632(12) -0.0282(5) 0.1542(13)
C1 C 0.6646(18) 0.1682(8) 0.5583(17)
C2 C 0.7078(16) 0.1743(7) 0.6489(16)
C3 C 0.6637(16) 0.2002(7) 0.6916(17)
H5 H 0.6021 0.2126 0.6607
C4 C 0.7077(16) 0.2076(7) 0.7760(17)
C5 C 0.7991(15) 0.1886(7) 0.8243(17)
H6 H 0.8290 0.1939 0.8822
C6 C 0.8461(16) 0.1617(7) 0.7867(15)
C7 C 0.8009(16) 0.1549(7) 0.7033(18)
H7 H 0.8310 0.1364 0.6786
C8 C 0.944(2) 0.1417(9) 0.839(2)
C9 C 0.6557(15) 0.2349(7) 0.8171(16)
C10 C 0.7007(17) 0.2684(8) 0.8684(18)
C11 C 0.6457(19) 0.2914(8) 0.9025(19)
H8 H 0.6766 0.3136 0.9348
C12 C 0.5471(16) 0.2830(7) 0.8912(17)
H9 H 0.5109 0.2996 0.9142
C13 C 0.5004(17) 0.2482(7) 0.8434(18)
C14 C 0.5541(16) 0.2262(7) 0.8055(16)
H10 H 0.5220 0.2048 0.7708
C15 C 0.810(2) 0.2797(9) 0.884(2)
C16 C 0.3953(16) 0.2366(7) 0.8362(17)
C17 C 0.3709(17) 0.1956(7) 0.8266(17)
H11 H 0.4174 0.1771 0.8214
C18 C 0.2754(18) 0.1830(8) 0.8251(18)
C19 C 0.2054(17) 0.2109(7) 0.8272(18)
H12 H 0.1418 0.2025 0.8252
C20 C 0.2279(16) 0.2517(7) 0.8322(16)
C21 C 0.3228(17) 0.2648(8) 0.8364(17)
H13 H 0.3378 0.2920 0.8392
C22 C 0.1562(18) 0.2830(8) 0.8417(18)
C23 C 0.253(2) 0.1400(9) 0.823(2)
C24 C -0.1535(17) 0.1097(7) 0.3899(16)
C25 C -0.0920(16) 0.0818(7) 0.3580(15)
C26 C -0.1332(17) 0.0462(7) 0.3153(15)
H14 H -0.1999 0.0390 0.3065
C27 C -0.0739(16) 0.0220(7) 0.2863(15)
C28 C 0.0255(16) 0.0329(7) 0.2989(15)
H15 H 0.0649 0.0156 0.2808
C29 C 0.0673(16) 0.0679(7) 0.3366(16)
C30 C 0.0068(16) 0.0924(7) 0.3680(16)
H16 H 0.0340 0.1161 0.3961
C31 C -0.1164(18) -0.0167(7) 0.2422(17)
C32 C 0.1727(16) 0.0790(7) 0.3489(16)
C33 C 0.2350(17) 0.1012(7) 0.4172(18)
H17 H 0.2108 0.1108 0.4578
C34 C 0.3344(18) 0.1091(8) 0.4242(19)
H18 H 0.3766 0.1233 0.4712
C35 C 0.3722(16) 0.0970(8) 0.3657(16)
C36 C 0.3110(15) 0.0755(6) 0.2948(15)
C37 C 0.2103(16) 0.0672(7) 0.2868(16)
H19 H 0.1676 0.0535 0.2390
C38 C 0.479(3) 0.1106(13) 0.384(3)
C39 C 0.3458(16) 0.0590(6) 0.2277(15)
C40 C 0.2914(17) 0.0663(7) 0.1432(16)
H20 H 0.2335 0.0823 0.1282
C41 C 0.3206(16) 0.0504(7) 0.0782(15)
C42 C 0.4035(17) 0.0261(8) 0.1013(17)
H21 H 0.4238 0.0152 0.0595
C43 C 0.4602(17) 0.0167(8) 0.1886(18)
C44 C 0.4310(16) 0.0345(7) 0.2501(17)
H22 H 0.4692 0.0299 0.3072
C45 C 0.2660(19) 0.0587(7) -0.0108(19)
C46 C 0.549(2) -0.0111(10) 0.214(2)
Zn1_2 Zn -0.33561(19) 0.13430(8) 0.40264(19)
Zn1C Zn 0.16439(19) 0.36570(8) 0.90264(19)
Zn2C Zn -0.0053(2) 0.28885(12) 0.9148(2)
Zn2C_2 Zn 0.9947(2) 0.28885(12) 0.9148(2)
Zn3_2 Zn 0.31271(19) 0.05949(8) -0.1764(2)
Zn3B Zn -0.31271(19) -0.05949(8) 0.1764(2)
Zn3B_2 Zn 0.68729(19) -0.05949(8) 0.1764(2)
Zn4_2 Zn 0.09577(19) 0.08720(8) -0.1487(2)
Zn4_3 Zn 0.09577(19) 0.08720(8) 0.8513(2)
Zn4B Zn -0.09577(19) -0.08720(8) 0.1487(2)
O6C O 0.3481(14) 0.2240(6) 0.3310(16)
O7C O 0.3617(14) 0.2065(7) 0.4541(16)
O9_2 O 1.1651(12) 0.1299(5) 0.8094(12)
O10C O 0.5775(12) 0.2306(5) 0.3527(14)
O11C O 0.6773(13) 0.1814(5) 0.3408(15)
O14_2 O 0.7563(12) 0.0969(5) 0.3804(12)
O16B O 0.2003(13) 0.0271(5) 0.7529(13)
O17B O 1.0664(12) 0.0361(5) 0.7889(11)
O19_2 O 1.1826(13) 0.0784(5) 0.9691(11)
O20_2 O 0.3007(15) 0.0465(7) 0.9343(13)
O22B O 0.4368(12) 0.0282(5) 0.8458(13)
O23? O 0.555(3) 0.0831(16) 0.438(4)
O24? O 0.321(3) 0.1164(15) 0.818(3)
O25? O 0.508(5) 0.131(2) 0.342(4)
O26? O 0.612(4) -0.0075(19) 0.289(5)
loop_
_geom_bond_atom_site_label_1
_geom_bond_atom_site_label_2
_geom_bond_site_symmetry_1
_geom_bond_site_symmetry_2
Zn1 O1 1_555 1_555
O1 C38 1_555 1_555
Zn2 O2 1_555 1_555
Zn3 O8 1_555 1_555
Zn4 O4 1_555 1_555
O2 C1 1_555 1_555
O3 Zn1 1_555 1_555
O4 C8 1_555 1_555
O5 C8 1_555 1_555
O6 C15 1_555 1_555
O7 C15 1_555 1_555
O8 C23 1_555 1_555
O9 C23 1_555 1_555
O10 C22 1_555 1_555
O11 C22 1_555 1_555
O12 Zn2 1_555 1_555
H1 O12 1_555 1_555
H2 O12 1_555 1_555
O13 Zn3 1_555 1_555
H3 O13 1_555 1_555
H4 O13 1_555 1_555
O14 C24 1_555 1_555
O15 C24 1_555 1_555
O16 C31 1_555 1_555
O17 C31 1_555 1_555
O18 Zn1 1_555 1_555
O19 C45 1_555 1_555
O20 C45 1_555 1_555
O21 C46 1_555 1_555
O22 C46 1_555 1_555
C1 O3 1_555 1_555
C2 C1 1_555 1_555
C3 C2 1_555 1_555
H5 C3 1_555 1_555
C4 C3 1_555 1_555
C5 C4 1_555 1_555
H6 C5 1_555 1_555
C6 C5 1_555 1_555
C7 C2 1_555 1_555
H7 C7 1_555 1_555
C8 C6 1_555 1_555
C9 C4 1_555 1_555
C10 C9 1_555 1_555
C11 C10 1_555 1_555
H8 C11 1_555 1_555
C12 C11 1_555 1_555
H9 C12 1_555 1_555
C13 C12 1_555 1_555
C14 C9 1_555 1_555
H10 C14 1_555 1_555
C15 C10 1_555 1_555
C16 C13 1_555 1_555
C17 C16 1_555 1_555
H11 C17 1_555 1_555
C18 C17 1_555 1_555
C19 C18 1_555 1_555
H12 C19 1_555 1_555
C20 C19 1_555 1_555
C21 C16 1_555 1_555
H13 C21 1_555 1_555
C22 C20 1_555 1_555
C23 C18 1_555 1_555
C24 C25 1_555 1_555
C25 C26 1_555 1_555
C26 H14 1_555 1_555
C27 C26 1_555 1_555
C28 C27 1_555 1_555
H15 C28 1_555 1_555
C29 C28 1_555 1_555
C30 C25 1_555 1_555
H16 C30 1_555 1_555
C31 C27 1_555 1_555
C32 C29 1_555 1_555
C33 C32 1_555 1_555
H17 C33 1_555 1_555
C34 C33 1_555 1_555
H18 C34 1_555 1_555
C35 C34 1_555 1_555
C36 C35 1_555 1_555
C37 C32 1_555 1_555
H19 C37 1_555 1_555
C38 O18 1_555 1_555
C39 C36 1_555 1_555
C40 C39 1_555 1_555
H20 C40 1_555 1_555
C41 C40 1_555 1_555
C42 C41 1_555 1_555
H21 C42 1_555 1_555
C43 C42 1_555 1_555
C44 C39 1_555 1_555
H22 C44 1_555 1_555
C45 C41 1_555 1_555
C46 C43 1_555 1_555
Zn1_2 O14 1_555 1_555
Zn1C O11 1_555 1_555
Zn2C O10 1_555 1_555
Zn2C_2 O6 1_555 1_555
Zn3_2 O20 1_555 1_555
Zn3B O16 1_555 1_555
Zn3B_2 O22 1_555 1_555
Zn4_2 O19 1_555 1_555
Zn4_3 O9 1_555 1_555
Zn4B O17 1_555 1_555
O6C Zn2 1_555 1_555
O7C Zn2 1_555 1_555
O9_2 Zn4 1_555 1_555
O10C Zn2 1_555 1_555
O11C Zn1 1_555 1_555
O14_2 Zn1 1_555 1_555
O16B Zn3 1_555 1_555
O17B Zn4 1_555 1_555
O19_2 Zn4 1_555 1_555
O20_2 Zn3 1_555 1_555
O22B Zn3 1_555 1_555
Zn2 O18 1_555 1_555
O7 Zn2C_2 1_555 1_555
C6 C7 1_555 1_555
C13 C14 1_555 1_555
C20 C21 1_555 1_555
C29 C30 1_555 1_555
C35 C38 1_555 1_555
C36 C37 1_555 1_555
C43 C44 1_555 1_555

#END
