
#######################################################################
#
#                 Cambridge Crystallographic Data Centre
#                                CCDC 
#
#######################################################################
#
# If this CIF has been generated from an entry in the Cambridge 
# Structural Database, then it will include bibliographic, chemical, 
# crystal, experimental, refinement or atomic coordinate data resulting 
# from the CCDC's data processing and validation procedures.
#
#######################################################################

data_VEYRAU
_chemical_formula_moiety         
'(C38 H30 Ca4 N6 O20)n,0.2n(C3 H7 N1 O1),0.4n(H2 O1)'
_chemical_name_systematic        
"catena-[(\m~10~-5,5'-diazene-1,2-diyldiisophthalato)-(\m~8~-5,5'-diazene-1,2-diyldiisophthalato)-bis(N,N-dimethylformamide)-diaqua-tetra-calcium N,N-dimethylformamide solvate hydrate]"
_symmetry_cell_setting           triclinic
_symmetry_space_group_name_H-M   'P -1'
_symmetry_Int_Tables_number      2
_space_group_name_Hall           '-P 1'
loop_
_symmetry_equiv_pos_site_id
_symmetry_equiv_pos_as_xyz
1 x,y,z
2 -x,-y,-z
_cell_length_a                   10.1119(5)
_cell_length_b                   11.0499(8)
_cell_length_c                   12.7808(8)
_cell_angle_alpha                101.472(6)
_cell_angle_beta                 102.024(4)
_cell_angle_gamma                108.351(5)
_cell_volume                     1270.77
_exptl_crystal_colour            orange
_exptl_crystal_description       prism
_cell_formula_units_Z            1
loop_
_atom_site_label
_atom_site_type_symbol
_atom_site_fract_x
_atom_site_fract_y
_atom_site_fract_z
Ca1 Ca 0.33118(8) 0.25761(7) 0.86540(6)
Ca2 Ca 0.19995(8) 0.10208(8) 0.56701(7)
N1 N -0.0663(4) 0.4828(5) 0.9778(4)
C1 C -0.1220(5) 0.3842(5) 0.8714(4)
C2 C -0.0355(4) 0.3348(4) 0.8175(3)
H1 H 0.0646 0.3663 0.8500
C3 C -0.0998(4) 0.2380(4) 0.7145(3)
C4 C -0.2513(4) 0.1903(4) 0.6653(3)
H2 H -0.2942 0.1249 0.5971
C5 C -0.3368(5) 0.2413(5) 0.7188(4)
C6 C -0.2721(5) 0.3389(6) 0.8221(4)
H3 H -0.3291 0.3735 0.8578
C7 C -0.0043(4) 0.1839(4) 0.6600(3)
O1 O 0.1300(3) 0.2286(3) 0.7103(2)
O2 O -0.0574(3) 0.0979(3) 0.5663(2)
C8 C -0.4994(5) 0.1926(5) 0.6672(4)
O3 O -0.5705(3) 0.2488(3) 0.7155(2)
O4 O -0.5592(4) 0.0995(5) 0.5783(4)
N2 N 0.0446(4) 0.4845(3) 0.5312(3)
C9 C 0.2388(5) 0.8130(4) 0.7514(4)
C10 C 0.1493(5) 0.7212(4) 0.6502(4)
H4 H 0.1004 0.7482 0.5949
C11 C 0.1338(5) 0.5886(4) 0.6325(3)
C12 C 0.2095(4) 0.5473(4) 0.7139(3)
H5 H 0.2013 0.4590 0.7001
C13 C 0.2972(4) 0.6392(4) 0.8160(3)
C14 C 0.3128(5) 0.7723(4) 0.8342(3)
H6 H 0.3726 0.8342 0.9017
C15 C 0.3791(4) 0.5953(4) 0.9054(3)
O5 O 0.3558(3) 0.4733(3) 0.8861(2)
O6 O 0.4628(4) 0.6836(3) 0.9915(3)
C16 C 0.2565(6) 0.9577(4) 0.7717(4)
O7 O 0.3337(7) 1.0386(3) 0.8613(4)
O8 O 0.1840(5) 0.9886(3) 0.6980(3)
O9 O 0.2361(7) 0.2385(6) 0.4648(5)
C17 C 0.2731(12) 0.3269(11) 0.4197(10)
H7 H 0.2192 0.3810 0.4142
N3 N 0.3871(12) 0.3497(11) 0.3778(9)
C18 C 0.4873(17) 0.2781(16) 0.3920(14)
C19 C 0.418(2) 0.4495(19) 0.3153(16)
O10 O 0.1615(12) 0.1881(12) 0.9598(10)
N1A N 0.0663(4) 0.5172(5) 1.0222(4)
C1A C 0.1220(5) 0.6158(5) 1.1286(4)
C2A C 0.0355(4) 0.6652(4) 1.1825(3)
H1A H -0.0646 0.6337 1.1500
C3A C 0.0998(4) 0.7620(4) 1.2855(3)
C4A C 0.2513(4) 0.8097(4) 1.3347(3)
H2A H 0.2942 0.8751 1.4029
C5A C 0.3368(5) 0.7587(5) 1.2812(4)
C6A C 0.2721(5) 0.6611(6) 1.1779(4)
H3A H 0.3291 0.6265 1.1422
C7A C 0.0043(4) 0.8161(4) 1.3400(3)
O1A O -0.1300(3) 0.7714(3) 1.2897(2)
O2A O 0.0574(3) 0.9021(3) 1.4337(2)
C8A C 0.4994(5) 0.8074(5) 1.3328(4)
O3A O 0.5705(3) 0.7512(3) 1.2845(2)
O4A O 0.5592(4) 0.9005(5) 1.4217(4)
N2A N -0.0446(4) 0.5155(3) 0.4688(3)
C9A C -0.2388(5) 0.1870(4) 0.2486(4)
C10A C -0.1493(5) 0.2788(4) 0.3498(4)
H4A H -0.1004 0.2518 0.4051
C11A C -0.1338(5) 0.4114(4) 0.3675(3)
C12A C -0.2095(4) 0.4527(4) 0.2861(3)
H5A H -0.2013 0.5410 0.2999
C13A C -0.2972(4) 0.3608(4) 0.1840(3)
C14A C -0.3128(5) 0.2277(4) 0.1658(3)
H6A H -0.3726 0.1658 0.0983
C15A C -0.3791(4) 0.4047(4) 0.0946(3)
O5A O -0.3558(3) 0.5267(3) 0.1139(2)
O6A O -0.4628(4) 0.3164(3) 0.0085(3)
C16A C -0.2565(6) 0.0423(4) 0.2283(4)
O7A O -0.3337(7) -0.0386(3) 0.1387(4)
O8A O -0.1840(5) 0.0114(3) 0.3020(3)
Ca1A Ca -0.33118(8) -0.25761(7) 0.13460(6)
Ca2A Ca -0.19995(8) -0.10208(8) 0.43299(7)
O9A O -0.2361(7) -0.2385(6) 0.5352(5)
C17A C -0.2731(12) -0.3269(11) 0.5803(10)
H7A H -0.2192 -0.3810 0.5858
N3A N -0.3871(12) -0.3497(11) 0.6222(9)
C18A C -0.4873(17) -0.2781(16) 0.6080(14)
C19A C -0.418(2) -0.4495(19) 0.6847(16)
O10A O -0.1615(12) -0.1881(12) 0.0402(10)
Ca1_2 Ca -0.66882(8) 0.25761(7) -0.13460(6)
Ca1_3 Ca -0.66882(8) 0.25761(7) 0.86540(6)
Ca1_4 Ca 0.33118(8) 1.25761(7) 0.86540(6)
Ca1A_2 Ca -0.33118(8) 0.74239(7) 0.13460(6)
Ca1A_3 Ca -0.33118(8) 0.74239(7) 1.13460(6)
Ca1A_4 Ca 0.66882(8) 0.74239(7) 1.13460(6)
Ca2_2 Ca -0.80005(8) 0.10208(8) 0.56701(7)
Ca2_3 Ca 0.19995(8) 1.10208(8) 0.56701(7)
Ca2_4 Ca 0.19995(8) 1.10208(8) 1.56701(7)
Ca2A_2 Ca -0.19995(8) 0.89792(8) 1.43299(7)
Ca2A_3 Ca 0.80005(8) 0.89792(8) 1.43299(7)
O1A_2 O -0.1300(3) -0.2286(3) 0.2897(2)
O2A_2 O 0.0574(3) -0.0979(3) 0.4337(2)
O3_2 O 0.4295(3) 0.2488(3) 0.7155(2)
O3A_2 O -0.4295(3) -0.2488(3) 0.2845(2)
O4_2 O 0.4408(4) 0.0995(5) 0.5783(4)
O4A_2 O -0.4408(4) -0.0995(5) 0.4217(4)
O5A_2 O -0.3558(3) -0.4733(3) 0.1139(2)
O6_2 O -0.5372(4) -0.3164(3) -0.0085(3)
O6A_2 O 0.5372(4) 0.3164(3) 1.0085(3)
O7_2 O 0.3337(7) 0.0386(3) 0.8613(4)
O8_2 O 0.1840(5) -0.0114(3) 0.6980(3)
O11? O 0.2036(17) 0.3128(16) 0.5053(13)
O12? O 0.2060(9) 0.2634(9) 1.0027(7)
C20? C 0.266(2) 0.346(2) 1.0924(14)
H8? H 0.3616 0.4025 1.1055
N4? N 0.2012(17) 0.3635(16) 1.1774(13)
C21? C 0.045(2) 0.292(3) 1.147(3)
C22? C 0.282(4) 0.448(4) 1.291(2)
loop_
_geom_bond_atom_site_label_1
_geom_bond_atom_site_label_2
_geom_bond_site_symmetry_1
_geom_bond_site_symmetry_2
Ca1 O1 1_555 1_555
Ca2 O1 1_555 1_555
N1 C1 1_555 1_555
C1 C2 1_555 1_555
C2 H1 1_555 1_555
C3 C2 1_555 1_555
C4 C3 1_555 1_555
H2 C4 1_555 1_555
C5 C4 1_555 1_555
C6 C1 1_555 1_555
H3 C6 1_555 1_555
C7 C3 1_555 1_555
O1 C7 1_555 1_555
O2 Ca2 1_555 1_555
C8 C5 1_555 1_555
O3 C8 1_555 1_555
O4 C8 1_555 1_555
N2 C11 1_555 1_555
C9 C10 1_555 1_555
C10 H4 1_555 1_555
C11 C10 1_555 1_555
C12 C11 1_555 1_555
H5 C12 1_555 1_555
C13 C12 1_555 1_555
C14 C9 1_555 1_555
H6 C14 1_555 1_555
C15 C13 1_555 1_555
O5 Ca1 1_555 1_555
O6 C15 1_555 1_555
C16 C9 1_555 1_555
O7 C16 1_555 1_555
O8 C16 1_555 1_555
O9 Ca2 1_555 1_555
C17 O9 1_555 1_555
H7 C17 1_555 1_555
N3 C17 1_555 1_555
C18 N3 1_555 1_555
C19 N3 1_555 1_555
O10 Ca1 1_555 1_555
N1A N1 1_555 1_555
C1A N1A 1_555 1_555
C2A C1A 1_555 1_555
H1A C2A 1_555 1_555
C3A C2A 1_555 1_555
C4A C3A 1_555 1_555
H2A C4A 1_555 1_555
C5A C4A 1_555 1_555
C6A C1A 1_555 1_555
H3A C6A 1_555 1_555
C7A C3A 1_555 1_555
O1A C7A 1_555 1_555
O2A C7A 1_555 1_555
C8A C5A 1_555 1_555
O3A C8A 1_555 1_555
O4A C8A 1_555 1_555
N2A N2 1_555 1_555
C9A C10A 1_555 1_555
C10A H4A 1_555 1_555
C11A N2A 1_555 1_555
C12A C11A 1_555 1_555
H5A C12A 1_555 1_555
C13A C12A 1_555 1_555
C14A C9A 1_555 1_555
H6A C14A 1_555 1_555
C15A C13A 1_555 1_555
O5A C15A 1_555 1_555
O6A C15A 1_555 1_555
C16A C9A 1_555 1_555
O7A C16A 1_555 1_555
O8A C16A 1_555 1_555
Ca1A O7A 1_555 1_555
Ca2A O2 1_555 1_555
O9A Ca2A 1_555 1_555
C17A O9A 1_555 1_555
H7A C17A 1_555 1_555
N3A C17A 1_555 1_555
C18A N3A 1_555 1_555
C19A N3A 1_555 1_555
O10A Ca1A 1_555 1_555
Ca1_2 O6A 1_555 1_555
Ca1_3 O3 1_555 1_555
Ca1_4 O7 1_555 1_555
Ca1A_2 O5A 1_555 1_555
Ca1A_3 O1A 1_555 1_555
Ca1A_4 O6 1_555 1_555
Ca2_2 O3 1_555 1_555
Ca2_3 O8 1_555 1_555
Ca2_4 O2A 1_555 1_555
Ca2A_2 O1A 1_555 1_555
Ca2A_3 O3A 1_555 1_555
O1A_2 Ca1A 1_555 1_555
O2A_2 Ca2 1_555 1_555
O3_2 Ca1 1_555 1_555
O3A_2 Ca1A 1_555 1_555
O4_2 Ca2 1_555 1_555
O4A_2 Ca2A 1_555 1_555
O5A_2 Ca1A 1_555 1_555
O6_2 Ca1A 1_555 1_555
O6A_2 Ca1 1_555 1_555
O7_2 Ca1 1_555 1_555
O8_2 Ca2 1_555 1_555
Ca2 O3_2 1_555 1_555
C5 C6 1_555 1_555
C7 O2 1_555 1_555
O4 Ca2_2 1_555 1_555
C13 C14 1_555 1_555
C15 O5 1_555 1_555
C5A C6A 1_555 1_555
O2A Ca2A_2 1_555 1_555
O3A Ca1A_4 1_555 1_555
O4A Ca2A_3 1_555 1_555
C10A C11A 1_555 1_555
C13A C14A 1_555 1_555
O8A Ca2A 1_555 1_555
Ca2A O1A_2 1_555 1_555
Ca2A O2A_2 1_555 1_555
Ca2A O3A_2 1_555 1_555

#END
