
#######################################################################
#
#                 Cambridge Crystallographic Data Centre
#                                CCDC 
#
#######################################################################
#
# If this CIF has been generated from an entry in the Cambridge 
# Structural Database, then it will include bibliographic, chemical, 
# crystal, experimental, refinement or atomic coordinate data resulting 
# from the CCDC's data processing and validation procedures.
#
#######################################################################

data_DAWDUC
_chemical_formula_moiety         '(C30 H36 Cu3 N6 O24)n,4n(H2 O1)'
_chemical_name_systematic        
"catena-(bis(\m~4~-2,2',2''-(Benzene-1,3,5-triyltris(carbonylimino))triacetato)-bis(\m~2~-aqua)-tetra-aqua-tri-copper tetrahydrate)"
_symmetry_cell_setting           monoclinic
_symmetry_space_group_name_H-M   'P 21/n'
_symmetry_Int_Tables_number      14
_space_group_name_Hall           '-P 2yn'
loop_
_symmetry_equiv_pos_site_id
_symmetry_equiv_pos_as_xyz
1 x,y,z
2 1/2-x,1/2+y,1/2-z
3 -x,-y,-z
4 1/2+x,1/2-y,1/2+z
_cell_length_a                   7.5477(15)
_cell_length_b                   15.324(3)
_cell_length_c                   18.438(4)
_cell_angle_alpha                90
_cell_angle_beta                 94.279(4)
_cell_angle_gamma                90
_cell_volume                     2126.61
_exptl_crystal_colour            blue
_exptl_crystal_description       block
_cell_formula_units_Z            2
loop_
_atom_site_label
_atom_site_type_symbol
_atom_site_fract_x
_atom_site_fract_y
_atom_site_fract_z
C1 C -0.2173(5) 0.0354(2) 0.0385(2)
C2 C -0.2682(5) -0.0315(2) 0.0829(2)
H1 H -0.2601 -0.0244 0.1331
C3 C -0.3316(5) -0.1100(2) 0.0520(2)
C4 C -0.3483(5) -0.1198(2) -0.0233(2)
H2 H -0.3928 -0.1716 -0.0438
C5 C -0.2992(5) -0.0524(2) -0.0674(2)
C6 C -0.2321(5) 0.0239(2) -0.0364(2)
H3 H -0.1962 0.0685 -0.0662
C7 C -0.1586(5) 0.1235(2) 0.0667(2)
C8 C -0.1092(6) 0.2230(2) 0.1680(2)
H4 H -0.0004 0.2439 0.1491
H5 H -0.0882 0.2184 0.2204
C9 C -0.2539(5) 0.2892(2) 0.1507(2)
C10 C -0.3889(5) -0.1790(2) 0.1025(2)
C11 C -0.6121(5) -0.2837(2) 0.1304(2)
H6 H -0.7402 -0.2863 0.1212
H7 H -0.5860 -0.2669 0.1808
C12 C -0.5354(5) -0.3739(2) 0.1185(2)
C13 C -0.3224(5) -0.0546(2) -0.1493(2)
C14 C -0.4399(5) -0.1304(2) -0.2583(2)
H8 H -0.4606 -0.1919 -0.2682
H9 H -0.3285 -0.1151 -0.2780
C15 C -0.5878(5) -0.0784(2) -0.2997(2)
Cu1 Cu -0.37567(6) -0.53176(3) 0.17700(3)
Cu2 Cu -0.5000 -0.5000 0.0000
N1 N -0.1476(4) 0.13655(19) 0.13883(17)
H10 H -0.1636 0.0937 0.1678
N2 N -0.5432(4) -0.21833(18) 0.08401(17)
H11 H -0.6024 -0.2041 0.0441
N3 N -0.4191(4) -0.11913(19) -0.18033(16)
H12 H -0.4705 -0.1553 -0.1531
O1 O -0.1280(4) 0.18172(16) 0.02371(15)
O2 O -0.4019(4) 0.26496(15) 0.12322(15)
O3 O -0.2133(3) 0.36717(15) 0.16636(13)
O4 O -0.2979(4) -0.19725(17) 0.15915(15)
O5 O -0.5060(4) -0.39210(16) 0.05426(15)
O6 O -0.5128(3) -0.42261(16) 0.17359(14)
O7 O -0.2549(4) 0.00213(18) -0.18535(15)
O8 O -0.6871(3) -0.03025(15) -0.26403(14)
O9 O -0.6000(4) -0.0868(2) -0.36633(15)
O10 O -0.4781(4) -0.60176(18) 0.27111(15)
H13 H -0.4288 -0.6265 0.3007
H14 H -0.5309 -0.5675 0.2941
O11 O -0.5641(3) -0.58395(16) 0.10953(13)
H15 H -0.5548 -0.6392 0.1106
H16 H -0.6655 -0.5692 0.1226
O12 O -0.2481(4) -0.51346(17) 0.02678(16)
H17 H -0.2075 -0.4871 0.0569
H18 H -0.1832 -0.5554 0.0139
C1B C -0.7827(5) -1.0354(2) -0.0385(2)
C2B C -0.7318(5) -0.9685(2) -0.0829(2)
H1B H -0.7399 -0.9756 -0.1331
C3B C -0.6684(5) -0.8900(2) -0.0520(2)
C4B C -0.6517(5) -0.8802(2) 0.0233(2)
H2B H -0.6072 -0.8284 0.0438
C5B C -0.7008(5) -0.9476(2) 0.0674(2)
C6B C -0.7679(5) -1.0239(2) 0.0364(2)
H3B H -0.8038 -1.0685 0.0662
C7B C -0.8414(5) -1.1235(2) -0.0667(2)
C8B C -0.8908(6) -1.2230(2) -0.1680(2)
H4B H -0.9996 -1.2439 -0.1491
H5B H -0.9118 -1.2184 -0.2204
C9B C -0.7461(5) -1.2892(2) -0.1507(2)
C10B C -0.6111(5) -0.8210(2) -0.1025(2)
C11B C -0.3879(5) -0.7163(2) -0.1304(2)
H6B H -0.2598 -0.7137 -0.1212
H7B H -0.4140 -0.7331 -0.1808
C12B C -0.4646(5) -0.6261(2) -0.1185(2)
C13B C -0.6776(5) -0.9454(2) 0.1493(2)
C14B C -0.5601(5) -0.8696(2) 0.2583(2)
H8B H -0.5394 -0.8081 0.2682
H9B H -0.6715 -0.8849 0.2780
C15B C -0.4122(5) -0.9216(2) 0.2997(2)
Cu1B Cu -0.62433(6) -1.46824(3) -0.17700(3)
Cu1_2 Cu -0.37567(6) 0.46824(3) 0.17700(3)
Cu1C Cu -0.87567(6) 0.03176(3) -0.32300(3)
Cu1B_2 Cu -0.62433(6) -0.46824(3) -0.17700(3)
Cu1A Cu -0.12433(6) -1.03176(3) 0.32300(3)
N1B N -0.8524(4) -1.13655(19) -0.13883(17)
H10B H -0.8364 -1.0937 -0.1678
N2B N -0.4568(4) -0.78167(18) -0.08401(17)
H11B H -0.3976 -0.7959 -0.0441
N3B N -0.5809(4) -0.88087(19) 0.18033(16)
H12B H -0.5295 -0.8447 0.1531
O1B O -0.8720(4) -1.18172(16) -0.02371(15)
O2B O -0.5981(4) -1.26496(15) -0.12322(15)
O3B O -0.7867(3) -1.36717(15) -0.16636(13)
O3_2 O -0.2133(3) -0.63283(15) 0.16636(13)
O3B_2 O -0.7867(3) -0.36717(15) -0.16636(13)
O4B O -0.7021(4) -0.80275(17) -0.15915(15)
O5B O -0.4940(4) -0.60790(16) -0.05426(15)
O6B O -0.4872(3) -0.57739(16) -0.17359(14)
O7B O -0.7451(4) -1.00213(18) 0.18535(15)
O8B O -0.3129(3) -0.96975(15) 0.26403(14)
O8C O -0.1871(3) -0.46975(15) 0.23597(14)
O8A O -0.8129(3) -0.53025(15) -0.23597(14)
O9B O -0.4000(4) -0.9132(2) 0.36633(15)
O10B O -0.5219(4) -0.39824(18) -0.27111(15)
H13B H -0.5712 -0.3735 -0.3007
H14B H -0.4691 -0.4325 -0.2941
O11B O -0.4359(3) -0.41605(16) -0.10953(13)
H15B H -0.4452 -0.3608 -0.1106
H16B H -0.3345 -0.4308 -0.1226
O12B O -0.7519(4) -0.48654(17) -0.02678(16)
H17B H -0.7925 -0.5129 -0.0569
H18B H -0.8168 -0.4446 -0.0139
O13 O -0.0386(5) -0.64626(18) 0.99785(19)
H19 H 0.0527 -0.6384 0.9641
H20 H -0.0802 -0.6947 0.9969
O14 O -0.8524(4) -0.5902(2) 0.18085(19)
H21 H -0.9369 -0.6123 0.1538
H22 H -0.8806 -0.5389 0.1932
loop_
_geom_bond_atom_site_label_1
_geom_bond_atom_site_label_2
_geom_bond_site_symmetry_1
_geom_bond_site_symmetry_2
C1 C2 1_555 1_555
C2 H1 1_555 1_555
C3 C2 1_555 1_555
C4 C3 1_555 1_555
H2 C4 1_555 1_555
C5 C4 1_555 1_555
C6 C1 1_555 1_555
H3 C6 1_555 1_555
C7 C1 1_555 1_555
C8 H4 1_555 1_555
H5 C8 1_555 1_555
C9 C8 1_555 1_555
C10 C3 1_555 1_555
C11 H6 1_555 1_555
H7 C11 1_555 1_555
C12 C11 1_555 1_555
C13 C5 1_555 1_555
C14 H8 1_555 1_555
H9 C14 1_555 1_555
C15 C14 1_555 1_555
Cu1 O6 1_555 1_555
Cu2 O5 1_555 1_555
N1 C7 1_555 1_555
H10 N1 1_555 1_555
N2 C10 1_555 1_555
H11 N2 1_555 1_555
N3 C13 1_555 1_555
H12 N3 1_555 1_555
O1 C7 1_555 1_555
O2 C9 1_555 1_555
O3 C9 1_555 1_555
O4 C10 1_555 1_555
O5 C12 1_555 1_555
O6 C12 1_555 1_555
O7 C13 1_555 1_555
O8 C15 1_555 1_555
O9 C15 1_555 1_555
O10 Cu1 1_555 1_555
H13 O10 1_555 1_555
H14 O10 1_555 1_555
O11 Cu1 1_555 1_555
H15 O11 1_555 1_555
H16 O11 1_555 1_555
O12 Cu2 1_555 1_555
H17 O12 1_555 1_555
H18 O12 1_555 1_555
O13 H19 1_555 1_555
H20 O13 1_555 1_555
O14 H21 1_555 1_555
H22 O14 1_555 1_555
C1B C2B 1_555 1_555
C2B H1B 1_555 1_555
C3B C2B 1_555 1_555
C4B C3B 1_555 1_555
H2B C4B 1_555 1_555
C5B C4B 1_555 1_555
C6B C1B 1_555 1_555
H3B C6B 1_555 1_555
C7B C1B 1_555 1_555
C8B H4B 1_555 1_555
H5B C8B 1_555 1_555
C9B C8B 1_555 1_555
C10B C3B 1_555 1_555
C11B H6B 1_555 1_555
H7B C11B 1_555 1_555
C12B C11B 1_555 1_555
C13B C5B 1_555 1_555
C14B H8B 1_555 1_555
H9B C14B 1_555 1_555
C15B C14B 1_555 1_555
Cu1B O3B 1_555 1_555
Cu1_2 O3 1_555 1_555
Cu1C O8 1_555 1_555
Cu1B_2 O3B_2 1_555 1_555
Cu1A O8B 1_555 1_555
N1B C7B 1_555 1_555
H10B N1B 1_555 1_555
N2B C10B 1_555 1_555
H11B N2B 1_555 1_555
N3B C13B 1_555 1_555
H12B N3B 1_555 1_555
O1B C7B 1_555 1_555
O2B C9B 1_555 1_555
O3B C9B 1_555 1_555
O3_2 Cu1 1_555 1_555
O4B C10B 1_555 1_555
O5B Cu2 1_555 1_555
O6B C12B 1_555 1_555
O7B C13B 1_555 1_555
O8B C15B 1_555 1_555
O8C Cu1 1_555 1_555
O8A Cu1B_2 1_555 1_555
O9B C15B 1_555 1_555
O10B Cu1B_2 1_555 1_555
H13B O10B 1_555 1_555
H14B O10B 1_555 1_555
O11B Cu2 1_555 1_555
H15B O11B 1_555 1_555
H16B O11B 1_555 1_555
O12B Cu2 1_555 1_555
H17B O12B 1_555 1_555
H18B O12B 1_555 1_555
C5 C6 1_555 1_555
C8 N1 1_555 1_555
C11 N2 1_555 1_555
C14 N3 1_555 1_555
Cu2 O11 1_555 1_555
C5B C6B 1_555 1_555
C8B N1B 1_555 1_555
C11B N2B 1_555 1_555
C12B O5B 1_555 1_555
C14B N3B 1_555 1_555
Cu1B_2 O6B 1_555 1_555
Cu1B_2 O11B 1_555 1_555

#END
