
#######################################################################
#
#                 Cambridge Crystallographic Data Centre
#                                CCDC 
#
#######################################################################
#
# If this CIF has been generated from an entry in the Cambridge 
# Structural Database, then it will include bibliographic, chemical, 
# crystal, experimental, refinement or atomic coordinate data resulting 
# from the CCDC's data processing and validation procedures.
#
#######################################################################

data_DAWFAK
_chemical_formula_moiety         '(C25 H23 Cu2 N5 O10)n,2n(H2 O1)'
_chemical_name_systematic        
"catena-((\m~5~-2,2',2''-(Benzene-1,3,5-triyltris(carbonylimino))triacetato)-(\m~3~-hydroxo)-bis(pyridine-N)-di-copper dihydrate)"
_symmetry_cell_setting           monoclinic
_symmetry_space_group_name_H-M   'C 2/c'
_symmetry_Int_Tables_number      15
_space_group_name_Hall           '-C 2yc'
loop_
_symmetry_equiv_pos_site_id
_symmetry_equiv_pos_as_xyz
1 x,y,z
2 -x,y,1/2-z
3 1/2+x,1/2+y,z
4 1/2-x,1/2+y,1/2-z
5 -x,-y,-z
6 x,-y,1/2+z
7 1/2-x,1/2-y,-z
8 1/2+x,1/2-y,1/2+z
_cell_length_a                   22.5019(12)
_cell_length_b                   13.5807(7)
_cell_length_c                   21.7291(12)
_cell_angle_alpha                90
_cell_angle_beta                 107.5420(10)
_cell_angle_gamma                90
_cell_volume                     6331.43
_exptl_crystal_colour            'dark blue'
_exptl_crystal_description       block
_cell_formula_units_Z            8
loop_
_atom_site_label
_atom_site_type_symbol
_atom_site_fract_x
_atom_site_fract_y
_atom_site_fract_z
C1 C 1.00102(17) 0.0471(3) 0.33666(17)
C2 C 1.05460(17) 0.1020(3) 0.33779(18)
H1 H 1.0541 0.1704 0.3396
C3 C 1.10750(16) 0.0533(3) 0.33541(16)
C4 C 1.10774(17) -0.0485(3) 0.33262(17)
H2 H 1.1430 -0.0813 0.3295
C5 C 1.05718(16) -0.1028(3) 0.33355(16)
C6 C 1.00295(17) -0.0523(3) 0.33649(17)
H3 H 0.9679 -0.0883 0.3368
C7 C 0.94227(18) 0.0992(3) 0.33979(19)
C8 C 0.87770(16) 0.2422(3) 0.31696(16)
H4 H 0.8615 0.2826 0.2787
H5 H 0.8443 0.1998 0.3207
C9 C 0.89810(16) 0.3100(2) 0.37605(15)
C10 C 1.16405(18) 0.1129(3) 0.3368(2)
C11 C 1.26380(17) 0.1201(3) 0.31346(19)
H6 H 1.2708 0.1129 0.2718
H7 H 1.2599 0.1898 0.3211
C12 C 1.31941(17) 0.0802(3) 0.36589(18)
C13 C 1.06176(17) -0.2130(3) 0.33284(18)
C14 C 1.01730(18) -0.3742(3) 0.33871(17)
H8 H 0.9750 -0.3992 0.3253
H9 H 1.0367 -0.3943 0.3065
C15 C 1.05196(16) -0.4224(3) 0.40196(16)
C16 C 1.1167(2) 0.2861(3) 0.48718(18)
H10 H 1.1326 0.3410 0.4719
C17 C 1.1529(2) 0.1992(3) 0.50391(19)
H11 H 1.1922 0.1994 0.4982
C18 C 1.1319(2) 0.1226(3) 0.52794(19)
H12 H 1.1588 0.0698 0.5421
C19 C 1.0693(2) 0.1267(3) 0.53043(19)
H13 H 1.0547 0.0709 0.5460
C20 C 1.0365(2) 0.2077(3) 0.51097(17)
H14 H 0.9956 0.2079 0.5125
C21 C 0.79487(18) 0.4249(3) 0.56586(19)
H15 H 0.8296 0.4524 0.5957
C22 C 0.74400(19) 0.4028(3) 0.5863(2)
H16 H 0.7457 0.4110 0.6293
C23 C 0.69225(18) 0.3630(3) 0.54301(19)
H17 H 0.6572 0.3473 0.5553
C24 C 0.69319(17) 0.3476(3) 0.48042(18)
H18 H 0.6588 0.3212 0.4496
C25 C 0.74530(17) 0.3744(3) 0.46309(19)
H19 H 0.7458 0.3643 0.4209
Cu1 Cu 1.005144(19) 0.40608(3) 0.466092(19)
Cu2 Cu 0.869406(19) 0.44895(3) 0.476461(19)
N1 N 0.92850(14) 0.1833(2) 0.30955(14)
H20 H 0.9498 0.2035 0.2851
N2 N 1.20506(14) 0.0728(2) 0.31182(15)
H21 H 1.1968 0.0160 0.2937
N3 N 1.01404(14) -0.2670(2) 0.33934(15)
H22 H 0.9815 -0.2384 0.3439
N4 N 1.05981(16) 0.2894(2) 0.49135(15)
N5 N 0.79555(13) 0.4122(2) 0.50590(14)
O1 O 0.85888(12) 0.3365(2) 0.40081(12)
O2 O 0.95491(11) 0.33344(18) 0.39375(12)
O3 O 0.90925(12) 0.05941(19) 0.36763(12)
O4 O 1.37113(12) 0.10062(19) 0.36010(12)
O5 O 1.31029(11) 0.03338(19) 0.41119(12)
O6 O 1.16892(12) 0.1964(2) 0.35975(12)
O7 O 1.07364(11) -0.36990(19) 0.45239(11)
O8 O 1.05701(13) -0.5133(2) 0.40146(12)
O9 O 1.11054(12) -0.25200(19) 0.33031(12)
O10 O 1.05558(10) 0.48863(17) 0.53748(11)
H23 H 1.0661 0.4534 0.5787
Cu1_2 Cu 1.005144(19) -0.59392(3) 0.466092(19)
Cu1D Cu 0.994856(19) 0.59392(3) 0.533908(19)
Cu2B Cu 1.369406(19) -0.05105(3) 0.476461(19)
Cu2D Cu 1.130594(19) -0.44895(3) 0.523539(19)
Cu2D_2 Cu 1.130594(19) 0.55105(3) 0.523539(19)
O5B O 0.81029(11) 0.53338(19) 0.41119(12)
O7D O 0.92636(11) 0.36990(19) 0.54761(11)
O8_2 O 1.05701(13) 0.4867(2) 0.40146(12)
O10D O 0.94442(10) 0.51137(17) 0.46252(11)
H23D H 0.9339 0.5466 0.4213
O11 O 0.8813(2) 0.2254(4) 0.7989(3)
H24 H 0.8678 0.2519 0.7619
H25 H 0.8814 0.2676 0.8278
O12 O 0.8060(2) 0.0683(4) 0.7955(3)
H26 H 0.8146 0.1290 0.7939
H27 H 0.8311 0.0422 0.8289
O13 O 0.8013(2) 0.6151(3) 0.6638(2)
H28 H 0.8334 0.6489 0.6647
H29 H 0.7901 0.6282 0.6969
O14? O 0.9829(2) -0.3235(3) 0.7205(2)
H30? H 0.9832 -0.3631 0.6903
H31? H 1.0132 -0.3364 0.7538
loop_
_geom_bond_atom_site_label_1
_geom_bond_atom_site_label_2
_geom_bond_site_symmetry_1
_geom_bond_site_symmetry_2
C1 C2 1_555 1_555
C2 H1 1_555 1_555
C3 C2 1_555 1_555
C4 C3 1_555 1_555
H2 C4 1_555 1_555
C5 C4 1_555 1_555
C6 C1 1_555 1_555
H3 C6 1_555 1_555
C7 C1 1_555 1_555
C8 H4 1_555 1_555
H5 C8 1_555 1_555
C9 C8 1_555 1_555
C10 C3 1_555 1_555
C11 H6 1_555 1_555
H7 C11 1_555 1_555
C12 C11 1_555 1_555
C13 C5 1_555 1_555
C14 H8 1_555 1_555
H9 C14 1_555 1_555
C15 C14 1_555 1_555
C16 H10 1_555 1_555
C17 C16 1_555 1_555
H11 C17 1_555 1_555
C18 C17 1_555 1_555
H12 C18 1_555 1_555
C19 C18 1_555 1_555
H13 C19 1_555 1_555
C20 C19 1_555 1_555
H14 C20 1_555 1_555
C21 H15 1_555 1_555
C22 C21 1_555 1_555
H16 C22 1_555 1_555
C23 C22 1_555 1_555
H17 C23 1_555 1_555
C24 C23 1_555 1_555
H18 C24 1_555 1_555
C25 C24 1_555 1_555
H19 C25 1_555 1_555
Cu1 N4 1_555 1_555
Cu2 N5 1_555 1_555
N1 C7 1_555 1_555
H20 N1 1_555 1_555
N2 C10 1_555 1_555
H21 N2 1_555 1_555
N3 C13 1_555 1_555
H22 N3 1_555 1_555
N4 C16 1_555 1_555
N5 C21 1_555 1_555
O1 C9 1_555 1_555
O2 C9 1_555 1_555
O3 C7 1_555 1_555
O4 C12 1_555 1_555
O5 C12 1_555 1_555
O6 C10 1_555 1_555
O7 C15 1_555 1_555
O8 C15 1_555 1_555
O9 C13 1_555 1_555
O10 Cu1 1_555 1_555
H23 O10 1_555 1_555
O11 H24 1_555 1_555
H25 O11 1_555 1_555
O12 H26 1_555 1_555
H27 O12 1_555 1_555
O13 H28 1_555 1_555
H29 O13 1_555 1_555
Cu1_2 O8 1_555 1_555
Cu1D O10 1_555 1_555
Cu2B O5 1_555 1_555
Cu2D O7 1_555 1_555
Cu2D_2 O10 1_555 1_555
O5B Cu2 1_555 1_555
O7D Cu2 1_555 1_555
O8_2 Cu1 1_555 1_555
O10D Cu1 1_555 1_555
H23D O10D 1_555 1_555
C5 C6 1_555 1_555
C8 N1 1_555 1_555
C11 N2 1_555 1_555
C14 N3 1_555 1_555
C20 N4 1_555 1_555
C25 N5 1_555 1_555
Cu1 O2 1_555 1_555
Cu2 O1 1_555 1_555
Cu2 O10D 1_555 1_555
Cu1D O10D 1_555 1_555

#END
