
#######################################################################
#
#                 Cambridge Crystallographic Data Centre
#                                CCDC 
#
#######################################################################
#
# If this CIF has been generated from an entry in the Cambridge 
# Structural Database, then it will include bibliographic, chemical, 
# crystal, experimental, refinement or atomic coordinate data resulting 
# from the CCDC's data processing and validation procedures.
#
#######################################################################

data_FATLUJ
_chemical_formula_moiety         '(C28 H26 Cu2 N5 O10)n,6n(H2 O1)'
_chemical_name_systematic        
"catena-((\m~6~-2,2',2''-(Benzene-1,3,5-triyltris(carbonylimino))triacetato)-(\m~3~-oxo)-(\m~2~-1,3-bis(4-pyridyl)propane)-di-copper hexahydrate)"
_symmetry_cell_setting           triclinic
_symmetry_space_group_name_H-M   'P -1'
_symmetry_Int_Tables_number      2
_space_group_name_Hall           '-P 1'
loop_
_symmetry_equiv_pos_site_id
_symmetry_equiv_pos_as_xyz
1 x,y,z
2 -x,-y,-z
_cell_length_a                   11.575(2)
_cell_length_b                   12.634(3)
_cell_length_c                   14.335(2)
_cell_angle_alpha                101.3690(10)
_cell_angle_beta                 102.935(3)
_cell_angle_gamma                96.457(2)
_cell_volume                     1975.96
_exptl_crystal_colour            blue
_exptl_crystal_description       block
_cell_formula_units_Z            2
loop_
_atom_site_label
_atom_site_type_symbol
_atom_site_fract_x
_atom_site_fract_y
_atom_site_fract_z
C1 C -0.3970(3) 0.3695(3) -0.4782(3)
C2 C -0.5223(3) 0.3368(3) -0.5093(3)
H1 H -0.5616 0.3050 -0.4693
C3 C -0.5875(3) 0.3503(3) -0.5964(3)
C4 C -0.5281(3) 0.3991(3) -0.6543(3)
H2 H -0.5723 0.4088 -0.7138
C5 C -0.4076(4) 0.4332(3) -0.6277(3)
C6 C -0.3394(4) 0.4156(3) -0.5402(3)
H3 H -0.2561 0.4344 -0.5232
C7 C -0.3311(3) 0.3513(3) -0.3807(3)
C8 C -0.1371(4) 0.3276(3) -0.2829(3)
H4 H -0.1806 0.3171 -0.2341
H5 H -0.0678 0.3842 -0.2510
C9 C -0.0947(4) 0.2232(3) -0.3195(3)
C10 C -0.7178(3) 0.3163(3) -0.6316(3)
C11 C -0.9110(3) 0.2601(3) -0.5993(3)
H6 H -0.9474 0.2867 -0.6562
H7 H -0.9467 0.2881 -0.5464
C12 C -0.9371(3) 0.1366(3) -0.6244(3)
C13 C -0.3379(4) 0.4922(3) -0.6845(3)
C14 C -0.3434(4) 0.6364(3) -0.7787(3)
H8 H -0.4077 0.6608 -0.8210
H9 H -0.3015 0.5943 -0.8206
C15 C -0.2566(4) 0.7358(3) -0.7134(3)
C16 C 0.6398(3) -0.0530(3) 0.4369(3)
H10 H 0.6636 -0.1062 0.4702
C17 C 0.5268(3) -0.0620(3) 0.3909(3)
H11 H 0.4724 -0.1212 0.3929
C18 C 0.4867(3) 0.0124(3) 0.3406(3)
C19 C 0.5736(3) 0.1028(3) 0.3400(3)
H12 H 0.5514 0.1558 0.3060
C20 C 0.6889(4) 0.1084(3) 0.3904(3)
H13 H 0.7452 0.1678 0.3919
C21 C 0.3531(3) 0.0026(3) 0.2955(3)
H14 H 0.3196 0.0534 0.3380
H15 H 0.3139 -0.0709 0.2912
C22 C 0.3279(3) 0.0254(3) 0.1970(3)
H16 H 0.3695 0.0977 0.2005
H17 H 0.3581 -0.0274 0.1535
C23 C 0.1854(4) 0.0191(3) 0.1523(3)
H18 H 0.1565 0.0789 0.1893
H19 H 0.1417 -0.0493 0.1562
C24 C 0.1667(3) 0.0270(3) 0.0474(3)
C25 C 0.1542(3) -0.0620(3) -0.0284(3)
H20 H 0.1555 -0.1313 -0.0157
C26 C 0.1397(3) -0.0492(3) -0.1228(3)
H21 H 0.1373 -0.1100 -0.1722
C27 C 0.1400(4) 0.1312(3) -0.0748(3)
H22 H 0.1347 0.1992 -0.0897
C28 C 0.1592(4) 0.1255(3) 0.0213(3)
H23 H 0.1672 0.1888 0.0697
Cu1 Cu 0.09965(4) 0.06298(4) -0.28558(3)
Cu2 Cu 0.89385(4) 0.04998(4) 0.51644(3)
N1 N -0.2131(3) 0.3636(3) -0.3596(2)
H24 H -0.1782 0.3966 -0.3955
N2 N -0.7824(3) 0.3011(3) -0.5697(3)
H25 H -0.7469 0.3161 -0.5080
N3 N -0.3964(3) 0.5643(3) -0.7245(2)
H26 H -0.4680 0.5689 -0.7184
N4 N 0.7249(3) 0.0331(3) 0.4375(2)
N5 N 0.1288(3) 0.0467(3) -0.1472(2)
O1 O -0.3894(2) 0.3250(2) -0.32340(19)
O2 O -0.1250(2) 0.1878(2) -0.4090(2)
O3 O -0.0335(2) 0.1835(2) -0.25667(19)
O4 O -0.7682(2) 0.3031(2) -0.72238(19)
O5 O -0.8574(2) 0.0810(2) -0.60306(19)
O6 O -1.0485(2) 0.0968(2) -0.6647(2)
O7 O -0.2395(2) 0.4781(2) -0.69315(19)
O8 O -0.2190(2) 0.7414(2) -0.62477(19)
O9 O -0.2308(2) 0.8074(2) -0.7582(2)
O10 O 0.0683(2) 0.0723(2) -0.42318(18)
Cu1A Cu -1.09965(4) -0.06298(4) -0.71442(3)
Cu1A_2 Cu -0.09965(4) 0.93702(4) -0.71442(3)
Cu2_2 Cu -0.10615(4) 0.04998(4) -0.48356(3)
Cu2A Cu -0.89385(4) -0.04998(4) -0.51644(3)
Cu2A_2 Cu 0.10615(4) -0.04998(4) -0.51644(3)
O2_2 O 0.8750(2) 0.1878(2) 0.5910(2)
O5A O 0.8574(2) -0.0810(2) 0.60306(19)
O6A O 0.0485(2) -0.0968(2) -0.3353(2)
O9A O 0.2308(2) 0.1926(2) -0.2418(2)
O10_2 O 1.0683(2) 0.0723(2) 0.57682(18)
O10A O 0.9317(2) -0.0723(2) 0.42318(18)
O11 O -0.0093(2) 0.4579(2) 0.58075(19)
H27 H 0.0660 0.4575 0.5959
H28 H -0.0386 0.4264 0.5205
O12 O 0.5530(3) 0.8368(2) 0.0715(2)
H29 H 0.6105 0.8292 0.1170
H30 H 0.4953 0.8544 0.0957
O13 O 0.0730(3) 0.3990(2) 0.1701(2)
H31 H 0.1356 0.3938 0.2120
H32 H 0.0186 0.3448 0.1629
O14 O 0.6194(2) 0.2552(2) 0.8590(2)
H33 H 0.5602 0.2428 0.8087
H34 H 0.6801 0.2899 0.8476
O15 O 0.8016(2) 0.3103(2) 0.17427(19)
H35 H 0.7299 0.3186 0.1749
H36 H 0.8499 0.3660 0.2115
O16 O 0.4493(6) 0.3359(5) 0.0616(5)
H37 H 0.3940 0.3737 0.0488
H38 H 0.5097 0.3601 0.0429
O17 O 0.9250(8) 0.3520(8) 0.9497(6)
H39 H 0.9944 0.3341 0.9547
H40 H 0.9312 0.4160 0.9848
O18 O 0.3573(8) 0.5592(8) 0.0628(6)
H41 H 0.4051 0.5575 0.0255
H42 H 0.2953 0.5109 0.0353
H43? H -0.7991 -0.0376 -0.4675
loop_
_geom_bond_atom_site_label_1
_geom_bond_atom_site_label_2
_geom_bond_site_symmetry_1
_geom_bond_site_symmetry_2
C1 C2 1_555 1_555
C2 H1 1_555 1_555
C3 C2 1_555 1_555
C4 C3 1_555 1_555
H2 C4 1_555 1_555
C5 C4 1_555 1_555
C6 C1 1_555 1_555
H3 C6 1_555 1_555
C7 C1 1_555 1_555
C8 H4 1_555 1_555
H5 C8 1_555 1_555
C9 C8 1_555 1_555
C10 C3 1_555 1_555
C11 H6 1_555 1_555
H7 C11 1_555 1_555
C12 C11 1_555 1_555
C13 C5 1_555 1_555
C14 H8 1_555 1_555
H9 C14 1_555 1_555
C15 C14 1_555 1_555
C16 H10 1_555 1_555
C17 C16 1_555 1_555
H11 C17 1_555 1_555
C18 C17 1_555 1_555
C19 C18 1_555 1_555
H12 C19 1_555 1_555
C20 C19 1_555 1_555
H13 C20 1_555 1_555
C21 C18 1_555 1_555
H14 C21 1_555 1_555
H15 C21 1_555 1_555
C22 C21 1_555 1_555
H16 C22 1_555 1_555
H17 C22 1_555 1_555
C23 C22 1_555 1_555
H18 C23 1_555 1_555
H19 C23 1_555 1_555
C24 C23 1_555 1_555
C25 C24 1_555 1_555
H20 C25 1_555 1_555
C26 C25 1_555 1_555
H21 C26 1_555 1_555
C27 H22 1_555 1_555
C28 C24 1_555 1_555
H23 C28 1_555 1_555
Cu1 N5 1_555 1_555
Cu2 N4 1_555 1_555
N1 C7 1_555 1_555
H24 N1 1_555 1_555
N2 C10 1_555 1_555
H25 N2 1_555 1_555
N3 C13 1_555 1_555
H26 N3 1_555 1_555
N4 C16 1_555 1_555
N5 C26 1_555 1_555
O1 C7 1_555 1_555
O2 C9 1_555 1_555
O3 C9 1_555 1_555
O4 C10 1_555 1_555
O5 C12 1_555 1_555
O6 C12 1_555 1_555
O7 C13 1_555 1_555
O8 C15 1_555 1_555
O9 C15 1_555 1_555
O10 Cu1 1_555 1_555
O11 H27 1_555 1_555
H28 O11 1_555 1_555
O12 H29 1_555 1_555
H30 O12 1_555 1_555
O13 H31 1_555 1_555
H32 O13 1_555 1_555
O14 H33 1_555 1_555
H34 O14 1_555 1_555
O15 H35 1_555 1_555
H36 O15 1_555 1_555
O16 H37 1_555 1_555
H38 O16 1_555 1_555
O17 H39 1_555 1_555
H40 O17 1_555 1_555
O18 H41 1_555 1_555
H42 O18 1_555 1_555
Cu1A O6 1_555 1_555
Cu1A_2 O9 1_555 1_555
Cu2_2 O2 1_555 1_555
Cu2A O5 1_555 1_555
Cu2A_2 O10 1_555 1_555
O2_2 Cu2 1_555 1_555
O5A Cu2 1_555 1_555
O6A Cu1 1_555 1_555
O9A Cu1 1_555 1_555
O10_2 Cu2 1_555 1_555
O10A Cu2 1_555 1_555
C5 C6 1_555 1_555
C8 N1 1_555 1_555
C11 N2 1_555 1_555
C14 N3 1_555 1_555
C20 N4 1_555 1_555
C27 C28 1_555 1_555
C27 N5 1_555 1_555
Cu1 O3 1_555 1_555
O10 Cu2_2 1_555 1_555

#END
