
#######################################################################
#
#                 Cambridge Crystallographic Data Centre
#                                CCDC 
#
#######################################################################
#
# If this CIF has been generated from an entry in the Cambridge 
# Structural Database, then it will include bibliographic, chemical, 
# crystal, experimental, refinement or atomic coordinate data resulting 
# from the CCDC's data processing and validation procedures.
#
#######################################################################

data_YUBSUL
_chemical_formula_moiety         '(C36 H42 Co2 N6 O8 P2)n'
_chemical_name_systematic        
'catena-[bis(\m~3~-2,6-diisopropylphenyl phosphato)-(\m~2~-3,6-di(pyridin-4-yl)-1,2,4,5-tetrazine)-di-cobalt unknown solvate]'
_symmetry_cell_setting           tetragonal
_symmetry_space_group_name_H-M   'P 4/n n c'
_symmetry_Int_Tables_number      126
_space_group_name_Hall           '-P 4a 2bc'
loop_
_symmetry_equiv_pos_site_id
_symmetry_equiv_pos_as_xyz
1 x,y,z
2 1/2-y,x,z
3 1/2-x,1/2-y,z
4 y,1/2-x,z
5 x,1/2-y,1/2-z
6 1/2-y,1/2-x,1/2-z
7 1/2-x,y,1/2-z
8 y,x,1/2-z
9 -x,-y,-z
10 1/2+y,-x,-z
11 1/2+x,1/2+y,-z
12 -y,1/2+x,-z
13 -x,1/2+y,1/2+z
14 1/2+y,1/2+x,1/2+z
15 1/2+x,-y,1/2+z
16 -y,-x,1/2+z
_cell_length_a                   18.037(3)
_cell_length_b                   18.037(3)
_cell_length_c                   30.914(5)
_cell_angle_alpha                90
_cell_angle_beta                 90
_cell_angle_gamma                90
_cell_volume                     10057.4
_exptl_crystal_colour            purple
_exptl_crystal_description       Block
_cell_formula_units_Z            8
loop_
_atom_site_label
_atom_site_type_symbol
_atom_site_fract_x
_atom_site_fract_y
_atom_site_fract_z
_atom_site_U_iso_or_equiv
_atom_site_thermal_displace_type
Co1 Co 0.66507(3) 0.16823(3) 0.20168(2) 0.0295 Uani
P1 P 0.65744(6) 0.15267(6) 0.30038(3) 0.0315 Uani
O1 O 0.62629(17) 0.13512(17) 0.25598(9) 0.0418 Uani
O2 O 0.73711(17) 0.12825(18) 0.30483(9) 0.0426 Uani
O3 O 0.64414(19) 0.23090(17) 0.31459(10) 0.0483 Uani
O4 O 0.61181(17) 0.09965(16) 0.33262(9) 0.0385 Uani
N1 N 0.61364(19) 0.1201(2) 0.15063(11) 0.0355 Uani
N2 N 0.5424(2) -0.0433(2) 0.02636(11) 0.0393 Uani
N3 N 0.4834(2) 0.0719(2) 0.01052(11) 0.0404 Uani
C1 C 0.6195(3) 0.0472(3) 0.14233(14) 0.0423 Uani
H1 H 0.6453 0.0168 0.1624 0.0510 Uiso
C2 C 0.5897(3) 0.0147(3) 0.10590(15) 0.0480 Uani
H2 H 0.5938 -0.0373 0.1013 0.0580 Uiso
C3 C 0.5535(2) 0.0596(2) 0.07591(13) 0.0333 Uani
C4 C 0.5471(2) 0.1343(2) 0.08430(13) 0.0387 Uani
H3 H 0.5220 0.1659 0.0646 0.0460 Uiso
C5 C 0.5772(3) 0.1622(3) 0.12125(14) 0.0437 Uani
H4 H 0.5725 0.2138 0.1267 0.0520 Uiso
C6 C 0.5240(2) 0.0269(2) 0.03517(14) 0.0350 Uani
C7 C 0.5738(2) 0.1242(2) 0.36924(13) 0.0360 Uani
C8 C 0.5001(3) 0.1444(2) 0.36502(14) 0.0397 Uani
C9 C 0.4628(3) 0.1660(3) 0.40193(16) 0.0487 Uani
H5 H 0.4119 0.1792 0.4000 0.0580 Uiso
C10 C 0.4980(3) 0.1690(3) 0.44186(16) 0.0493 Uani
H6 H 0.4717 0.1847 0.4669 0.0590 Uiso
C11 C 0.5714(3) 0.1490(3) 0.44464(15) 0.0480 Uani
H7 H 0.5952 0.1510 0.4720 0.0570 Uiso
C12 C 0.6121(3) 0.1258(3) 0.40895(14) 0.0433 Uani
C13 C 0.4624(3) 0.1416(3) 0.32166(16) 0.0500 Uani
H8 H 0.5019 0.1464 0.2991 0.0600 Uiso
C14 C 0.4066(6) 0.2022(4) 0.3134(3) 0.1607 Uani
H9 H 0.4323 0.2500 0.3115 0.1930 Uiso
H10 H 0.3706 0.2036 0.3371 0.1930 Uiso
H11 H 0.3808 0.1924 0.2861 0.1930 Uiso
C15 C 0.4256(5) 0.0674(4) 0.3151(2) 0.1117 Uani
H12 H 0.3882 0.0596 0.3376 0.1340 Uiso
H13 H 0.4629 0.0280 0.3167 0.1340 Uiso
H14 H 0.4017 0.0663 0.2866 0.1340 Uiso
C16 C 0.6926(3) 0.1033(3) 0.41163(16) 0.0650 Uani
C17 C 0.7295(6) 0.1116(7) 0.4556(2) 0.0653 Uani
H15 H 0.7392 0.1642 0.4612 0.0780 Uiso
H16 H 0.7763 0.0841 0.4558 0.0780 Uiso
H17 H 0.6966 0.0919 0.4781 0.0780 Uiso
C18 C 0.6894(5) 0.0127(5) 0.4017(3) 0.0627 Uani
H18 H 0.6593 -0.0118 0.4239 0.0750 Uiso
H19 H 0.7397 -0.0076 0.4021 0.0750 Uiso
H20 H 0.6671 0.0043 0.3732 0.0750 Uiso
H21 H 0.720(6) 0.119(6) 0.385(3) 0.0750 Uiso
N1H N 0.38636(19) -0.1201(2) -0.15063(11) 0.0355 Uani
N2H N 0.4576(2) 0.0433(2) -0.02636(11) 0.0393 Uani
N3H N 0.5166(2) -0.0719(2) -0.01052(11) 0.0404 Uani
C1H C 0.3805(3) -0.0472(3) -0.14233(14) 0.0423 Uani
H1H H 0.3547 -0.0168 -0.1624 0.0510 Uiso
C2H C 0.4103(3) -0.0147(3) -0.10590(15) 0.0480 Uani
H2H H 0.4062 0.0373 -0.1013 0.0580 Uiso
C3H C 0.4465(2) -0.0596(2) -0.07591(13) 0.0333 Uani
C4H C 0.4529(2) -0.1343(2) -0.08430(13) 0.0387 Uani
H3H H 0.4780 -0.1659 -0.0646 0.0460 Uiso
C5H C 0.4228(3) -0.1622(3) -0.12125(14) 0.0437 Uani
H4H H 0.4275 -0.2138 -0.1267 0.0520 Uiso
C6H C 0.4760(2) -0.0269(2) -0.03517(14) 0.0350 Uani
Co1H Co 0.33493(3) -0.16823(3) -0.20168(2) 0.0295 Uani
P1H P 0.34256(6) -0.15267(6) -0.30038(3) 0.0315 Uani
O1H O 0.37371(17) -0.13512(17) -0.25598(9) 0.0418 Uani
O2H O 0.26289(17) -0.12825(18) -0.30483(9) 0.0426 Uani
O3H O 0.35586(19) -0.23090(17) -0.31459(10) 0.0483 Uani
O4H O 0.38819(17) -0.09965(16) -0.33262(9) 0.0385 Uani
C7H C 0.4262(2) -0.1242(2) -0.36924(13) 0.0360 Uani
C8H C 0.4999(3) -0.1444(2) -0.36502(14) 0.0397 Uani
C9H C 0.5372(3) -0.1660(3) -0.40193(16) 0.0487 Uani
H5H H 0.5881 -0.1792 -0.4000 0.0580 Uiso
C10H C 0.5020(3) -0.1690(3) -0.44186(16) 0.0493 Uani
H6H H 0.5283 -0.1847 -0.4669 0.0590 Uiso
C11H C 0.4286(3) -0.1490(3) -0.44464(15) 0.0480 Uani
H7H H 0.4048 -0.1510 -0.4720 0.0570 Uiso
C12H C 0.3879(3) -0.1258(3) -0.40895(14) 0.0433 Uani
C13H C 0.5376(3) -0.1416(3) -0.32166(16) 0.0500 Uani
H8H H 0.4981 -0.1464 -0.2991 0.0600 Uiso
C14H C 0.5934(6) -0.2022(4) -0.3134(3) 0.1607 Uani
H9H H 0.5677 -0.2500 -0.3115 0.1930 Uiso
H10H H 0.6294 -0.2036 -0.3371 0.1930 Uiso
H11H H 0.6192 -0.1924 -0.2861 0.1930 Uiso
C15H C 0.5744(5) -0.0674(4) -0.3151(2) 0.1117 Uani
H12H H 0.6118 -0.0596 -0.3376 0.1340 Uiso
H13H H 0.5371 -0.0280 -0.3167 0.1340 Uiso
H14H H 0.5983 -0.0663 -0.2866 0.1340 Uiso
C16H C 0.3074(3) -0.1033(3) -0.41163(16) 0.0650 Uani
C17H C 0.2705(6) -0.1116(7) -0.4556(2) 0.0653 Uani
H15H H 0.2608 -0.1642 -0.4612 0.0780 Uiso
H16H H 0.2237 -0.0841 -0.4558 0.0780 Uiso
H17H H 0.3034 -0.0919 -0.4781 0.0780 Uiso
C18H C 0.3106(5) -0.0127(5) -0.4017(3) 0.0627 Uani
H18H H 0.3407 0.0118 -0.4239 0.0750 Uiso
H19H H 0.2603 0.0076 -0.4021 0.0750 Uiso
H20H H 0.3329 -0.0043 -0.3732 0.0750 Uiso
H21H H 0.280(6) -0.119(6) -0.385(3) 0.0750 Uiso
Co1L Co 0.33493(3) -0.33177(3) -0.29832(2) 0.0295 Uani
Co1N Co 0.16507(3) -0.16823(3) -0.29832(2) 0.0295 Uani
Co1D Co 0.66507(3) 0.33177(3) 0.29832(2) 0.0295 Uani
Co1F Co 0.83493(3) 0.16823(3) 0.29832(2) 0.0295 Uani
O2N O 0.23711(17) -0.12825(18) -0.19517(9) 0.0426 Uani
O2F O 0.76289(17) 0.12825(18) 0.19517(9) 0.0426 Uani
O3L O 0.35586(19) -0.26910(17) -0.18541(10) 0.0483 Uani
O3D O 0.64414(19) 0.26910(17) 0.18541(10) 0.0483 Uani
H22? H 0.7094 0.0815 0.3835 0.0780 Uiso
C19? C 0.7355(6) 0.1825(5) 0.4210(4) 0.0690 Uani
H23? H 0.7256 0.2170 0.3971 0.0830 Uiso
H24? H 0.7890 0.1737 0.4232 0.0830 Uiso
H25? H 0.7173 0.2039 0.4481 0.0830 Uiso
C20? C 0.7109(7) 0.0508(6) 0.4491(3) 0.0690 Uani
H26? H 0.6983 0.0748 0.4766 0.0830 Uiso
H27? H 0.7640 0.0392 0.4487 0.0830 Uiso
H28? H 0.6823 0.0050 0.4460 0.0830 Uiso
loop_
_atom_site_aniso_label
_atom_site_aniso_U_11
_atom_site_aniso_U_22
_atom_site_aniso_U_33
_atom_site_aniso_U_23
_atom_site_aniso_U_13
_atom_site_aniso_U_12
Co1 0.0348(4) 0.0339(4) 0.0199(3) -0.0004(2) -0.0035(2) -0.0002(2)
P1 0.0372(6) 0.0372(6) 0.0202(6) -0.0008(4) 0.0040(4) -0.0067(5)
O1 0.0450(19) 0.053(2) 0.0274(15) 0.0016(14) -0.0025(14) -0.0144(16)
O2 0.0398 0.055 0.033 0.0138 0.0032 -0.0039
O3 0.07 0.0358 0.0392 -0.0028 0.0204 0.0018
O4 0.0483(18) 0.0388(17) 0.0285(15) 0.0071(13) 0.0066(14) -0.0096(14)
N1 0.037(2) 0.039(2) 0.0305(19) -0.0005(16) -0.0062(16) -0.0042(16)
N2 0.047(2) 0.043(2) 0.0279(19) -0.0009(17) -0.0110(17) -0.0110(17)
N3 0.051(2) 0.040(2) 0.0303(18) 0.0001(17) -0.0147(18) -0.0115(18)
C1 0.051(3) 0.045(3) 0.031(2) 0.006(2) -0.016(2) -0.006(2)
C2 0.064(3) 0.040(3) 0.040(3) -0.005(2) -0.016(2) -0.003(2)
C3 0.031(2) 0.044(3) 0.025(2) 0.0011(19) -0.0026(18) -0.0077(19)
C4 0.047(3) 0.038(3) 0.031(2) -0.001(2) -0.009(2) -0.001(2)
C5 0.055(3) 0.040(3) 0.036(2) -0.003(2) -0.013(2) -0.004(2)
C6 0.037(2) 0.038(3) 0.030(2) 0.004(2) -0.0072(19) -0.0113(19)
C7 0.038(2) 0.041(3) 0.029(2) 0.0052(19) 0.0115(19) -0.0083(19)
C8 0.044(3) 0.038(3) 0.037(2) 0.005(2) 0.007(2) -0.016(2)
C9 0.044(3) 0.042(3) 0.060(3) 0.001(2) 0.012(2) -0.001(2)
C10 0.059(3) 0.047(3) 0.042(3) -0.002(2) 0.023(2) 0.002(2)
C11 0.060(3) 0.051(3) 0.033(2) 0.006(2) 0.007(2) -0.008(3)
C12 0.046(3) 0.053(3) 0.031(2) 0.007(2) 0.006(2) 0.000(2)
C13 0.039(3) 0.057(3) 0.054(3) 0.010(3) 0.001(2) -0.013(2)
C14 0.287(14) 0.068(5) 0.127(7) 0.007(5) -0.126(8) 0.029(7)
C15 0.163(8) 0.096(5) 0.076(4) 0.025(4) -0.062(5) -0.054(5)
C16 0.054(3) 0.102(4) 0.039(2) 0.010(3) 0.006(2) 0.013(3)
C17 0.048(4) 0.106(6) 0.042(4) 0.014(4) 0.003(4) 0.000(5)
C18 0.043(5) 0.100(5) 0.045(4) 0.016(4) 0.003(4) 0.013(4)
N1H 0.037 0.039 0.0305 -0.0005 -0.0062 -0.0042
N2H 0.047 0.043 0.0279 -0.0009 -0.011 -0.011
N3H 0.051 0.04 0.0303 0.0001 -0.0147 -0.0115
C1H 0.051 0.045 0.031 0.006 -0.016 -0.006
C2H 0.064 0.04 0.04 -0.005 -0.016 -0.003
C3H 0.031 0.044 0.025 0.0011 -0.0026 -0.0077
C4H 0.047 0.038 0.031 -0.001 -0.009 -0.001
C5H 0.055 0.04 0.036 -0.003 -0.013 -0.004
C6H 0.037 0.038 0.03 0.004 -0.0072 -0.0113
Co1H 0.0348 0.0339 0.0199 -0.0004 -0.0035 -0.0002
P1H 0.0372 0.0372 0.0202 -0.0008 0.004 -0.0067
O1H 0.045 0.053 0.0274 0.0016 -0.0025 -0.0144
O2H 0.0398 0.055 0.033 0.0138 0.0032 -0.0039
O3H 0.07 0.0358 0.0392 -0.0028 0.0204 0.0018
O4H 0.0483 0.0388 0.0285 0.0071 0.0066 -0.0096
C7H 0.038 0.041 0.029 0.0052 0.0115 -0.0083
C8H 0.044 0.038 0.037 0.005 0.007 -0.016
C9H 0.044 0.042 0.06 0.001 0.012 -0.001
C10H 0.059 0.047 0.042 -0.002 0.023 0.002
C11H 0.06 0.051 0.033 0.006 0.007 -0.008
C12H 0.046 0.053 0.031 0.007 0.006 0
C13H 0.039 0.057 0.054 0.01 0.001 -0.013
C14H 0.287 0.068 0.127 0.007 -0.126 0.029
C15H 0.163 0.096 0.076 0.025 -0.062 -0.054
C16H 0.054 0.102 0.039 0.01 0.006 0.013
C17H 0.048 0.106 0.042 0.014 0.003 0
C18H 0.043 0.1 0.045 0.016 0.003 0.013
Co1L 0.0348 0.0339 0.0199 -0.0004 0.0035 0.0002
Co1N 0.0348 0.0339 0.0199 0.0004 -0.0035 0.0002
Co1D 0.0348 0.0339 0.0199 -0.0004 0.0035 0.0002
Co1F 0.0348 0.0339 0.0199 0.0004 -0.0035 0.0002
O2N 0.0398 0.055 0.033 -0.0138 0.0032 0.0039
O2F 0.0398 0.055 0.033 -0.0138 0.0032 0.0039
O3L 0.07 0.0358 0.0392 -0.0028 -0.0204 -0.0018
O3D 0.07 0.0358 0.0392 -0.0028 -0.0204 -0.0018
C19? 0.051(5) 0.106(6) 0.050(5) 0.008(5) 0.012(5) 0.004(5)
C20? 0.053(5) 0.110(6) 0.044(4) 0.016(5) 0.002(4) 0.016(5)
loop_
_geom_bond_atom_site_label_1
_geom_bond_atom_site_label_2
_geom_bond_site_symmetry_1
_geom_bond_site_symmetry_2
Co1 O1 1_555 1_555
P1 O1 1_555 1_555
O2 P1 1_555 1_555
O3 P1 1_555 1_555
O4 P1 1_555 1_555
N1 Co1 1_555 1_555
N2 C6 1_555 1_555
N3 C6 1_555 1_555
C1 N1 1_555 1_555
H1 C1 1_555 1_555
C2 C1 1_555 1_555
H2 C2 1_555 1_555
C3 C2 1_555 1_555
C4 C3 1_555 1_555
H3 C4 1_555 1_555
C5 N1 1_555 1_555
H4 C5 1_555 1_555
C6 C3 1_555 1_555
C7 O4 1_555 1_555
C8 C7 1_555 1_555
C9 C8 1_555 1_555
H5 C9 1_555 1_555
C10 C9 1_555 1_555
H6 C10 1_555 1_555
C11 C10 1_555 1_555
H7 C11 1_555 1_555
C12 C7 1_555 1_555
C13 C8 1_555 1_555
H8 C13 1_555 1_555
C14 C13 1_555 1_555
H9 C14 1_555 1_555
H10 C14 1_555 1_555
H11 C14 1_555 1_555
C15 C13 1_555 1_555
H12 C15 1_555 1_555
H13 C15 1_555 1_555
H14 C15 1_555 1_555
C16 C12 1_555 1_555
C17 C16 1_555 1_555
H15 C17 1_555 1_555
H16 C17 1_555 1_555
H17 C17 1_555 1_555
C18 C16 1_555 1_555
H18 C18 1_555 1_555
H19 C18 1_555 1_555
H20 C18 1_555 1_555
H21 C16 1_555 1_555
N1H C1H 1_555 1_555
N2H N3 1_555 1_555
N3H N2 1_555 1_555
C1H H1H 1_555 1_555
C2H C1H 1_555 1_555
H2H C2H 1_555 1_555
C3H C2H 1_555 1_555
C4H C3H 1_555 1_555
H3H C4H 1_555 1_555
C5H N1H 1_555 1_555
H4H C5H 1_555 1_555
C6H N2H 1_555 1_555
Co1H N1H 1_555 1_555
P1H O1H 1_555 1_555
O1H Co1H 1_555 1_555
O2H P1H 1_555 1_555
O3H P1H 1_555 1_555
O4H P1H 1_555 1_555
C7H O4H 1_555 1_555
C8H C7H 1_555 1_555
C9H C8H 1_555 1_555
H5H C9H 1_555 1_555
C10H C9H 1_555 1_555
H6H C10H 1_555 1_555
C11H C10H 1_555 1_555
H7H C11H 1_555 1_555
C12H C7H 1_555 1_555
C13H C8H 1_555 1_555
H8H C13H 1_555 1_555
C14H C13H 1_555 1_555
H9H C14H 1_555 1_555
H10H C14H 1_555 1_555
H11H C14H 1_555 1_555
C15H C13H 1_555 1_555
H12H C15H 1_555 1_555
H13H C15H 1_555 1_555
H14H C15H 1_555 1_555
C16H C12H 1_555 1_555
C17H C16H 1_555 1_555
H15H C17H 1_555 1_555
H16H C17H 1_555 1_555
H17H C17H 1_555 1_555
C18H C16H 1_555 1_555
H18H C18H 1_555 1_555
H19H C18H 1_555 1_555
H20H C18H 1_555 1_555
H21H C16H 1_555 1_555
Co1L O3H 1_555 1_555
Co1N O2H 1_555 1_555
Co1D O3 1_555 1_555
Co1F O2 1_555 1_555
O2N Co1H 1_555 1_555
O2F Co1 1_555 1_555
O3L Co1H 1_555 1_555
O3D Co1 1_555 1_555
C4 C5 1_555 1_555
C11 C12 1_555 1_555
N3H C6H 1_555 1_555
C3H C6H 1_555 1_555
C4H C5H 1_555 1_555
C11H C12H 1_555 1_555

#END
