
#######################################################################
#
#                 Cambridge Crystallographic Data Centre
#                                CCDC 
#
#######################################################################
#
# If this CIF has been generated from an entry in the Cambridge 
# Structural Database, then it will include bibliographic, chemical, 
# crystal, experimental, refinement or atomic coordinate data resulting 
# from the CCDC's data processing and validation procedures.
#
#######################################################################

data_NEDVAV
_chemical_name_common            DiP-DMOF
_chemical_formula_moiety         '(C34 H44 N2 O12 Zn2)n'
_chemical_name_systematic        
'catena-(bis(\m~4~-2,5-diiso-propoxy-1,4-benzenedicarboxylato)-(\m~2~-1,4-diazabicyclo(2.2.2)octane)-di-zinc(ii) unknown solvate)'
_symmetry_cell_setting           monoclinic
_symmetry_space_group_name_H-M   'C 2/m'
_symmetry_Int_Tables_number      12
_space_group_name_Hall           '-C 2y'
loop_
_symmetry_equiv_pos_site_id
_symmetry_equiv_pos_as_xyz
1 x,y,z
2 -x,y,-z
3 1/2+x,1/2+y,z
4 1/2-x,1/2+y,-z
5 -x,-y,-z
6 x,-y,z
7 1/2-x,1/2-y,-z
8 1/2+x,1/2-y,z
_cell_length_a                   15.528(5)
_cell_length_b                   15.316(6)
_cell_length_c                   9.587(4)
_cell_angle_alpha                90
_cell_angle_beta                 96.04(3)
_cell_angle_gamma                90
_cell_volume                     2267.39
_exptl_crystal_colour            colorless
_exptl_crystal_description       block
_cell_formula_units_Z            2
loop_
_atom_site_label
_atom_site_type_symbol
_atom_site_fract_x
_atom_site_fract_y
_atom_site_fract_z
C1 C 0.9478(15) 1.5712(13) 0.072(2)
C2 C 0.9138(15) 1.5000 0.063(3)
C3 C 0.9171(15) 1.5000 -0.099(3)
C4 C 0.9502(13) 1.4247(12) -0.0958(19)
Zn1 Zn 0.99229(8) 1.5000 0.34574(13)
O1 O 0.9016(4) 1.4089(5) 0.3673(7)
C5 C 0.8826(5) 1.3832(6) 0.4865(10)
C6 C 0.8129(6) 1.3125(6) 0.4888(9)
N1 N 0.9993(4) 1.5000 0.1454(8)
O2 O 0.9157(5) 1.4091(5) 0.6012(7)
C7 C 0.7649(11) 1.3135(12) 0.6032(17)
H1 H 0.7762 1.3563 0.6745
C8 C 0.7968(13) 1.2460(11) 0.3877(18)
O3 O 0.8491(13) 1.2393(12) 0.275(2)
C1A C 1.0522(15) 1.5712(13) -0.072(2)
C1D C 1.0522(15) 1.4288(13) -0.072(2)
C1E C 0.9478(15) 1.4288(13) 0.072(2)
C2A C 1.0862(15) 1.5000 -0.063(3)
C3A C 1.0829(15) 1.5000 0.099(3)
C4A C 1.0498(13) 1.4247(12) 0.0958(19)
C4D C 1.0498(13) 1.5753(12) 0.0958(19)
C4E C 0.9502(13) 1.5753(12) -0.0958(19)
Zn1A Zn 1.00771(8) 1.5000 -0.34574(13)
Zn1A_2 Zn 1.00771(8) 1.5000 0.65426(13)
Zn1B Zn 0.49229(8) 1.0000 0.34574(13)
Zn1B_2 Zn 0.49229(8) 2.0000 0.34574(13)
Zn1C Zn 0.50771(8) 1.0000 0.65426(13)
Zn1C_2 Zn 0.50771(8) 2.0000 0.65426(13)
O1F O 0.5984(4) 1.0911(5) 0.6327(7)
O1E O 0.9016(4) 1.5911(5) 0.3673(7)
O1C O 0.5984(4) 1.9089(5) 0.6327(7)
O1D O 1.0984(4) 1.5911(5) -0.3673(7)
O1A O 1.0984(4) 1.4089(5) -0.3673(7)
C5F C 0.6174(5) 1.1168(6) 0.5135(10)
C5E C 0.8826(5) 1.6168(6) 0.4865(10)
C5C C 0.6174(5) 1.8832(6) 0.5135(10)
C6F C 0.6871(6) 1.1875(6) 0.5112(9)
C6E C 0.8129(6) 1.6875(6) 0.4888(9)
C6C C 0.6871(6) 1.8125(6) 0.5112(9)
N1A N 1.0007(4) 1.5000 -0.1454(8)
O2F O 0.5843(5) 1.0909(5) 0.3988(7)
O2E O 0.9157(5) 1.5909(5) 0.6012(7)
O2C O 0.5843(5) 1.9091(5) 0.3988(7)
O2_2 O 0.9157(5) 1.4091(5) -0.3988(7)
O2A O 1.0843(5) 1.4091(5) 0.3988(7)
O2D O 1.0843(5) 1.5909(5) 0.3988(7)
O2E_2 O 0.9157(5) 1.5909(5) -0.3988(7)
C7F C 0.7351(11) 1.1865(12) 0.3968(17)
C7E C 0.7649(11) 1.6865(12) 0.6032(17)
C7C C 0.7351(11) 1.8135(12) 0.3968(17)
H1F H 0.7238 1.1437 0.3255
H1E H 0.7762 1.6437 0.6745
H1C H 0.7238 1.8563 0.3255
C8F C 0.7032(13) 1.2540(11) 0.6123(18)
C8E C 0.7968(13) 1.7540(11) 0.3877(18)
C8C C 0.7032(13) 1.7460(11) 0.6123(18)
O3F O 0.6509(13) 1.2607(12) 0.725(2)
O3E O 0.8491(13) 1.7607(12) 0.275(2)
O3C O 0.6509(13) 1.7393(12) 0.725(2)
C9? C 0.7677(11) 0.8190(12) 0.596(2)
C10? C 0.6732(13) 0.7455(13) 0.418(2)
H2? H 0.6198 0.7437 0.3592
O4? O 0.7934(9) 0.8874(10) 0.6912(16)
loop_
_geom_bond_atom_site_label_1
_geom_bond_atom_site_label_2
_geom_bond_site_symmetry_1
_geom_bond_site_symmetry_2
C1 C2 1_555 1_555
C2 C3 1_555 1_555
C3 C4 1_555 1_555
C4 C1D 1_555 1_555
Zn1 O1 1_555 1_555
O1 C5 1_555 1_555
C5 C6 1_555 1_555
C6 C7 1_555 1_555
N1 C1 1_555 1_555
O2 C5 1_555 1_555
C7 H1 1_555 1_555
C8 C6 1_555 1_555
O3 C8 1_555 1_555
C1A C2A 1_555 1_555
C1D C2A 1_555 1_555
C1E C2 1_555 1_555
C2A C3A 1_555 1_555
C3A N1 1_555 1_555
C4A N1 1_555 1_555
C4D C1 1_555 1_555
C4E C1 1_555 1_555
Zn1A O1D 1_555 1_555
Zn1A_2 O2 1_555 1_555
Zn1B O2F 1_555 1_555
Zn1B_2 O2C 1_555 1_555
Zn1C O1F 1_555 1_555
Zn1C_2 O1C 1_555 1_555
O1F C5F 1_555 1_555
O1E Zn1 1_555 1_555
O1C C5C 1_555 1_555
O1A Zn1A 1_555 1_555
C5F C6F 1_555 1_555
C5E O1E 1_555 1_555
C5C C6C 1_555 1_555
C6F C7F 1_555 1_555
C6E C5E 1_555 1_555
C6C C7C 1_555 1_555
N1A C3 1_555 1_555
O2F C5F 1_555 1_555
O2E Zn1A_2 1_555 1_555
O2C C5C 1_555 1_555
O2_2 Zn1A 1_555 1_555
O2A Zn1 1_555 1_555
O2D Zn1 1_555 1_555
O2E_2 Zn1A 1_555 1_555
C7F C8 1_555 1_555
C7E C6E 1_555 1_555
C7C H1C 1_555 1_555
H1F C7F 1_555 1_555
H1E C7E 1_555 1_555
C8F C7 1_555 1_555
C8E C6E 1_555 1_555
C8C C6C 1_555 1_555
O3F C8F 1_555 1_555
O3E C8E 1_555 1_555
O3C C8C 1_555 1_555
C2 N1 1_555 1_555
C3 C4E 1_555 1_555
C4 C1E 1_555 1_555
C4 N1A 1_555 1_555
Zn1 N1 1_555 1_555
N1 C1E 1_555 1_555
N1 C4D 1_555 1_555
C1A C4D 1_555 1_555
C1A C4E 1_555 1_555
C1A N1A 1_555 1_555
C1D C4A 1_555 1_555
C1D N1A 1_555 1_555
C1E C4A 1_555 1_555
C2A N1A 1_555 1_555
C3A C4A 1_555 1_555
C3A C4D 1_555 1_555
C4E N1A 1_555 1_555
Zn1A N1A 1_555 1_555
C5E O2E 1_555 1_555
C6F C8F 1_555 1_555
C7E C8C 1_555 1_555
C7C C8E 1_555 1_555

#END
