
#######################################################################
#
#                 Cambridge Crystallographic Data Centre
#                                CCDC 
#
#######################################################################
#
# If this CIF has been generated from an entry in the Cambridge 
# Structural Database, then it will include bibliographic, chemical, 
# crystal, experimental, refinement or atomic coordinate data resulting 
# from the CCDC's data processing and validation procedures.
#
#######################################################################

data_NEDVEZ
_chemical_name_common            DB-DMOF
_chemical_formula_moiety         '(C38 H52 N2 O12 Zn2)n'
_chemical_name_systematic        
'catena-(bis(\m~4~-2,5-dibutoxy-1,4-benzenedicarboxylato)-(\m~2~-1,4-diazabicyclo(2.2.2)octane)-di-zinc(ii) unknown solvate)'
_symmetry_cell_setting           tetragonal
_symmetry_space_group_name_H-M   'P 4/m m m'
_symmetry_Int_Tables_number      123
_space_group_name_Hall           '-P 4 2'
loop_
_symmetry_equiv_pos_site_id
_symmetry_equiv_pos_as_xyz
1 x,y,z
2 -x,-y,z
3 -y,x,z
4 y,-x,z
5 -x,y,-z
6 x,-y,-z
7 y,x,-z
8 -y,-x,-z
9 -x,-y,-z
10 x,y,-z
11 y,-x,-z
12 -y,x,-z
13 x,-y,z
14 -x,y,z
15 -y,-x,z
16 y,x,z
_cell_length_a                   10.9068(5)
_cell_length_b                   10.9068(5)
_cell_length_c                   9.5754(7)
_cell_angle_alpha                90
_cell_angle_beta                 90
_cell_angle_gamma                90
_cell_volume                     1139.07
_exptl_crystal_colour            colorless
_exptl_crystal_description       block
_cell_formula_units_Z            1
loop_
_atom_site_label
_atom_site_type_symbol
_atom_site_fract_x
_atom_site_fract_y
_atom_site_fract_z
Zn1 Zn 1.0000 0.0000 0.15128(10)
N1 N 1.0000 0.0000 0.3663(8)
C1 C 1.0000 0.2336(6) 0.0000
O1 O 0.9757(6) 0.1816(4) 0.1144(5)
C2 C 1.0000 0.3727(7) 0.0000
C3 C 1.0000 0.1334(18) 0.4154(17)
C4 C 1.0866(12) 0.0866(12) 0.4158(17)
C5 C 0.9464(11) 0.4375(9) 0.1099(9)
O2 O 0.898(2) 0.384(2) 0.231(3)
Zn1D Zn 1.0000 0.0000 0.84872(10)
Zn1D_2 Zn 1.0000 0.0000 -0.15128(10)
Zn1_2 Zn 1.0000 1.0000 0.15128(10)
Zn1D_3 Zn 1.0000 1.0000 -0.15128(10)
Zn1_3 Zn 1.0000 -1.0000 0.15128(10)
Zn1D_4 Zn 1.0000 -1.0000 -0.15128(10)
N1D N 1.0000 0.0000 0.6337(8)
C1A C 1.0000 0.7664(6) 0.0000
C1A_2 C 1.0000 -0.2336(6) 0.0000
C1_2 C 1.0000 -0.7664(6) 0.0000
O1M O 1.0243(6) 0.1816(4) 0.1144(5)
O1D O 1.0243(6) 0.1816(4) -0.1144(5)
O1I O 0.9757(6) 0.1816(4) -0.1144(5)
O1L O 0.9757(6) 0.8184(4) 0.1144(5)
O1A O 1.0243(6) 0.8184(4) 0.1144(5)
O1H O 1.0243(6) 0.8184(4) -0.1144(5)
O1E O 0.9757(6) 0.8184(4) -0.1144(5)
O1A_2 O 1.0243(6) -0.1816(4) 0.1144(5)
O1L_2 O 0.9757(6) -0.1816(4) 0.1144(5)
O1E_2 O 0.9757(6) -0.1816(4) -0.1144(5)
O1H_2 O 1.0243(6) -0.1816(4) -0.1144(5)
O1M_2 O 1.0243(6) -0.8184(4) 0.1144(5)
O1_2 O 0.9757(6) -0.8184(4) 0.1144(5)
O1I_2 O 0.9757(6) -0.8184(4) -0.1144(5)
O1D_2 O 1.0243(6) -0.8184(4) -0.1144(5)
O1B O 0.8184(4) -0.0243(6) 0.1144(5)
O1C O 1.1816(4) 0.0243(6) 0.1144(5)
O1N O 0.8184(4) 0.0243(6) 0.1144(5)
O1O O 1.1816(4) -0.0243(6) 0.1144(5)
O1D_3 O 1.0243(6) 0.1816(4) 0.8856(5)
O1E_3 O 0.9757(6) -0.1816(4) 0.8856(5)
O1F O 1.1816(4) -0.0243(6) 0.8856(5)
O1G O 0.8184(4) 0.0243(6) 0.8856(5)
O1H_3 O 1.0243(6) -0.1816(4) 0.8856(5)
O1I_3 O 0.9757(6) 0.1816(4) 0.8856(5)
O1J O 1.1816(4) 0.0243(6) 0.8856(5)
O1K O 0.8184(4) -0.0243(6) 0.8856(5)
C2A C 1.0000 0.6273(7) 0.0000
C2A_2 C 1.0000 -0.3727(7) 0.0000
C2_2 C 1.0000 -0.6273(7) 0.0000
C3D C 1.0000 0.1334(18) 0.5846(17)
C3E C 1.0000 -0.1334(18) 0.5846(17)
C3A C 1.0000 -0.1334(18) 0.4154(17)
C3B C 0.8666(18) 0.0000 0.4154(17)
C3G C 0.8666(18) 0.0000 0.5846(17)
C3C C 1.1334(18) 0.0000 0.4154(17)
C3F C 1.1334(18) 0.0000 0.5846(17)
C4B C 0.9134(12) 0.0866(12) 0.4158(17)
C4C C 1.0866(12) -0.0866(12) 0.4158(17)
C4D C 0.9134(12) 0.0866(12) 0.5842(17)
C4F C 1.0866(12) 0.0866(12) 0.5842(17)
C4G C 0.9134(12) -0.0866(12) 0.5842(17)
C4E C 1.0866(12) -0.0866(12) 0.5842(17)
C4A C 0.9134(12) -0.0866(12) 0.4158(17)
C5L C 0.9464(11) 0.5625(9) 0.1099(9)
C5H C 1.0536(11) 0.5625(9) -0.1099(9)
C5D C 1.0536(11) 0.4375(9) -0.1099(9)
C5I C 0.9464(11) 0.4375(9) -0.1099(9)
C5E C 0.9464(11) 0.5625(9) -0.1099(9)
C5M C 1.0536(11) 0.4375(9) 0.1099(9)
C5A C 1.0536(11) 0.5625(9) 0.1099(9)
C5A_2 C 1.0536(11) -0.4375(9) 0.1099(9)
C5M_2 C 1.0536(11) -0.5625(9) 0.1099(9)
C5I_2 C 0.9464(11) -0.5625(9) -0.1099(9)
C5E_2 C 0.9464(11) -0.4375(9) -0.1099(9)
C5H_2 C 1.0536(11) -0.4375(9) -0.1099(9)
C5D_2 C 1.0536(11) -0.5625(9) -0.1099(9)
C5L_2 C 0.9464(11) -0.4375(9) 0.1099(9)
C5_2 C 0.9464(11) -0.5625(9) 0.1099(9)
O2D O 1.102(2) 0.384(2) -0.231(3)
O2I O 0.898(2) 0.384(2) -0.231(3)
O2M O 1.102(2) 0.384(2) 0.231(3)
O2H O 1.102(2) 0.616(2) -0.231(3)
O2E O 0.898(2) 0.616(2) -0.231(3)
O2A O 1.102(2) 0.616(2) 0.231(3)
O2L O 0.898(2) 0.616(2) 0.231(3)
O2A_2 O 1.102(2) -0.384(2) 0.231(3)
O2E_2 O 0.898(2) -0.384(2) -0.231(3)
O2H_2 O 1.102(2) -0.384(2) -0.231(3)
O2L_2 O 0.898(2) -0.384(2) 0.231(3)
O2I_2 O 0.898(2) -0.616(2) -0.231(3)
O2D_2 O 1.102(2) -0.616(2) -0.231(3)
O2_2 O 0.898(2) -0.616(2) 0.231(3)
O2M_2 O 1.102(2) -0.616(2) 0.231(3)
loop_
_geom_bond_atom_site_label_1
_geom_bond_atom_site_label_2
_geom_bond_site_symmetry_1
_geom_bond_site_symmetry_2
Zn1 N1 1_555 1_555
N1 C3 1_555 1_555
C1 O1 1_555 1_555
O1 Zn1 1_555 1_555
C2 C1 1_555 1_555
C3 C4 1_555 1_555
C4 N1 1_555 1_555
C5 C2 1_555 1_555
O2 C5 1_555 1_555
Zn1D N1D 1_555 1_555
Zn1D_2 O1D 1_555 1_555
Zn1_2 O1L 1_555 1_555
Zn1D_3 O1H 1_555 1_555
Zn1_3 O1M_2 1_555 1_555
Zn1D_4 O1I_2 1_555 1_555
N1D C3D 1_555 1_555
C1A O1L 1_555 1_555
C1A_2 O1A_2 1_555 1_555
C1_2 O1M_2 1_555 1_555
O1M Zn1 1_555 1_555
O1D C1 1_555 1_555
O1I C1 1_555 1_555
O1L O1A 1_555 1_555
O1A Zn1_2 1_555 1_555
O1H C1A 1_555 1_555
O1E Zn1D_3 1_555 1_555
O1A_2 Zn1 1_555 1_555
O1L_2 Zn1 1_555 1_555
O1E_2 Zn1D_2 1_555 1_555
O1H_2 Zn1D_2 1_555 1_555
O1M_2 O1_2 1_555 1_555
O1_2 Zn1_3 1_555 1_555
O1I_2 C1_2 1_555 1_555
O1D_2 Zn1D_4 1_555 1_555
O1B Zn1 1_555 1_555
O1C Zn1 1_555 1_555
O1N Zn1 1_555 1_555
O1O Zn1 1_555 1_555
O1D_3 Zn1D 1_555 1_555
O1E_3 Zn1D 1_555 1_555
O1F Zn1D 1_555 1_555
O1G Zn1D 1_555 1_555
O1H_3 Zn1D 1_555 1_555
O1I_3 Zn1D 1_555 1_555
O1J Zn1D 1_555 1_555
O1K Zn1D 1_555 1_555
C2A C1A 1_555 1_555
C2A_2 C1A_2 1_555 1_555
C2_2 C1_2 1_555 1_555
C3D C3 1_555 1_555
C3E N1D 1_555 1_555
C3A N1 1_555 1_555
C3B N1 1_555 1_555
C3G N1D 1_555 1_555
C3C N1 1_555 1_555
C3F N1D 1_555 1_555
C4B N1 1_555 1_555
C4C N1 1_555 1_555
C4D N1D 1_555 1_555
C4F C4 1_555 1_555
C4G N1D 1_555 1_555
C4E N1D 1_555 1_555
C4A N1 1_555 1_555
C5L C5 1_555 1_555
C5H C2A 1_555 1_555
C5D C2 1_555 1_555
C5I C2 1_555 1_555
C5E C2A 1_555 1_555
C5M C2 1_555 1_555
C5A C2A 1_555 1_555
C5A_2 C2A_2 1_555 1_555
C5M_2 C2_2 1_555 1_555
C5I_2 C2_2 1_555 1_555
C5E_2 C2A_2 1_555 1_555
C5H_2 C2A_2 1_555 1_555
C5D_2 C2_2 1_555 1_555
C5L_2 C2A_2 1_555 1_555
C5_2 C2_2 1_555 1_555
O2D C5D 1_555 1_555
O2I C5I 1_555 1_555
O2M C5M 1_555 1_555
O2H C5H 1_555 1_555
O2E C5E 1_555 1_555
O2A C5A 1_555 1_555
O2L C5L 1_555 1_555
O2A_2 C5A_2 1_555 1_555
O2E_2 C5E_2 1_555 1_555
O2H_2 C5H_2 1_555 1_555
O2L_2 C5L_2 1_555 1_555
O2I_2 C5I_2 1_555 1_555
O2D_2 C5D_2 1_555 1_555
O2_2 C5_2 1_555 1_555
O2M_2 C5M_2 1_555 1_555
C1 O1M 1_555 1_555
O1 O1M 1_555 1_555
C3 C4B 1_555 1_555
C4 C3C 1_555 1_555
C5 C5M 1_555 1_555
Zn1D_2 O1I 1_555 1_555
N1D C4F 1_555 1_555
C1A O1A 1_555 1_555
C1A O1E 1_555 1_555
C1A_2 O1L_2 1_555 1_555
C1A_2 O1E_2 1_555 1_555
C1A_2 O1H_2 1_555 1_555
C1_2 O1_2 1_555 1_555
C1_2 O1D_2 1_555 1_555
O1D O1I 1_555 1_555
O1H O1E 1_555 1_555
O1A_2 O1L_2 1_555 1_555
O1E_2 O1H_2 1_555 1_555
O1I_2 O1D_2 1_555 1_555
O1B O1N 1_555 1_555
O1C O1O 1_555 1_555
O1D_3 O1I_3 1_555 1_555
O1E_3 O1H_3 1_555 1_555
O1F O1J 1_555 1_555
O1G O1K 1_555 1_555
C2A C5L 1_555 1_555
C3D C4D 1_555 1_555
C3D C4F 1_555 1_555
C3E C3A 1_555 1_555
C3E C4G 1_555 1_555
C3E C4E 1_555 1_555
C3A C4C 1_555 1_555
C3A C4A 1_555 1_555
C3B C3G 1_555 1_555
C3B C4B 1_555 1_555
C3B C4A 1_555 1_555
C3G C4D 1_555 1_555
C3G C4G 1_555 1_555
C3C C3F 1_555 1_555
C3C C4C 1_555 1_555
C3F C4F 1_555 1_555
C3F C4E 1_555 1_555
C4B C4D 1_555 1_555
C4C C4E 1_555 1_555
C4G C4A 1_555 1_555
C5L C5A 1_555 1_555
C5H C5D 1_555 1_555
C5H C5E 1_555 1_555
C5D C5I 1_555 1_555
C5I C5E 1_555 1_555
C5M C5A 1_555 1_555
C5A_2 C5M_2 1_555 1_555
C5A_2 C5L_2 1_555 1_555
C5M_2 C5_2 1_555 1_555
C5I_2 C5E_2 1_555 1_555
C5I_2 C5D_2 1_555 1_555
C5E_2 C5H_2 1_555 1_555
C5H_2 C5D_2 1_555 1_555
C5L_2 C5_2 1_555 1_555

#END
