
#######################################################################
#
#                 Cambridge Crystallographic Data Centre
#                                CCDC 
#
#######################################################################
#
# If this CIF has been generated from an entry in the Cambridge 
# Structural Database, then it will include bibliographic, chemical, 
# crystal, experimental, refinement or atomic coordinate data resulting 
# from the CCDC's data processing and validation procedures.
#
#######################################################################

data_WIKGII
_chemical_formula_moiety         
'(C106 H48 F36 N2 O28 Zn8)n,6n(C3 H7 N1 O1),2n(H2 O1)'
_chemical_name_systematic        
"catena-[hexakis(\m~4~-2,2'-bis-trifluoromethyl-biphenyl-4,4'-dicarboxylato)-bis(\m~4~-oxo)-(\m~2~-4,4'-bipyridine)-diaqua-octa-zinc(ii) N,N-dimethylformamide solvate dihydrate]"
_symmetry_cell_setting           monoclinic
_symmetry_space_group_name_H-M   'C 2/c'
_symmetry_Int_Tables_number      15
_space_group_name_Hall           '-C 2yc'
loop_
_symmetry_equiv_pos_site_id
_symmetry_equiv_pos_as_xyz
1 x,y,z
2 -x,y,1/2-z
3 1/2+x,1/2+y,z
4 1/2-x,1/2+y,1/2-z
5 -x,-y,-z
6 x,-y,1/2+z
7 1/2-x,1/2-y,-z
8 1/2+x,1/2-y,1/2+z
_cell_length_a                   22.530(5)
_cell_length_b                   25.597(5)
_cell_length_c                   34.009(5)
_cell_angle_alpha                90
_cell_angle_beta                 107.439(5)
_cell_angle_gamma                90
_cell_volume                     18711.5
_exptl_crystal_colour            colorless
_exptl_crystal_description       Block
_cell_formula_units_Z            4
loop_
_atom_site_label
_atom_site_type_symbol
_atom_site_fract_x
_atom_site_fract_y
_atom_site_fract_z
Zn1 Zn 0.40536(3) 0.02871(3) 0.19975(2)
Zn2 Zn 0.31870(4) -0.03676(3) 0.12655(2)
Zn3 Zn 0.25955(4) 0.02623(3) 0.18220(2)
Zn4 Zn 0.30672(4) 0.08636(3) 0.11722(2)
F1 F 0.6595(3) -0.1024(2) 0.26994(18)
F2 F 0.7028(3) -0.1343(4) 0.2276(3)
F3 F 0.6729(4) -0.1851(3) 0.2666(2)
F4 F 0.5734(8) -0.3370(5) 0.2473(6)
F5 F 0.5038(5) -0.2943(6) 0.1927(6)
F6 F 0.5691(5) -0.2530(4) 0.2549(4)
F7 F 0.0984(7) -0.2596(9) 0.0789(5)
F8 F 0.1636(9) -0.3054(5) 0.1393(7)
F9 F 0.2003 -0.2564 0.0978
F10 F 0.1610(4) -0.3410(4) 0.2517(3)
F11 F 0.1494(7) -0.2625(6) 0.2591(4)
F12 F 0.1969 -0.3071 0.2061
F13 F 0.5263(4) 0.0051(6) 0.3971(2)
F14 F 0.4934(6) -0.0307(7) 0.4381(4)
F15 F 0.4959(7) 0.0622(5) 0.4220(7)
F16 F 0.3721(12) -0.1427(7) 0.4617(5)
F17 F 0.3064(12) -0.1104(7) 0.4049(5)
F18 F 0.4132(13) -0.1043(7) 0.4203(6)
O1 O 0.4577(2) -0.03208(18) 0.19759(14)
O2 O 0.3911(3) -0.08115(19) 0.15002(18)
O3 O 0.7094(3) -0.4127(2) 0.18250(17)
O4 O 0.7664(3) -0.36551(18) 0.15236(16)
O5 O 0.2523(2) -0.08300(19) 0.13172(16)
O6 O 0.2066(2) -0.0363(2) 0.17004(15)
O7 O -0.0434(2) -0.41173(17) 0.19690(15)
O8 O -0.1087(2) -0.37650(19) 0.14020(15)
O9 O 0.2955(3) 0.0161(2) 0.24179(16)
O10 O 0.3978(2) 0.02657(19) 0.25557(14)
O11 O 0.3171(3) 0.0367(2) 0.56988(15)
O12 O 0.3384(3) -0.0477(2) 0.57287(15)
O13 O 0.32586(19) 0.02584(15) 0.15778(12)
N1 N 0.2822(3) 0.1468(2) 0.07290(18)
C1 C 0.4430(4) -0.0709(3) 0.1752(2)
C2 C 0.4931(4) -0.1111(3) 0.1790(3)
C3 C 0.5491(4) -0.1087(3) 0.2088(2)
H1 H 0.5576 -0.0807 0.2271
C4 C 0.5938(3) -0.1475(3) 0.2123(2)
C5 C 0.5828(5) -0.1897(4) 0.1860(3)
C6 C 0.5249(6) -0.1906(5) 0.1544(5)
H2 H 0.5165 -0.2180 0.1356
C7 C 0.4809(6) -0.1521(5) 0.1506(4)
H3 H 0.4435 -0.1534 0.1294
C8 C 0.6548(5) -0.1431(4) 0.2435(3)
C9 C 0.6247(5) -0.2339(4) 0.1865(4)
C10 C 0.6176(5) -0.2802(4) 0.2057(4)
C11 C 0.6535(5) -0.3233(4) 0.1994(4)
H4 H 0.6493 -0.3548 0.2119
C12 C 0.6927(4) -0.3215(3) 0.1770(3)
C13 C 0.7019(5) -0.2750(3) 0.1599(3)
H5 H 0.7306 -0.2721 0.1453
C14 C 0.6665(5) -0.2320(4) 0.1650(4)
H6 H 0.6720 -0.2005 0.1530
C15 C 0.7283(4) -0.3690(3) 0.1697(2)
C16 C 0.5625 -0.2903 0.2212
C17 C 0.2170(4) -0.0775(3) 0.1539(3)
C18 C 0.1797(4) -0.1235(3) 0.1592(3)
C19 C 0.1844(5) -0.1698(4) 0.1403(4)
H7 H 0.2098 -0.1716 0.1233
C20 C 0.1532(6) -0.2133(4) 0.1456(4)
C21 C 0.1130(5) -0.2117(5) 0.1684(4)
C22 C 0.1093(6) -0.1657(5) 0.1896(4)
C23 C 0.1431(5) -0.1229(4) 0.1833(4)
H8 H 0.1400 -0.0919 0.1969
C24 C 0.1515 -0.2588 0.1140
C25 C 0.0725(5) -0.2573(4) 0.1705(4)
C26 C 0.0849(4) -0.2960(4) 0.1993(4)
C27 C 0.0444(4) -0.3350(4) 0.1991(3)
H9 H 0.0556 -0.3614 0.2187
C28 C -0.0134(4) -0.3361(3) 0.1699(2)
C29 C -0.0276(5) -0.2987(4) 0.1401(4)
H10 H -0.0654 -0.3002 0.1193
C30 C 0.0143(5) -0.2579(4) 0.1403(4)
H11 H 0.0035 -0.2315 0.1206
C31 C -0.0598(3) -0.3780(2) 0.1689(2)
C32 C 0.1468 -0.2987 0.2268
C33 C 0.3493(4) 0.0190(3) 0.2655(2)
C34 C 0.3564(4) 0.0139(4) 0.3105(3)
C35 C 0.4144(4) 0.0171(4) 0.3401(2)
H12 H 0.4502 0.0221 0.3323
C36 C 0.4180(4) 0.0128(4) 0.3808(3)
C37 C 0.3661(5) 0.0065(6) 0.3941(3)
C38 C 0.3087(7) -0.0015(5) 0.3642(4)
H13 H 0.2740 -0.0102 0.3722
C39 C 0.3033(5) 0.0034(6) 0.3218(3)
H14 H 0.2649 -0.0003 0.3019
C40 C 0.4782(5) 0.0113(6) 0.4111(3)
C41 C 0.3633(5) 0.0041(5) 0.4376(3)
C42 C 0.3647(6) -0.0442(5) 0.4567(3)
C43 C 0.3579(5) -0.0456(5) 0.4960(3)
H15 H 0.3621 -0.0773 0.5098
C44 C 0.3451(4) -0.0015(4) 0.5150(2)
C45 C 0.3441(5) 0.0454(4) 0.4954(3)
H16 H 0.3360 0.0760 0.5076
C46 C 0.3554(6) 0.0472(5) 0.4564(3)
C47 C 0.3332(4) -0.0051(3) 0.5553(2)
C48 C 0.3635(12) -0.0963(8) 0.4374(8)
C49 C 0.3254(8) 0.1706(7) 0.0608(6)
H17 H 0.3666 0.1605 0.0725
C50 C 0.3123(7) 0.2103(7) 0.0311(6)
H18 H 0.3445 0.2240 0.0224
C51 C 0.2566(3) 0.2286(3) 0.0155(2)
C52 C 0.2148(6) 0.2042(7) 0.0287(6)
H19 H 0.1733 0.2116 0.0151
C53 C 0.2267(6) 0.1688(6) 0.0607(5)
H20 H 0.1965 0.1606 0.0733
O14 O 0.2163(3) 0.0469(2) 0.09128(17)
H21 H 0.2232 0.0141 0.0959
H22 H 0.1937 0.0704 0.0953
N1F N 0.2178(3) 0.3532(2) -0.07290(18)
C49F C 0.1746(8) 0.3294(7) -0.0608(6)
H17F H 0.1334 0.3395 -0.0725
C50F C 0.1877(7) 0.2897(7) -0.0311(6)
H18F H 0.1555 0.2760 -0.0224
C51F C 0.2434(3) 0.2714(3) -0.0155(2)
C52F C 0.2852(6) 0.2958(7) -0.0287(6)
H19F H 0.3267 0.2884 -0.0151
C53F C 0.2733(6) 0.3312(6) -0.0607(5)
H20F H 0.3035 0.3394 -0.0733
Zn1F Zn 0.09464(3) 0.47129(3) -0.19975(2)
Zn2F Zn 0.18130(4) 0.53676(3) -0.12655(2)
Zn3F Zn 0.24045(4) 0.47377(3) -0.18220(2)
Zn4F Zn 0.19328(4) 0.41364(3) -0.11722(2)
F1F F -0.1595(3) 0.6024(2) -0.26994(18)
F2F F -0.2028(3) 0.6343(4) -0.2276(3)
F3F F -0.1729(4) 0.6851(3) -0.2666(2)
F4F F -0.0734(8) 0.8370(5) -0.2473(6)
F5F F -0.0038(5) 0.7943(6) -0.1927(6)
F6F F -0.0691(5) 0.7530(4) -0.2549(4)
F7F F 0.4016(7) 0.7596(9) -0.0789(5)
F8F F 0.3364(9) 0.8054(5) -0.1393(7)
F9F F 0.2997 0.7564 -0.0978
F10F F 0.3390(4) 0.8410(4) -0.2517(3)
F11F F 0.3506(7) 0.7625(6) -0.2591(4)
F12F F 0.3031 0.8071 -0.2061
F13F F -0.0263(4) 0.4949(6) -0.3971(2)
F14F F 0.0066(6) 0.5307(7) -0.4381(4)
F15F F 0.0041(7) 0.4378(5) -0.4220(7)
F16F F 0.1279(12) 0.6427(7) -0.4617(5)
F17F F 0.1936(12) 0.6104(7) -0.4049(5)
F18F F 0.0868(13) 0.6043(7) -0.4203(6)
O1F O 0.0423(2) 0.53208(18) -0.19759(14)
O2F O 0.1089(3) 0.58115(19) -0.15002(18)
O3F O -0.2094(3) 0.9127(2) -0.18250(17)
O4F O -0.2664(3) 0.86551(18) -0.15236(16)
O5F O 0.2477(2) 0.58300(19) -0.13172(16)
O6F O 0.2934(2) 0.5363(2) -0.17004(15)
O7F O 0.5434(2) 0.91173(17) -0.19690(15)
O8F O 0.6087(2) 0.87650(19) -0.14020(15)
O9F O 0.2045(3) 0.4839(2) -0.24179(16)
O10F O 0.1022(2) 0.47343(19) -0.25557(14)
O11F O 0.1829(3) 0.4633(2) -0.56988(15)
O12F O 0.1616(3) 0.5477(2) -0.57287(15)
O13F O 0.17414(19) 0.47416(15) -0.15778(12)
C1F C 0.0570(4) 0.5709(3) -0.1752(2)
C2F C 0.0069(4) 0.6111(3) -0.1790(3)
C3F C -0.0491(4) 0.6087(3) -0.2088(2)
H1F H -0.0576 0.5807 -0.2271
C4F C -0.0938(3) 0.6475(3) -0.2123(2)
C5F C -0.0828(5) 0.6897(4) -0.1860(3)
C6F C -0.0249(6) 0.6906(5) -0.1544(5)
H2F H -0.0165 0.7180 -0.1356
C7F C 0.0191(6) 0.6521(5) -0.1506(4)
H3F H 0.0565 0.6534 -0.1294
C8F C -0.1548(5) 0.6431(4) -0.2435(3)
C9F C -0.1247(5) 0.7339(4) -0.1865(4)
C10F C -0.1176(5) 0.7802(4) -0.2057(4)
C11F C -0.1535(5) 0.8233(4) -0.1994(4)
H4F H -0.1493 0.8548 -0.2119
C12F C -0.1927(4) 0.8215(3) -0.1770(3)
C13F C -0.2019(5) 0.7750(3) -0.1599(3)
H5F H -0.2306 0.7721 -0.1453
C14F C -0.1665(5) 0.7320(4) -0.1650(4)
H6F H -0.1720 0.7005 -0.1530
C15F C -0.2283(4) 0.8690(3) -0.1697(2)
C16F C -0.0625 0.7903 -0.2212
C17F C 0.2830(4) 0.5775(3) -0.1539(3)
C18F C 0.3203(4) 0.6235(3) -0.1592(3)
C19F C 0.3156(5) 0.6698(4) -0.1403(4)
H7F H 0.2902 0.6716 -0.1233
C20F C 0.3468(6) 0.7133(4) -0.1456(4)
C21F C 0.3870(5) 0.7117(5) -0.1684(4)
C22F C 0.3907(6) 0.6657(5) -0.1896(4)
C23F C 0.3569(5) 0.6229(4) -0.1833(4)
H8F H 0.3600 0.5919 -0.1969
C24F C 0.3485 0.7588 -0.1140
C25F C 0.4275(5) 0.7573(4) -0.1705(4)
C26F C 0.4151(4) 0.7960(4) -0.1993(4)
C27F C 0.4556(4) 0.8350(4) -0.1991(3)
H9F H 0.4444 0.8614 -0.2187
C28F C 0.5134(4) 0.8361(3) -0.1699(2)
C29F C 0.5276(5) 0.7987(4) -0.1401(4)
H10F H 0.5654 0.8002 -0.1193
C30F C 0.4857(5) 0.7579(4) -0.1403(4)
H11F H 0.4965 0.7315 -0.1206
C31F C 0.5598(3) 0.8780(2) -0.1689(2)
C32F C 0.3532 0.7987 -0.2268
C33F C 0.1507(4) 0.4810(3) -0.2655(2)
C34F C 0.1436(4) 0.4861(4) -0.3105(3)
C35F C 0.0856(4) 0.4829(4) -0.3401(2)
H12F H 0.0498 0.4779 -0.3323
C36F C 0.0820(4) 0.4872(4) -0.3808(3)
C37F C 0.1339(5) 0.4935(6) -0.3941(3)
C38F C 0.1913(7) 0.5015(5) -0.3642(4)
H13F H 0.2260 0.5102 -0.3722
C39F C 0.1967(5) 0.4966(6) -0.3218(3)
H14F H 0.2351 0.5003 -0.3019
C40F C 0.0218(5) 0.4887(6) -0.4111(3)
C41F C 0.1367(5) 0.4959(5) -0.4376(3)
C42F C 0.1353(6) 0.5442(5) -0.4567(3)
C43F C 0.1421(5) 0.5456(5) -0.4960(3)
H15F H 0.1379 0.5773 -0.5098
C44F C 0.1549(4) 0.5015(4) -0.5150(2)
C45F C 0.1559(5) 0.4546(4) -0.4954(3)
H16F H 0.1640 0.4240 -0.5076
C46F C 0.1446(6) 0.4528(5) -0.4564(3)
C47F C 0.1668(4) 0.5051(3) -0.5553(2)
C48F C 0.1365(12) 0.5963(8) -0.4374(8)
O14F O 0.2837(3) 0.4531(2) -0.09128(17)
H21F H 0.2768 0.4859 -0.0959
H22F H 0.3063 0.4296 -0.0953
Zn1B Zn -0.09464(3) -0.47129(3) 0.19975(2)
Zn1D Zn 0.59464(3) 0.97129(3) -0.19975(2)
Zn2C Zn 0.18130(4) 0.46324(3) -0.62655(2)
Zn2E Zn 0.31870(4) 0.03676(3) 0.62655(2)
Zn3B Zn 0.75955(4) -0.47377(3) 0.18220(2)
Zn3D Zn -0.25955(4) 0.97377(3) -0.18220(2)
Zn4B Zn -0.19328(4) -0.41364(3) 0.11722(2)
Zn4B_2 Zn 0.80672(4) -0.41364(3) 0.11722(2)
Zn4C Zn 0.19328(4) 0.58636(3) -0.61722(2)
Zn4D Zn -0.30672(4) 0.91364(3) -0.11722(2)
Zn4D_2 Zn 0.69328(4) 0.91364(3) -0.11722(2)
Zn4E Zn 0.30672(4) -0.08636(3) 0.61722(2)
O3B O 0.2094(3) 0.0873(2) 0.18250(17)
O3D O 0.2906(3) 0.4127(2) -0.18250(17)
O4B O 0.2664(3) 0.13449(18) 0.15236(16)
O4D O 0.2336(3) 0.36551(18) -0.15236(16)
O7B O 0.4566(2) 0.08827(17) 0.19690(15)
O7D O 0.0434(2) 0.41173(17) -0.19690(15)
O8B O 0.3913(2) 0.12350(19) 0.14020(15)
O8D O 0.1087(2) 0.37650(19) -0.14020(15)
O11C O 0.1829(3) 0.5367(2) -0.06988(15)
O11E O 0.3171(3) -0.0367(2) 0.06988(15)
O12C O 0.1616(3) 0.4523(2) -0.07287(15)
O12E O 0.3384(3) 0.0477(2) 0.07287(15)
F19? F 0.1888(6) -0.2726(5) 0.2364(4)
F20? F 0.4872(6) 0.0215(6) 0.4454(4)
F21? F 0.350(3) 0.1420(8) 0.4646(10)
F22? F 0.2748(11) 0.0912(13) 0.4046(8)
F23? F 0.3814(15) 0.1142(8) 0.4219(6)
C54? C 0.3344 0.0930 0.4400
F24? F 0.0679(16) -0.1182(9) 0.2320(9)
F25? F 0.074(2) -0.1944(14) 0.2449(11)
F26? F 0.0025(8) -0.1483(8) 0.1884(8)
C55? C 0.0636 -0.1681 0.2124
loop_
_geom_bond_atom_site_label_1
_geom_bond_atom_site_label_2
_geom_bond_site_symmetry_1
_geom_bond_site_symmetry_2
Zn1 O1 1_555 1_555
Zn2 O2 1_555 1_555
Zn3 O6 1_555 1_555
Zn4 O13 1_555 1_555
F1 C8 1_555 1_555
F2 C8 1_555 1_555
F3 C8 1_555 1_555
F4 C16 1_555 1_555
F5 C16 1_555 1_555
F6 C16 1_555 1_555
F7 C24 1_555 1_555
F8 C24 1_555 1_555
F9 C24 1_555 1_555
F10 C32 1_555 1_555
F11 C32 1_555 1_555
F12 C32 1_555 1_555
F13 C40 1_555 1_555
F14 C40 1_555 1_555
F15 C40 1_555 1_555
F16 C48 1_555 1_555
F17 C48 1_555 1_555
F18 C48 1_555 1_555
O1 C1 1_555 1_555
O2 C1 1_555 1_555
O3 C15 1_555 1_555
O4 C15 1_555 1_555
O5 Zn2 1_555 1_555
O6 C17 1_555 1_555
O7 C31 1_555 1_555
O8 C31 1_555 1_555
O9 Zn3 1_555 1_555
O10 Zn1 1_555 1_555
O11 C47 1_555 1_555
O12 C47 1_555 1_555
O13 Zn1 1_555 1_555
N1 Zn4 1_555 1_555
C1 C2 1_555 1_555
C2 C3 1_555 1_555
C3 H1 1_555 1_555
C4 C3 1_555 1_555
C5 C4 1_555 1_555
C6 C5 1_555 1_555
H2 C6 1_555 1_555
C7 C2 1_555 1_555
H3 C7 1_555 1_555
C8 C4 1_555 1_555
C9 C5 1_555 1_555
C10 C9 1_555 1_555
C11 C10 1_555 1_555
H4 C11 1_555 1_555
C12 C11 1_555 1_555
C13 C12 1_555 1_555
H5 C13 1_555 1_555
C14 C9 1_555 1_555
H6 C14 1_555 1_555
C15 C12 1_555 1_555
C16 C10 1_555 1_555
C17 O5 1_555 1_555
C18 C17 1_555 1_555
C19 C18 1_555 1_555
H7 C19 1_555 1_555
C20 C19 1_555 1_555
C21 C20 1_555 1_555
C22 C21 1_555 1_555
C23 C18 1_555 1_555
H8 C23 1_555 1_555
C24 C20 1_555 1_555
C25 C21 1_555 1_555
C26 C25 1_555 1_555
C27 C26 1_555 1_555
H9 C27 1_555 1_555
C28 C27 1_555 1_555
C29 C28 1_555 1_555
H10 C29 1_555 1_555
C30 C25 1_555 1_555
H11 C30 1_555 1_555
C31 C28 1_555 1_555
C32 C26 1_555 1_555
C33 O9 1_555 1_555
C34 C33 1_555 1_555
C35 C34 1_555 1_555
H12 C35 1_555 1_555
C36 C35 1_555 1_555
C37 C36 1_555 1_555
C38 C37 1_555 1_555
H13 C38 1_555 1_555
C39 C34 1_555 1_555
H14 C39 1_555 1_555
C40 C36 1_555 1_555
C41 C37 1_555 1_555
C42 C41 1_555 1_555
C43 C42 1_555 1_555
H15 C43 1_555 1_555
C44 C43 1_555 1_555
C45 C44 1_555 1_555
H16 C45 1_555 1_555
C46 C41 1_555 1_555
C47 C44 1_555 1_555
C48 C42 1_555 1_555
C49 N1 1_555 1_555
H17 C49 1_555 1_555
C50 C49 1_555 1_555
H18 C50 1_555 1_555
C51 C50 1_555 1_555
C52 C51 1_555 1_555
H19 C52 1_555 1_555
C53 N1 1_555 1_555
H20 C53 1_555 1_555
O14 Zn4 1_555 1_555
H21 O14 1_555 1_555
H22 O14 1_555 1_555
N1F C49F 1_555 1_555
C49F H17F 1_555 1_555
C50F C49F 1_555 1_555
H18F C50F 1_555 1_555
C51F C51 1_555 1_555
C52F C51F 1_555 1_555
H19F C52F 1_555 1_555
C53F N1F 1_555 1_555
H20F C53F 1_555 1_555
Zn1F O1F 1_555 1_555
Zn2F O2F 1_555 1_555
Zn3F O6F 1_555 1_555
Zn4F N1F 1_555 1_555
F1F C8F 1_555 1_555
F2F C8F 1_555 1_555
F3F C8F 1_555 1_555
F4F C16F 1_555 1_555
F5F C16F 1_555 1_555
F6F C16F 1_555 1_555
F7F C24F 1_555 1_555
F8F C24F 1_555 1_555
F9F C24F 1_555 1_555
F10F C32F 1_555 1_555
F11F C32F 1_555 1_555
F12F C32F 1_555 1_555
F13F C40F 1_555 1_555
F14F C40F 1_555 1_555
F15F C40F 1_555 1_555
F16F C48F 1_555 1_555
F17F C48F 1_555 1_555
F18F C48F 1_555 1_555
O1F C1F 1_555 1_555
O2F C1F 1_555 1_555
O3F C15F 1_555 1_555
O4F C15F 1_555 1_555
O5F Zn2F 1_555 1_555
O6F C17F 1_555 1_555
O7F C31F 1_555 1_555
O8F C31F 1_555 1_555
O9F Zn3F 1_555 1_555
O10F Zn1F 1_555 1_555
O11F C47F 1_555 1_555
O12F C47F 1_555 1_555
O13F Zn1F 1_555 1_555
C1F C2F 1_555 1_555
C2F C3F 1_555 1_555
C3F H1F 1_555 1_555
C4F C3F 1_555 1_555
C5F C4F 1_555 1_555
C6F C5F 1_555 1_555
H2F C6F 1_555 1_555
C7F C2F 1_555 1_555
H3F C7F 1_555 1_555
C8F C4F 1_555 1_555
C9F C5F 1_555 1_555
C10F C9F 1_555 1_555
C11F C10F 1_555 1_555
H4F C11F 1_555 1_555
C12F C11F 1_555 1_555
C13F C12F 1_555 1_555
H5F C13F 1_555 1_555
C14F C9F 1_555 1_555
H6F C14F 1_555 1_555
C15F C12F 1_555 1_555
C16F C10F 1_555 1_555
C17F O5F 1_555 1_555
C18F C17F 1_555 1_555
C19F C18F 1_555 1_555
H7F C19F 1_555 1_555
C20F C19F 1_555 1_555
C21F C20F 1_555 1_555
C22F C21F 1_555 1_555
C23F C18F 1_555 1_555
H8F C23F 1_555 1_555
C24F C20F 1_555 1_555
C25F C21F 1_555 1_555
C26F C25F 1_555 1_555
C27F C26F 1_555 1_555
H9F C27F 1_555 1_555
C28F C27F 1_555 1_555
C29F C28F 1_555 1_555
H10F C29F 1_555 1_555
C30F C25F 1_555 1_555
H11F C30F 1_555 1_555
C31F C28F 1_555 1_555
C32F C26F 1_555 1_555
C33F O9F 1_555 1_555
C34F C33F 1_555 1_555
C35F C34F 1_555 1_555
H12F C35F 1_555 1_555
C36F C35F 1_555 1_555
C37F C36F 1_555 1_555
C38F C37F 1_555 1_555
H13F C38F 1_555 1_555
C39F C34F 1_555 1_555
H14F C39F 1_555 1_555
C40F C36F 1_555 1_555
C41F C37F 1_555 1_555
C42F C41F 1_555 1_555
C43F C42F 1_555 1_555
H15F C43F 1_555 1_555
C44F C43F 1_555 1_555
C45F C44F 1_555 1_555
H16F C45F 1_555 1_555
C46F C41F 1_555 1_555
C47F C44F 1_555 1_555
C48F C42F 1_555 1_555
O14F Zn4F 1_555 1_555
H21F O14F 1_555 1_555
H22F O14F 1_555 1_555
Zn1B O7 1_555 1_555
Zn1D O7F 1_555 1_555
Zn2C O11F 1_555 1_555
Zn2E O11 1_555 1_555
Zn3B O3 1_555 1_555
Zn3D O3F 1_555 1_555
Zn4B O8 1_555 1_555
Zn4B_2 O4 1_555 1_555
Zn4C O12F 1_555 1_555
Zn4D O4F 1_555 1_555
Zn4D_2 O8F 1_555 1_555
Zn4E O12 1_555 1_555
O3B Zn3 1_555 1_555
O3D Zn3F 1_555 1_555
O4B Zn4 1_555 1_555
O4D Zn4F 1_555 1_555
O7B Zn1 1_555 1_555
O7D Zn1F 1_555 1_555
O8B Zn4 1_555 1_555
O8D Zn4F 1_555 1_555
O11C Zn2F 1_555 1_555
O11E Zn2 1_555 1_555
O12C Zn4F 1_555 1_555
O12E Zn4 1_555 1_555
Zn2 O13 1_555 1_555
Zn3 O13 1_555 1_555
O10 C33 1_555 1_555
C6 C7 1_555 1_555
C13 C14 1_555 1_555
C22 C23 1_555 1_555
C29 C30 1_555 1_555
C38 C39 1_555 1_555
C45 C46 1_555 1_555
C52 C53 1_555 1_555
C50F C51F 1_555 1_555
C52F C53F 1_555 1_555
Zn2F O13F 1_555 1_555
Zn3F O13F 1_555 1_555
Zn4F O13F 1_555 1_555
O10F C33F 1_555 1_555
C6F C7F 1_555 1_555
C13F C14F 1_555 1_555
C22F C23F 1_555 1_555
C29F C30F 1_555 1_555
C38F C39F 1_555 1_555
C45F C46F 1_555 1_555

#END
