
#######################################################################
#
#                 Cambridge Crystallographic Data Centre
#                                CCDC 
#
#######################################################################
#
# If this CIF has been generated from an entry in the Cambridge 
# Structural Database, then it will include bibliographic, chemical, 
# crystal, experimental, refinement or atomic coordinate data resulting 
# from the CCDC's data processing and validation procedures.
#
#######################################################################

data_COWMOR
_chemical_formula_moiety         '(C12 H18 Er1 N1 O8)n,n(C3 H7 N1 O1),n(H2 O1)'
_chemical_name_systematic        
'catena-((\m~4~-cis,cis-1,3,5-Cyclohexanetricarboxylato)-(aqua)-(dimethylformamide)-erbium dimethylformamide solvate monohydrate)'
_symmetry_cell_setting           monoclinic
_symmetry_space_group_name_H-M   'P 21/n'
_symmetry_Int_Tables_number      14
_space_group_name_Hall           '-P 2yn'
loop_
_symmetry_equiv_pos_site_id
_symmetry_equiv_pos_as_xyz
1 x,y,z
2 1/2-x,1/2+y,1/2-z
3 -x,-y,-z
4 1/2+x,1/2-y,1/2+z
_cell_length_a                   9.5631(7)
_cell_length_b                   13.8741(10)
_cell_length_c                   15.3000(11)
_cell_angle_alpha                90
_cell_angle_beta                 93.382(2)
_cell_angle_gamma                90
_cell_volume                     2026.46
_cell_formula_units_Z            4
_exptl_crystal_preparation       photoluminescent
loop_
_atom_site_label
_atom_site_type_symbol
_atom_site_fract_x
_atom_site_fract_y
_atom_site_fract_z
Er1 Er 0.45733(7) 0.11095(5) 0.08577(5)
C1 C 0.8394(17) -0.1428(13) 0.1941(12)
H1 H 0.7630 -0.1887 0.1884
H2 H 0.8306 -0.1070 0.2480
C2 C 0.9811(17) -0.1974(14) 0.1983(14)
H3 H 0.9869 -0.2350 0.1444
C3 C 1.1044(15) -0.1292(12) 0.2061(12)
H4 H 1.1911 -0.1653 0.2049
H5 H 1.1046 -0.0947 0.2612
C4 C 1.0938(16) -0.0556(13) 0.1278(12)
H6 H 1.0929 -0.0955 0.0750
C5 C 0.9531(15) -0.0042(12) 0.1228(11)
H7 H 0.9473 0.0373 0.0716
H8 H 0.9467 0.0363 0.1741
C6 C 0.8304(17) -0.0743(13) 0.1174(12)
H9 H 0.8357 -0.1123 0.0637
C7 C 0.6934(15) -0.0195(11) 0.1119(10)
C8 C 0.9963(16) -0.2652(13) 0.2752(11)
C9 C 1.2195(16) 0.0088(11) 0.1226(10)
C10 C 0.401(3) 0.315(2) -0.0182(17)
H10 H 0.4983 0.3165 -0.0174
C11 C 0.400(5) 0.465(3) -0.101(3)
H11 H 0.5003 0.4581 -0.0951
H12 H 0.3732 0.5246 -0.0760
H13 H 0.3701 0.4633 -0.1622
C12 C 0.188(4) 0.391(3) -0.064(3)
H14 H 0.1504 0.3375 -0.0326
H15 H 0.1552 0.3870 -0.1244
H16 H 0.1567 0.4501 -0.0394
O1 O 0.6640(13) 0.0443(10) 0.1652(8)
O2 O 0.6265(12) 0.1652(10) -0.0106(8)
O4 O 0.6058(11) -0.0375(9) 0.0483(7)
O5 O 0.9324(14) -0.2537(10) 0.3440(8)
O6 O 1.0777(13) -0.3367(10) 0.2696(8)
O7 O 1.2061(12) 0.0943(8) 0.1012(8)
O8 O 1.3412(11) -0.0291(9) 0.1365(8)
O10 O 0.3507(14) 0.2475(10) 0.0171(10)
N1 N 0.337(3) 0.3868(17) -0.0571(14)
Er1B Er 0.54267(7) -0.11095(5) -0.08577(5)
Er1A Er 1.04267(7) -0.38905(5) 0.41423(5)
Er1_2 Er 1.45733(7) 0.11095(5) 0.08577(5)
O4B O 0.3942(11) 0.0375(9) -0.0483(7)
O5A O 0.5676(14) 0.2463(10) 0.1560(8)
O6A O 0.4223(13) 0.1633(10) 0.2304(8)
O7_2 O 0.2061(12) 0.0943(8) 0.1012(8)
O8_2 O 0.3412(11) -0.0291(9) 0.1365(8)
C13 C 0.878(2) 0.2587(18) 0.1113(16)
H17 H 0.8396 0.2009 0.1291
C14 C 1.031(4) 0.388(3) 0.148(3)
H18 H 0.9934 0.4126 0.0930
H19 H 1.1308 0.3799 0.1457
H20 H 1.0127 0.4332 0.1937
C15 C 1.017(3) 0.252(2) 0.2477(17)
H21 H 0.9694 0.1918 0.2533
H22 H 0.9964 0.2933 0.2959
H23 H 1.1158 0.2416 0.2479
O9 O 0.8377(17) 0.2879(14) 0.0391(11)
N2 N 0.9684(18) 0.2983(14) 0.1658(12)
O3 O 0.268(2) 0.1053(18) 0.3831(18)
loop_
_geom_bond_atom_site_label_1
_geom_bond_atom_site_label_2
_geom_bond_site_symmetry_1
_geom_bond_site_symmetry_2
Er1 O1 1_555 1_555
C1 H1 1_555 1_555
H2 C1 1_555 1_555
C2 C1 1_555 1_555
H3 C2 1_555 1_555
C3 C2 1_555 1_555
H4 C3 1_555 1_555
H5 C3 1_555 1_555
C4 C3 1_555 1_555
H6 C4 1_555 1_555
C5 C4 1_555 1_555
H7 C5 1_555 1_555
H8 C5 1_555 1_555
C6 C1 1_555 1_555
H9 C6 1_555 1_555
C7 C6 1_555 1_555
C8 C2 1_555 1_555
C9 C4 1_555 1_555
C10 H10 1_555 1_555
C11 H11 1_555 1_555
H12 C11 1_555 1_555
H13 C11 1_555 1_555
C12 H14 1_555 1_555
H15 C12 1_555 1_555
H16 C12 1_555 1_555
C13 H17 1_555 1_555
C14 H18 1_555 1_555
H19 C14 1_555 1_555
H20 C14 1_555 1_555
C15 H21 1_555 1_555
H22 C15 1_555 1_555
H23 C15 1_555 1_555
O1 C7 1_555 1_555
O2 Er1 1_555 1_555
O4 Er1 1_555 1_555
O5 C8 1_555 1_555
O6 C8 1_555 1_555
O7 C9 1_555 1_555
O8 C9 1_555 1_555
O9 C13 1_555 1_555
O10 Er1 1_555 1_555
N1 C10 1_555 1_555
N2 C13 1_555 1_555
Er1B O4 1_555 1_555
Er1A O5 1_555 1_555
Er1_2 O7 1_555 1_555
O4B Er1 1_555 1_555
O5A Er1 1_555 1_555
O6A Er1 1_555 1_555
O7_2 Er1 1_555 1_555
O8_2 Er1 1_555 1_555
C5 C6 1_555 1_555
C7 O4 1_555 1_555
C10 O10 1_555 1_555
C11 N1 1_555 1_555
C12 N1 1_555 1_555
C14 N2 1_555 1_555
C15 N2 1_555 1_555
O6 Er1A 1_555 1_555
O8 Er1_2 1_555 1_555
Er1B O4B 1_555 1_555

#END
