
#######################################################################
#
#                 Cambridge Crystallographic Data Centre
#                                CCDC 
#
#######################################################################
#
# If this CIF has been generated from an entry in the Cambridge 
# Structural Database, then it will include bibliographic, chemical, 
# crystal, experimental, refinement or atomic coordinate data resulting 
# from the CCDC's data processing and validation procedures.
#
#######################################################################

data_QOVWOO
_chemical_formula_moiety         '(C32 H20 Ga4 O20)n,4n(H2 O1)'
_chemical_name_systematic        
'catena-(tetrakis(\m~4~-Terephthalato)-tetrakis(\m~2~-hydroxo)-tetra-gallium tetrahydrate clathrate)'
_symmetry_cell_setting           monoclinic
_symmetry_space_group_name_H-M   'P 21/c'
_symmetry_Int_Tables_number      14
_space_group_name_Hall           '-P 2ybc'
loop_
_symmetry_equiv_pos_site_id
_symmetry_equiv_pos_as_xyz
1 x,y,z
2 -x,1/2+y,1/2-z
3 -x,-y,-z
4 x,1/2-y,1/2+z
_cell_length_a                   19.70530(22)
_cell_length_b                   15.16417(43)
_cell_length_c                   6.681171(94)
_cell_angle_alpha                90
_cell_angle_beta                 103.79364(83)
_cell_angle_gamma                90
_cell_volume                     1938.86
_cell_formula_units_Z            2
loop_
_atom_site_label
_atom_site_type_symbol
_atom_site_fract_x
_atom_site_fract_y
_atom_site_fract_z
Ga1 Ga 1.50432(22) -0.25396(53) 0.48504(65)
O1 O 1.5010(12) -0.1890(23) 0.2292(34)
O2 O 1.438970 -0.157030 0.545970
O3 O 1.416970 -0.171420 0.852000
O4 O 0.591450 -0.192310 -0.367060
O5 O 0.562900 -0.151350 -0.082060
C1 C 1.395950 -0.155840 0.660420
C2 C 1.32131 -0.136310 0.570530
C3 C 1.298260 -0.122020 0.36291
C4 C 1.275270 -0.132510 0.694940
C5 C 1.229170 -0.103940 0.279700
H1 H 1.331190 -0.124740 0.273920
C6 C 1.206180 -0.114420 0.611730
H2 H 1.291760 -0.142730 0.843450
C7 C 1.183130 -0.100140 0.404110
H3 H 1.212680 -0.093720 0.131190
H4 H 1.173240 -0.111710 0.700720
C8 C 1.108490 -0.080600 0.314220
O6 O 1.087320 -0.066030 0.122240
O7 O 1.065610 -0.078420 0.429060
Ga2 Ga 1.00000 0.00000 0.00000
Ga3 Ga 1.00000 0.00000 0.50000
O8 O 0.940740 -0.097470 0.081410
O9 O 0.9999(13) 0.0636(23) 0.2464(44)
O10 O 0.911290 -0.048900 0.359250
C9 C 0.894230 -0.082170 0.179800
C10 C 0.820160 -0.103120 0.085330
C11 C 0.801270 -0.134820 -0.112180
C12 C 0.770490 -0.090800 0.195400
C13 C 0.732700 -0.154210 -0.199630
H5 H 0.836800 -0.143630 -0.190920
C14 C 0.701920 -0.110190 0.107950
H6 H 0.784010 -0.068120 0.336690
C15 C 0.683030 -0.141900 -0.089560
H7 H 0.719180 -0.176890 -0.340920
H8 H 0.666390 -0.101390 0.186690
C16 C 0.608960 -0.162850 -0.184030
Ga1B Ga 0.49568(22) 0.25396(53) -0.48504(65)
O1B O 0.4990(12) 0.1890(23) -0.2292(34)
O2B O 0.561030 0.157030 -0.545970
O3B O 0.583030 0.171420 -0.852000
O4B O 1.408550 0.192310 0.367060
O5B O 1.437100 0.151350 0.082060
C1B C 0.604050 0.155840 -0.660420
C2B C 0.67869 0.136310 -0.570530
C3B C 0.701740 0.122020 -0.36291
C4B C 0.724730 0.132510 -0.694940
C5B C 0.770830 0.103940 -0.279700
H1B H 0.668810 0.124740 -0.273920
C6B C 0.793820 0.114420 -0.611730
H2B H 0.708240 0.142730 -0.843450
C7B C 0.816870 0.100140 -0.404110
H3B H 0.787320 0.093720 -0.131190
H4B H 0.826760 0.111710 -0.700720
C8B C 0.891510 0.080600 -0.314220
O6B O 0.912680 0.066030 -0.122240
O7B O 0.934390 0.078420 -0.429060
O8B O 1.059260 0.097470 -0.081410
O9B O 1.0001(13) -0.0636(23) -0.2464(44)
O10B O 1.088710 0.048900 -0.359250
C9B C 1.105770 0.082170 -0.179800
C10B C 1.179840 0.103120 -0.085330
C11B C 1.198730 0.134820 0.112180
C12B C 1.229510 0.090800 -0.195400
C13B C 1.267300 0.154210 0.199630
H5B H 1.163200 0.143630 0.190920
C14B C 1.298080 0.110190 -0.107950
H6B H 1.215990 0.068120 -0.336690
C15B C 1.316970 0.141900 0.089560
H7B H 1.280820 0.176890 0.340920
H8B H 1.333610 0.101390 -0.186690
C16B C 1.391040 0.162850 0.184030
Ga1_2 Ga 0.50432(22) -0.25396(53) -0.51496(65)
Ga1A Ga 0.49568(22) 0.24604(53) -0.98504(65)
Ga1A_2 Ga 0.49568(22) 0.24604(53) 0.01496(65)
Ga1A_3 Ga 1.49568(22) 0.24604(53) 0.01496(65)
Ga1B_2 Ga 1.49568(22) 0.25396(53) 0.51496(65)
Ga1C Ga 0.50432(22) -0.24604(53) -0.01496(65)
Ga1C_2 Ga 1.50432(22) -0.24604(53) -0.01496(65)
Ga1C_3 Ga 1.50432(22) -0.24604(53) 0.98504(65)
O1A O 0.4990(12) 0.3110(23) -0.7292(34)
O1C O 1.5010(12) -0.3110(23) 0.7292(34)
O3A O 0.583030 0.328580 -0.352000
O3C O 1.416970 -0.328580 0.352000
O4_2 O 1.591450 -0.192310 0.632940
O4B_2 O 0.408550 0.192310 -0.632940
O5A O 0.437100 0.348650 -0.417940
O5C O 1.562900 -0.348650 0.417940
O7B_2 O 0.934390 0.078420 0.570940
Ga3_2 Ga 1.00000 0.00000 -0.50000
O9B_2 O 1.0001(13) -0.0636(23) 0.7536(44)
O10B_2 O 1.088710 0.048900 0.640750
O11 O 0.5111(14) 0.0198(15) 0.6933(36)
O12 O 0.9690(10) 0.2405(19) 0.3280(32)
loop_
_geom_bond_atom_site_label_1
_geom_bond_atom_site_label_2
_geom_bond_site_symmetry_1
_geom_bond_site_symmetry_2
Ga1 O1 1_555 1_555
O1 Ga1C_2 1_555 1_555
O2 Ga1 1_555 1_555
O3 C1 1_555 1_555
O4 C16 1_555 1_555
O5 C16 1_555 1_555
C1 O2 1_555 1_555
C2 C1 1_555 1_555
C3 C2 1_555 1_555
C4 C2 1_555 1_555
C5 C3 1_555 1_555
H1 C3 1_555 1_555
C6 C4 1_555 1_555
H2 C4 1_555 1_555
C7 C5 1_555 1_555
H3 C5 1_555 1_555
H4 C6 1_555 1_555
C8 C7 1_555 1_555
O6 C8 1_555 1_555
O7 C8 1_555 1_555
Ga2 O6 1_555 1_555
Ga3 O7 1_555 1_555
O8 Ga2 1_555 1_555
O9 Ga2 1_555 1_555
O10 Ga3 1_555 1_555
C9 O8 1_555 1_555
C10 C9 1_555 1_555
C11 C10 1_555 1_555
C12 C10 1_555 1_555
C13 C11 1_555 1_555
H5 C11 1_555 1_555
C14 C12 1_555 1_555
H6 C12 1_555 1_555
C15 C13 1_555 1_555
H7 C13 1_555 1_555
H8 C14 1_555 1_555
C16 C15 1_555 1_555
Ga1B O1B 1_555 1_555
O1B Ga1A_2 1_555 1_555
O2B Ga1B 1_555 1_555
O3B C1B 1_555 1_555
O4B C16B 1_555 1_555
O5B C16B 1_555 1_555
C1B O2B 1_555 1_555
C2B C1B 1_555 1_555
C3B C2B 1_555 1_555
C4B C2B 1_555 1_555
C5B C3B 1_555 1_555
H1B C3B 1_555 1_555
C6B C4B 1_555 1_555
H2B C4B 1_555 1_555
C7B C5B 1_555 1_555
H3B C5B 1_555 1_555
H4B C6B 1_555 1_555
C8B C7B 1_555 1_555
O6B Ga2 1_555 1_555
O7B C8B 1_555 1_555
O8B Ga2 1_555 1_555
O9B Ga2 1_555 1_555
O10B C9B 1_555 1_555
C9B O8B 1_555 1_555
C10B C9B 1_555 1_555
C11B C10B 1_555 1_555
C12B C10B 1_555 1_555
C13B C11B 1_555 1_555
H5B C11B 1_555 1_555
C14B C12B 1_555 1_555
H6B C12B 1_555 1_555
C15B C13B 1_555 1_555
H7B C13B 1_555 1_555
H8B C14B 1_555 1_555
C16B C15B 1_555 1_555
Ga1_2 O4 1_555 1_555
Ga1A O3B 1_555 1_555
Ga1A_3 O5B 1_555 1_555
Ga1B_2 O4B 1_555 1_555
Ga1C O5 1_555 1_555
Ga1C_3 O3 1_555 1_555
O1A Ga1B 1_555 1_555
O1C Ga1 1_555 1_555
O3A Ga1B 1_555 1_555
O3C Ga1 1_555 1_555
O4_2 Ga1 1_555 1_555
O4B_2 Ga1B 1_555 1_555
O5A Ga1B 1_555 1_555
O5C Ga1 1_555 1_555
O7B_2 Ga3 1_555 1_555
Ga3_2 O7B 1_555 1_555
O9B_2 Ga3 1_555 1_555
O10B_2 Ga3 1_555 1_555
C6 C7 1_555 1_555
Ga3 O9 1_555 1_555
O10 C9 1_555 1_555
C14 C15 1_555 1_555
C6B C7B 1_555 1_555
C8B O6B 1_555 1_555
O9B Ga3_2 1_555 1_555
O10B Ga3_2 1_555 1_555
C14B C15B 1_555 1_555
Ga1A O1A 1_555 1_555
Ga1C_3 O1C 1_555 1_555

#END
