
#######################################################################
#
#                 Cambridge Crystallographic Data Centre
#                                CCDC 
#
#######################################################################
#
# If this CIF has been generated from an entry in the Cambridge 
# Structural Database, then it will include bibliographic, chemical, 
# crystal, experimental, refinement or atomic coordinate data resulting 
# from the CCDC's data processing and validation procedures.
#
#######################################################################

data_GALBUS
_chemical_formula_moiety         '(C22 H14 N4 Ni1 O4)n,1.3n(C3 H7 N1 O1)'
_chemical_name_systematic        
"catena-(bis(\m~2~-2,4'-bipyridine-5-carboxylato)-nickel(ii) dimethylformamide solvate)"
_symmetry_cell_setting           tetragonal
_symmetry_space_group_name_H-M   'P 4 21 2'
_symmetry_Int_Tables_number      90
_space_group_name_Hall           'P 4ab 2ab'
loop_
_symmetry_equiv_pos_site_id
_symmetry_equiv_pos_as_xyz
1 x,y,z
2 -x,-y,z
3 1/2-y,1/2+x,z
4 1/2+y,1/2-x,z
5 1/2-x,1/2+y,-z
6 1/2+x,1/2-y,-z
7 y,x,-z
8 -y,-x,-z
_cell_length_a                   22.3163(5)
_cell_length_b                   22.3163(5)
_cell_length_c                   12.7222(6)
_cell_angle_alpha                90
_cell_angle_beta                 90
_cell_angle_gamma                90
_cell_volume                     6335.88
_exptl_crystal_colour            green
_exptl_crystal_description       block
_cell_formula_units_Z            8
loop_
_atom_site_label
_atom_site_type_symbol
_atom_site_fract_x
_atom_site_fract_y
_atom_site_fract_z
_atom_site_U_iso_or_equiv
_atom_site_thermal_displace_type
Ni1 Ni 0.260770(15) 0.747136(14) 0.24839(2) 0.0319 Uani
C1 C -0.14108(14) 0.77718(15) -0.1785(2) 0.0408 Uani
C2 C -0.08196(14) 0.78179(19) -0.1239(2) 0.0517 Uani
C3 C -0.02933(16) 0.7754(2) -0.1793(3) 0.0784 Uani
H1 H -0.0296 0.7726 -0.2538 0.0940 Uiso
C4 C 0.02405(18) 0.7731(3) -0.1238(3) 0.0863 Uani
H2 H 0.0609 0.7674 -0.1598 0.1040 Uiso
C5 C 0.02342(16) 0.7793(2) -0.0162(3) 0.0585 Uani
C6 C -0.07894(14) 0.79022(17) -0.0179(2) 0.0482 Uani
H3 H -0.1152 0.7972 0.0194 0.0580 Uiso
C7 C 0.07908(16) 0.7732(2) 0.0466(2) 0.0550 Uani
C8 C 0.12729(16) 0.7415(2) 0.0084(3) 0.0624 Uani
H4 H 0.1258 0.7244 -0.0599 0.0750 Uiso
C9 C 0.17809(15) 0.73464(19) 0.0701(3) 0.0560 Uani
H5 H 0.2110 0.7126 0.0426 0.0670 Uiso
C10 C 0.13619(16) 0.78910(18) 0.2036(3) 0.0587 Uani
H6 H 0.1391 0.8067 0.2714 0.0700 Uiso
C11 C 0.08379(17) 0.7968(2) 0.1459(3) 0.0640 Uani
H7 H 0.0512 0.8185 0.1753 0.0770 Uiso
C12 C 0.23693(16) 0.34362(15) 0.6627(2) 0.0427 Uani
C13 C 0.23263(19) 0.40007(15) 0.6000(2) 0.0568 Uani
C14 C 0.2004(2) 0.44692(17) 0.6323(3) 0.0710 Uani
H8 H 0.1781 0.4444 0.6957 0.0860 Uiso
C15 C 0.1995(2) 0.49867(17) 0.5742(3) 0.0687 Uani
H9 H 0.1764 0.5319 0.5975 0.0830 Uiso
C16 C 0.2309(2) 0.50245(16) 0.4849(3) 0.0630 Uani
C17 C 0.2628(2) 0.40455(18) 0.5059(3) 0.0787 Uani
H10 H 0.2857 0.3715 0.4814 0.0950 Uiso
C18 C 0.23306(18) 0.55896(15) 0.4246(2) 0.0518 Uani
C19 C 0.2240(2) 0.61280(16) 0.4748(3) 0.0588 Uani
H11 H 0.2146 0.6138 0.5476 0.0710 Uiso
C20 C 0.22861(17) 0.66540(14) 0.4182(3) 0.0492 Uani
H12 H 0.2217 0.7023 0.4534 0.0590 Uiso
C21 C 0.25040(18) 0.61447(15) 0.2694(2) 0.0571 Uani
H13 H 0.2608 0.6145 0.1970 0.0680 Uiso
C22 C 0.2448(2) 0.56022(16) 0.3189(3) 0.0697 Uani
H14 H 0.2489 0.5240 0.2804 0.0840 Uiso
N1 N -0.02688(13) 0.78918(16) 0.0373(2) 0.0553 Uani
N2 N 0.18260(11) 0.75761(13) 0.16625(18) 0.0414 Uani
N3 N 0.2604(2) 0.45566(15) 0.4474(3) 0.0843 Uani
N4 N 0.24230(12) 0.66666(11) 0.31620(19) 0.0389 Uani
O1 O -0.18829(9) 0.78201(10) -0.12463(15) 0.0401 Uani
O2 O -0.14358(9) 0.76517(11) -0.27483(16) 0.0490 Uani
O3 O 0.21768(11) 0.34273(9) 0.75538(17) 0.0520 Uani
O4 O 0.26071(10) 0.29765(9) 0.62287(15) 0.0417 Uani
Ni1E Ni -0.239230(15) 0.752864(14) -0.24839(2) 0.0319 Uani
Ni1D Ni 0.239230(15) 0.247136(14) 0.75161(2) 0.0319 Uani
O1E O 0.31171(9) 0.71799(10) 0.12463(15) 0.0401 Uani
O2E O 0.35642(9) 0.73483(11) 0.27483(16) 0.0490 Uani
O3D O 0.28232(11) 0.84273(9) 0.24462(17) 0.0520 Uani
O4D O 0.23929(10) 0.79765(9) 0.37713(15) 0.0417 Uani
loop_
_atom_site_aniso_label
_atom_site_aniso_U_11
_atom_site_aniso_U_22
_atom_site_aniso_U_33
_atom_site_aniso_U_23
_atom_site_aniso_U_13
_atom_site_aniso_U_12
Ni1 0.0372(2) 0.0367(2) 0.02180(19) -0.00043(18) -0.00125(18) 0.00246(14)
C1 0.0392 0.054 0.0292 -0.0023 -0.0019 0.0036
C2 0.0315 0.089 0.0347 -0.0038 0.0037 -0.0031
C3 0.043 0.158 0.0342 -0.004 -0.0029 0.012
C4 0.045 0.174 0.04 -0.007 0.0039 0.007
C5 0.04 0.105 0.0305 0.0005 -0.0043 0.007
C6 0.0329 0.085 0.0268 0.0017 0.0022 0.0102
C7 0.037 0.099 0.0289 -0.0023 0.0015 0.003
C8 0.044 0.11 0.0333 -0.014 -0.0008 0.012
C9 0.04 0.093 0.0349 -0.0174 -0.0002 0.0066
C10 0.048 0.089 0.039 -0.017 -0.0065 0.014
C11 0.056 0.095 0.041 -0.014 -0.0068 0.026
C12 0.059(2) 0.0467(19) 0.0225(15) -0.0008(13) -0.0084(15) -0.0101(17)
C13 0.098(3) 0.039(2) 0.0334(18) 0.0044(15) -0.0201(19) -0.015(2)
C14 0.105(4) 0.044(2) 0.064(3) 0.009(2) -0.007(3) 0.003(2)
C15 0.118(4) 0.033(2) 0.055(2) 0.0109(18) 0.003(3) 0.009(2)
C16 0.103(3) 0.036(2) 0.050(2) 0.0003(17) -0.021(2) -0.010(2)
C17 0.140(4) 0.046(2) 0.050(2) 0.0113(18) -0.003(3) -0.018(3)
C18 0.082(3) 0.042(2) 0.0313(17) 0.0020(14) -0.0071(18) -0.0063(18)
C19 0.100(3) 0.043(2) 0.0335(18) -0.0015(15) 0.0127(19) -0.004(2)
C20 0.077(3) 0.0360(18) 0.0347(17) -0.0060(14) 0.0085(18) 0.0057(17)
C21 0.100(3) 0.0430(18) 0.0282(16) 0.0002(14) 0.0099(19) 0.0043(19)
C22 0.127(4) 0.041(2) 0.041(2) -0.0078(16) -0.003(2) -0.001(2)
N1 0.0401 0.098 0.0279 -0.0076 0.0027 0.0068
N2 0.0389 0.0625 0.0228 -0.0017 -0.0011 0.005
N3 0.152(4) 0.053(2) 0.048(2) 0.0096(16) 0.003(2) -0.003(3)
N4 0.0530(17) 0.0323(13) 0.0314(14) -0.0017(10) 0.0008(12) 0.0021(13)
O1 0.0358 0.0578 0.0267 -0.0009 0.0035 -0.0008
O2 0.0384 0.079 0.0297 -0.0022 0.0013 0.0045
O3 0.0828(16) 0.0421(12) 0.0311(12) -0.0020(11) -0.0015(13) 0.0037(11)
O4 0.0605(15) 0.0358(12) 0.0288(10) 0.0001(9) -0.0043(10) -0.0045(11)
Ni1E 0.0372 0.0367 0.0218 -0.00043 0.00125 -0.00246
Ni1D 0.0372 0.0367 0.0218 0.00043 -0.00125 -0.00246
O1E 0.0358(12) 0.0578(14) 0.0267(11) -0.0009(10) -0.0035(9) 0.0008(10)
O2E 0.0384(12) 0.0790(17) 0.0297(12) -0.0022(11) -0.0013(9) -0.0045(11)
O3D 0.0828 0.0421 0.0311 0.002 -0.0015 -0.0037
O4D 0.0605 0.0358 0.0288 -0.0001 -0.0043 0.0045
loop_
_geom_bond_atom_site_label_1
_geom_bond_atom_site_label_2
_geom_bond_site_symmetry_1
_geom_bond_site_symmetry_2
Ni1 N2 1_555 1_555
C1 C2 1_555 1_555
C2 C3 1_555 1_555
C3 H1 1_555 1_555
C4 C3 1_555 1_555
H2 C4 1_555 1_555
C5 C4 1_555 1_555
C6 C2 1_555 1_555
H3 C6 1_555 1_555
C7 C5 1_555 1_555
C8 C7 1_555 1_555
H4 C8 1_555 1_555
C9 C8 1_555 1_555
H5 C9 1_555 1_555
C10 H6 1_555 1_555
C11 C7 1_555 1_555
H7 C11 1_555 1_555
C12 C13 1_555 1_555
C13 C14 1_555 1_555
C14 H8 1_555 1_555
C15 C14 1_555 1_555
H9 C15 1_555 1_555
C16 C15 1_555 1_555
C17 C13 1_555 1_555
H10 C17 1_555 1_555
C18 C16 1_555 1_555
C19 C18 1_555 1_555
H11 C19 1_555 1_555
C20 C19 1_555 1_555
H12 C20 1_555 1_555
C21 H13 1_555 1_555
C22 C18 1_555 1_555
H14 C22 1_555 1_555
N1 C5 1_555 1_555
N2 C9 1_555 1_555
N3 C16 1_555 1_555
N4 Ni1 1_555 1_555
O1 C1 1_555 1_555
O2 C1 1_555 1_555
O3 C12 1_555 1_555
O4 C12 1_555 1_555
Ni1E O1 1_555 1_555
Ni1D O3 1_555 1_555
O1E Ni1 1_555 1_555
O2E Ni1 1_555 1_555
O3D Ni1 1_555 1_555
O4D Ni1 1_555 1_555
C6 N1 1_555 1_555
C10 C11 1_555 1_555
C10 N2 1_555 1_555
C17 N3 1_555 1_555
C20 N4 1_555 1_555
C21 C22 1_555 1_555
C21 N4 1_555 1_555
O2 Ni1E 1_555 1_555
O4 Ni1D 1_555 1_555

#END
