
#######################################################################
#
#                 Cambridge Crystallographic Data Centre
#                                CCDC 
#
#######################################################################
#
# If this CIF has been generated from an entry in the Cambridge 
# Structural Database, then it will include bibliographic, chemical, 
# crystal, experimental, refinement or atomic coordinate data resulting 
# from the CCDC's data processing and validation procedures.
#
#######################################################################

data_IDUWAH
_chemical_name_common            PCMOF-5
_chemical_formula_moiety         '(C10 H21 La1 O15 P4)n,n(H2 O1)'
_chemical_name_systematic        
'catena-((\m~4~-Pentahydrogen 1,2,4,5-tetrakis(phosphonatomethyl)benzene)-triaqua-lanthanum monohydrate)'
_symmetry_cell_setting           monoclinic
_symmetry_space_group_name_H-M   'P 21/c'
_symmetry_Int_Tables_number      14
_space_group_name_Hall           '-P 2ybc'
loop_
_symmetry_equiv_pos_site_id
_symmetry_equiv_pos_as_xyz
1 x,y,z
2 -x,1/2+y,1/2-z
3 -x,-y,-z
4 x,1/2-y,1/2+z
_cell_length_a                   6.0301(4)
_cell_length_b                   18.3470(14)
_cell_length_c                   19.0401(13)
_cell_angle_alpha                90
_cell_angle_beta                 95.541(4)
_cell_angle_gamma                90
_cell_volume                     2096.64
_exptl_crystal_colour            colorless
_exptl_crystal_description       Rod
_cell_formula_units_Z            4
loop_
_atom_site_label
_atom_site_type_symbol
_atom_site_fract_x
_atom_site_fract_y
_atom_site_fract_z
La1 La 0.08811(6) 0.666592(18) 0.464943(17)
C1 C 0.2178(11) 0.7481(3) 0.7021(3)
C2 C 0.0587(11) 0.6942(4) 0.6862(3)
H1 H -0.0710 0.7063 0.6561
C3 C 0.0803(11) 0.6233(4) 0.7121(3)
C4 C 0.2678(11) 0.6056(3) 0.7571(3)
C5 C 0.4241(12) 0.6594(3) 0.7737(3)
H2 H 0.5519 0.6475 0.8047
C6 C 0.4045(11) 0.7301(3) 0.7474(3)
C7 C 0.1846(12) 0.8220(3) 0.6680(3)
H3 H 0.2549 0.8596 0.7001
H4 H 0.0232 0.8327 0.6603
C8 C -0.0972(11) 0.5675(3) 0.6863(3)
H5 H -0.2447 0.5916 0.6802
H6 H -0.1032 0.5286 0.7221
C9 C 0.3065(12) 0.5302(3) 0.7891(3)
H7 H 0.4685 0.5200 0.7946
H8 H 0.2347 0.4934 0.7562
C10 C 0.5919(10) 0.7837(3) 0.7714(3)
H9 H 0.7303 0.7557 0.7840
H10 H 0.6181 0.8158 0.7312
P1 P 0.1984(3) 0.52072(9) 0.87363(8)
P2 P -0.0379(3) 0.52738(8) 0.60359(8)
P3 P 0.5394(3) 0.83947(8) 0.84471(8)
P4 P 0.3032(3) 0.82605(8) 0.58503(9)
O1 O 0.2814(8) 0.5827(3) 0.9209(2)
O2 O -0.0600(8) 0.5283(3) 0.8545(2)
O3 O 0.2527(9) 0.4468(3) 0.9040(3)
O4 O -0.0748(7) 0.5836(2) 0.5460(2)
O5 O -0.1705(8) 0.4573(2) 0.5927(2)
O6 O 0.2188(7) 0.5066(2) 0.6120(2)
O7 O 0.7637(7) 0.8663(2) 0.8793(2)
O8 O 0.4052(8) 0.9067(2) 0.8115(2)
O9 O 0.4024(7) 0.8018(2) 0.8960(2)
O10 O 0.5610(8) 0.8296(2) 0.6005(3)
O11 O 0.2413(9) 0.7605(3) 0.5414(2)
O12 O 0.2201(9) 0.8988(3) 0.5505(2)
O13 O 0.4299(8) 0.6084(3) 0.5356(3)
O14 O 0.0002(8) 0.7863(2) 0.3942(2)
O15 O -0.2598(8) 0.7312(3) 0.5038(3)
La1B La -0.08811(6) 0.333408(18) 0.535057(17)
La1C La 0.08811(6) 0.833408(18) 0.964943(17)
La1C_2 La 1.08811(6) 0.833408(18) 0.964943(17)
O5B O 0.1705(8) 0.5427(2) 0.4073(2)
O7C O -0.2363(7) 0.6337(2) 0.3793(2)
O9C O 0.4024(7) 0.6982(2) 0.3960(2)
O16 O 0.7359(9) 0.5951(3) 0.9513(3)
loop_
_geom_bond_atom_site_label_1
_geom_bond_atom_site_label_2
_geom_bond_site_symmetry_1
_geom_bond_site_symmetry_2
La1 O4 1_555 1_555
C1 C2 1_555 1_555
C2 H1 1_555 1_555
C3 C2 1_555 1_555
C4 C3 1_555 1_555
C5 C4 1_555 1_555
H2 C5 1_555 1_555
C6 C1 1_555 1_555
C7 C1 1_555 1_555
H3 C7 1_555 1_555
H4 C7 1_555 1_555
C8 C3 1_555 1_555
H5 C8 1_555 1_555
H6 C8 1_555 1_555
C9 C4 1_555 1_555
H7 C9 1_555 1_555
H8 C9 1_555 1_555
C10 C6 1_555 1_555
H9 C10 1_555 1_555
H10 C10 1_555 1_555
P1 C9 1_555 1_555
P2 C8 1_555 1_555
P3 C10 1_555 1_555
P4 C7 1_555 1_555
O1 P1 1_555 1_555
O2 P1 1_555 1_555
O3 P1 1_555 1_555
O4 P2 1_555 1_555
O5 P2 1_555 1_555
O6 P2 1_555 1_555
O7 P3 1_555 1_555
O8 P3 1_555 1_555
O9 P3 1_555 1_555
O10 P4 1_555 1_555
O11 La1 1_555 1_555
O12 P4 1_555 1_555
O13 La1 1_555 1_555
O14 La1 1_555 1_555
O15 La1 1_555 1_555
La1B O5 1_555 1_555
La1C O9 1_555 1_555
La1C_2 O7 1_555 1_555
O5B La1 1_555 1_555
O7C La1 1_555 1_555
O9C La1 1_555 1_555
C5 C6 1_555 1_555
P4 O11 1_555 1_555

#END
