
#######################################################################
#
#                 Cambridge Crystallographic Data Centre
#                                CCDC 
#
#######################################################################
#
# If this CIF has been generated from an entry in the Cambridge 
# Structural Database, then it will include bibliographic, chemical, 
# crystal, experimental, refinement or atomic coordinate data resulting 
# from the CCDC's data processing and validation procedures.
#
#######################################################################

data_YOVXEO
_chemical_formula_moiety         '(C39 H28 Co1 N5 O7 P1)n,C1 H1 Cl3'
_chemical_name_systematic        
"catena-((\m-4'-(4'-(diphenylphosphoryl)biphenyl-4-yl)-4,2':6',4''-terpyridine)-bis(nitrato)-cobalt chloroform solvate)"
_symmetry_cell_setting           orthorhombic
_symmetry_space_group_name_H-M   'P n a 21'
_symmetry_Int_Tables_number      33
_space_group_name_Hall           'P 2c -2n'
loop_
_symmetry_equiv_pos_site_id
_symmetry_equiv_pos_as_xyz
1 x,y,z
2 -x,-y,1/2+z
3 1/2+x,1/2-y,z
4 1/2-x,1/2+y,1/2+z
_cell_length_a                   23.8620(6)
_cell_length_b                   8.59300(10)
_cell_length_c                   19.0584(5)
_cell_angle_alpha                90
_cell_angle_beta                 90
_cell_angle_gamma                90
_cell_volume                     3907.85
_exptl_crystal_colour            pink
_exptl_crystal_description       Block
_cell_formula_units_Z            4
_exptl_crystal_recrystallization_method acetonitrile/chloroform
loop_
_atom_site_label
_atom_site_type_symbol
_atom_site_fract_x
_atom_site_fract_y
_atom_site_fract_z
_atom_site_U_iso_or_equiv
_atom_site_thermal_displace_type
Co1 Co 0.34376(5) -0.30267(11) 0.48375(7) 0.0266 Uani
P1 P 0.59872(8) 1.4734(2) 0.13466(11) 0.0282 Uani
N1 N 0.4030(2) -0.1198(6) 0.4823(4) 0.0293 Uani
N2 N 0.5847(2) 0.1568(5) 0.4724(3) 0.0243 Uani
N3 N 0.7797(2) -0.0264(6) 0.4822(4) 0.0310 Uani
N4 N 0.2589(3) -0.0998(7) 0.5108(4) 0.0357 Uani
N5 N 0.3779(3) -0.3889(9) 0.3563(4) 0.0430 Uani
C1 C 0.3908(3) 0.0277(9) 0.4647(6) 0.0460 Uani
H1 H 0.3530 0.0537 0.4545 0.0550 Uiso
C2 C 0.4314(3) 0.1442(8) 0.4606(5) 0.0347 Uani
H2 H 0.4208 0.2484 0.4505 0.0420 Uiso
C3 C 0.4864(3) 0.1071(7) 0.4715(4) 0.0220 Uani
C4 C 0.4992(3) -0.0462(7) 0.4907(4) 0.0297 Uani
H3 H 0.5367 -0.0752 0.5015 0.0360 Uiso
C5 C 0.4571(3) -0.1529(7) 0.4937(5) 0.0327 Uani
H4 H 0.4666 -0.2575 0.5044 0.0390 Uiso
C6 C 0.5344(3) 0.2184(7) 0.4612(4) 0.0220 Uani
C7 C 0.5278(3) 0.3703(7) 0.4371(4) 0.0237 Uani
H5 H 0.4914 0.4121 0.4305 0.0280 Uiso
C8 C 0.5743(3) 0.4598(7) 0.4229(4) 0.0250 Uani
C9 C 0.6264(3) 0.3934(8) 0.4313(4) 0.0250 Uani
H6 H 0.6593 0.4496 0.4192 0.0300 Uiso
C10 C 0.6302(3) 0.2419(8) 0.4580(4) 0.0243 Uani
C11 C 0.6844(3) 0.1612(7) 0.4686(4) 0.0263 Uani
C12 C 0.7305(3) 0.1819(8) 0.4269(5) 0.0320 Uani
H7 H 0.7304 0.2620 0.3925 0.0380 Uiso
C13 C 0.7765(3) 0.0895(8) 0.4339(5) 0.0367 Uani
H8 H 0.8077 0.1069 0.4039 0.0440 Uiso
C14 C 0.7362(3) -0.0400(8) 0.5251(5) 0.0297 Uani
H9 H 0.7384 -0.1140 0.5621 0.0360 Uiso
C15 C 0.6883(3) 0.0463(8) 0.5193(4) 0.0303 Uani
H10 H 0.6577 0.0275 0.5501 0.0360 Uiso
C16 C 0.5715(3) 0.6217(7) 0.3934(4) 0.0243 Uani
C17 C 0.5251(3) 0.6715(7) 0.3565(4) 0.0247 Uani
H11 H 0.4927 0.6074 0.3538 0.0300 Uiso
C18 C 0.5257(3) 0.8179(7) 0.3227(4) 0.0263 Uani
H12 H 0.4936 0.8523 0.2978 0.0320 Uiso
C19 C 0.5721(3) 0.9100(7) 0.3256(4) 0.0250 Uani
C20 C 0.6174(3) 0.8635(8) 0.3647(5) 0.0317 Uani
H13 H 0.6497 0.9280 0.3670 0.0380 Uiso
C21 C 0.6165(3) 0.7224(7) 0.4010(4) 0.0260 Uani
H14 H 0.6468 0.6953 0.4310 0.0310 Uiso
C22 C 0.5765(3) 1.0545(8) 0.2817(4) 0.0297 Uani
C23 C 0.5355(3) 1.1653(7) 0.2798(4) 0.0273 Uani
H15 H 0.5029 1.1527 0.3079 0.0330 Uiso
C24 C 0.5407(3) 1.2974(8) 0.2372(4) 0.0310 Uani
H16 H 0.5125 1.3753 0.2377 0.0370 Uiso
C25 C 0.5883(3) 1.3143(8) 0.1931(4) 0.0317 Uani
C26 C 0.6279(3) 1.1965(8) 0.1955(5) 0.0327 Uani
H17 H 0.6595 1.2033 0.1653 0.0400 Uiso
C27 C 0.6238(3) 1.0709(8) 0.2393(5) 0.0343 Uani
H18 H 0.6529 0.9954 0.2408 0.0410 Uiso
C28 C 0.5348(3) 1.5870(9) 0.1329(4) 0.0353 Uani
C29 C 0.4847(4) 1.5162(10) 0.1164(5) 0.0417 Uani
H19 H 0.4846 1.4099 0.1026 0.0500 Uiso
C30 C 0.4349(4) 1.5961(11) 0.1193(5) 0.0523 Uani
H20 H 0.4005 1.5447 0.1095 0.0630 Uiso
C31 C 0.4355(5) 1.7543(12) 0.1369(5) 0.0557 Uani
H21 H 0.4014 1.8112 0.1387 0.0670 Uiso
C32 C 0.4851(4) 1.8270(11) 0.1514(5) 0.0543 Uani
H22 H 0.4852 1.9348 0.1624 0.0650 Uiso
C33 C 0.5347(4) 1.7469(9) 0.1501(5) 0.0450 Uani
H23 H 0.5688 1.7986 0.1608 0.0540 Uiso
C34 C 0.6554(4) 1.5896(8) 0.1705(4) 0.0327 Uani
C35 C 0.6814(4) 1.6956(8) 0.1280(5) 0.0410 Uani
H24 H 0.6680 1.7134 0.0818 0.0490 Uiso
C36 C 0.7282(4) 1.7781(9) 0.1531(5) 0.0500 Uani
H25 H 0.7479 1.8480 0.1234 0.0600 Uiso
C37 C 0.7454(4) 1.7552(10) 0.2231(6) 0.0520 Uani
H26 H 0.7762 1.8128 0.2412 0.0630 Uiso
C38 C 0.7184(4) 1.6515(11) 0.2649(6) 0.0540 Uani
H27 H 0.7313 1.6348 0.3114 0.0650 Uiso
C39 C 0.6719(4) 1.5689(9) 0.2403(5) 0.0407 Uani
H28 H 0.6520 1.5001 0.2703 0.0490 Uiso
O1 O 0.6136(2) 1.4194(6) 0.0633(3) 0.0333 Uani
O2 O 0.3948(2) -0.4451(7) 0.4126(3) 0.0373 Uani
O3 O 0.3425(3) -0.2749(9) 0.3636(5) 0.0740 Uani
O4 O 0.3944(3) -0.4322(11) 0.2992(4) 0.0863 Uani
O5 O 0.2951(2) -0.1550(6) 0.5525(4) 0.0413 Uani
O6 O 0.2185(3) -0.0287(8) 0.5360(5) 0.0747 Uani
O7 O 0.2629(3) -0.1215(9) 0.4480(4) 0.0697 Uani
Co1A Co 0.65624(5) 1.30267(11) -0.01625(7) 0.0266 Uani
Co1B Co 0.84376(5) -0.19733(11) 0.48375(7) 0.0266 Uani
N3B N 0.2797(2) -0.4736(6) 0.4822(4) 0.0310 Uani
O1A O 0.3864(2) -0.4194(6) 0.5633(3) 0.0333 Uani
C40 C 0.1443(5) 0.7438(14) 0.7279(8) 0.0760 Uani
H29 H 0.1235 0.8330 0.7493 0.0910 Uiso
Cl1 Cl 0.21290(19) 0.7976(5) 0.7155(3) 0.1310 Uani
Cl2 Cl 0.1407(2) 0.5826(7) 0.7854(3) 0.1583 Uani
Cl3 Cl 0.11167(16) 0.6915(3) 0.6502(2) 0.0952 Uani
loop_
_atom_site_aniso_label
_atom_site_aniso_U_11
_atom_site_aniso_U_22
_atom_site_aniso_U_33
_atom_site_aniso_U_23
_atom_site_aniso_U_13
_atom_site_aniso_U_12
Co1 0.0311(6) 0.0234(5) 0.0253(6) 0.0004(6) -0.0003(6) -0.0086(4)
P1 0.0398(10) 0.0261(8) 0.0186(9) 0.0025(9) 0.0014(10) -0.0049(8)
N1 0.034(3) 0.025(3) 0.029(4) 0.004(3) 0.008(4) -0.006(2)
N2 0.030(3) 0.019(3) 0.024(4) 0.001(3) -0.004(3) -0.001(2)
N3 0.028(3) 0.025(3) 0.040(4) -0.005(4) -0.002(4) 0.010(2)
N4 0.042(4) 0.032(3) 0.033(4) 0.003(3) -0.004(4) -0.005(3)
N5 0.043(4) 0.060(5) 0.026(5) -0.011(4) 0.012(4) -0.015(4)
C1 0.032(4) 0.040(4) 0.066(7) 0.009(5) -0.009(5) -0.005(3)
C2 0.039(4) 0.023(3) 0.042(5) 0.007(3) 0.000(4) -0.007(3)
C3 0.023(3) 0.026(3) 0.017(4) 0.004(3) 0.001(3) -0.004(3)
C4 0.032(4) 0.031(4) 0.026(4) 0.006(4) 0.001(4) 0.002(3)
C5 0.034(4) 0.024(3) 0.040(5) 0.002(4) 0.009(4) 0.000(3)
C6 0.025(4) 0.024(3) 0.017(4) -0.002(3) -0.003(3) 0.003(3)
C7 0.027(4) 0.024(3) 0.020(4) -0.001(3) -0.004(3) -0.001(3)
C8 0.035(4) 0.022(3) 0.018(4) 0.005(3) -0.001(4) -0.003(3)
C9 0.025(4) 0.020(3) 0.030(4) 0.008(3) -0.004(4) -0.005(3)
C10 0.028(4) 0.023(3) 0.022(4) -0.002(3) 0.002(3) -0.006(3)
C11 0.021(3) 0.017(3) 0.041(5) -0.002(3) -0.003(4) 0.001(3)
C12 0.034(4) 0.024(3) 0.038(5) 0.011(4) 0.005(4) -0.001(3)
C13 0.029(4) 0.031(4) 0.050(5) 0.006(4) 0.009(4) 0.010(3)
C14 0.028(4) 0.032(4) 0.029(4) 0.003(4) 0.002(4) 0.009(3)
C15 0.038(4) 0.028(4) 0.025(4) 0.001(4) 0.003(4) 0.004(3)
C16 0.030(4) 0.019(3) 0.024(4) 0.000(3) 0.001(4) 0.003(3)
C17 0.020(4) 0.027(4) 0.027(4) 0.002(3) 0.006(3) 0.001(3)
C18 0.035(4) 0.020(3) 0.024(4) 0.005(3) 0.001(3) 0.003(3)
C19 0.032(4) 0.017(3) 0.026(4) 0.006(3) 0.000(4) 0.002(3)
C20 0.034(4) 0.020(3) 0.041(5) -0.005(4) -0.002(4) -0.010(3)
C21 0.023(4) 0.019(3) 0.036(5) 0.004(3) -0.004(3) -0.001(3)
C22 0.044(5) 0.021(3) 0.024(4) 0.001(3) 0.000(4) 0.001(3)
C23 0.039(4) 0.021(3) 0.022(4) 0.005(3) 0.008(4) 0.002(3)
C24 0.039(4) 0.028(4) 0.026(4) -0.002(4) 0.003(4) 0.009(3)
C25 0.040(4) 0.028(4) 0.027(4) -0.004(4) -0.003(4) 0.005(3)
C26 0.039(4) 0.029(4) 0.030(4) 0.005(4) 0.005(4) 0.004(3)
C27 0.046(5) 0.023(4) 0.034(5) 0.005(4) 0.008(4) 0.005(3)
C28 0.048(5) 0.042(4) 0.016(4) -0.001(4) 0.005(4) -0.002(4)
C29 0.057(6) 0.036(4) 0.032(5) 0.008(4) 0.002(4) 0.004(4)
C30 0.053(6) 0.063(6) 0.041(6) 0.017(5) 0.005(5) 0.018(5)
C31 0.069(7) 0.071(6) 0.027(5) 0.009(5) 0.005(6) 0.032(5)
C32 0.073(7) 0.050(5) 0.040(6) 0.006(5) 0.000(5) 0.033(5)
C33 0.075(6) 0.036(4) 0.024(5) -0.006(4) -0.007(5) 0.015(4)
C34 0.052(5) 0.022(3) 0.024(4) -0.003(3) 0.001(4) -0.008(3)
C35 0.064(5) 0.024(4) 0.035(5) 0.004(4) 0.002(5) -0.011(4)
C36 0.078(7) 0.030(4) 0.042(6) -0.002(4) 0.019(5) -0.016(4)
C37 0.058(6) 0.038(5) 0.060(7) -0.016(5) -0.010(6) -0.020(4)
C38 0.065(6) 0.046(5) 0.051(6) -0.005(5) -0.026(6) 0.009(5)
C39 0.061(6) 0.035(4) 0.026(5) -0.004(4) 0.003(4) -0.010(4)
O1 0.042(3) 0.040(3) 0.018(3) 0.007(2) 0.003(3) -0.016(2)
O2 0.035(3) 0.048(3) 0.029(4) -0.006(3) 0.004(3) -0.006(2)
O3 0.064(4) 0.081(5) 0.077(6) -0.002(5) -0.020(5) 0.006(4)
O4 0.082(6) 0.136(8) 0.041(5) -0.033(5) 0.018(5) -0.043(5)
O5 0.037(3) 0.026(3) 0.061(4) -0.003(3) -0.003(3) -0.003(2)
O6 0.060(4) 0.071(5) 0.093(7) -0.019(5) -0.020(4) 0.027(4)
O7 0.084(5) 0.085(5) 0.040(5) 0.001(4) 0.006(4) -0.040(4)
Co1A 0.0311 0.0234 0.0253 -0.0004 0.0003 -0.0086
Co1B 0.0311 0.0234 0.0253 -0.0004 -0.0003 0.0086
N3B 0.028 0.025 0.04 0.005 -0.002 -0.01
O1A 0.042 0.04 0.018 -0.007 -0.003 -0.016
C40 0.085(8) 0.075(7) 0.068(8) -0.007(6) 0.027(7) 0.005(6)
Cl1 0.098(3) 0.117(3) 0.178(5) -0.023(3) 0.034(3) -0.040(2)
Cl2 0.148(4) 0.206(5) 0.121(4) 0.082(4) 0.018(3) -0.005(4)
Cl3 0.122(3) 0.0685(16) 0.095(3) -0.0217(17) -0.019(2) 0.0246(17)
loop_
_geom_bond_atom_site_label_1
_geom_bond_atom_site_label_2
_geom_bond_site_symmetry_1
_geom_bond_site_symmetry_2
Co1 N1 1_555 1_555
P1 C25 1_555 1_555
N1 C1 1_555 1_555
N2 C6 1_555 1_555
N3 C13 1_555 1_555
N4 O5 1_555 1_555
N5 O2 1_555 1_555
C1 H1 1_555 1_555
C2 C1 1_555 1_555
H2 C2 1_555 1_555
C3 C2 1_555 1_555
C4 C3 1_555 1_555
H3 C4 1_555 1_555
C5 N1 1_555 1_555
H4 C5 1_555 1_555
C6 C3 1_555 1_555
C7 C6 1_555 1_555
H5 C7 1_555 1_555
C8 C7 1_555 1_555
C9 C8 1_555 1_555
H6 C9 1_555 1_555
C10 N2 1_555 1_555
C11 C10 1_555 1_555
C12 C11 1_555 1_555
H7 C12 1_555 1_555
C13 C12 1_555 1_555
H8 C13 1_555 1_555
C14 N3 1_555 1_555
H9 C14 1_555 1_555
C15 C11 1_555 1_555
H10 C15 1_555 1_555
C16 C8 1_555 1_555
C17 C16 1_555 1_555
H11 C17 1_555 1_555
C18 C17 1_555 1_555
H12 C18 1_555 1_555
C19 C18 1_555 1_555
C20 C19 1_555 1_555
H13 C20 1_555 1_555
C21 C16 1_555 1_555
H14 C21 1_555 1_555
C22 C19 1_555 1_555
C23 C22 1_555 1_555
H15 C23 1_555 1_555
C24 C23 1_555 1_555
H16 C24 1_555 1_555
C25 C24 1_555 1_555
C26 C25 1_555 1_555
H17 C26 1_555 1_555
C27 C22 1_555 1_555
H18 C27 1_555 1_555
C28 P1 1_555 1_555
C29 C28 1_555 1_555
H19 C29 1_555 1_555
C30 C29 1_555 1_555
H20 C30 1_555 1_555
C31 C30 1_555 1_555
H21 C31 1_555 1_555
C32 C31 1_555 1_555
H22 C32 1_555 1_555
C33 C28 1_555 1_555
H23 C33 1_555 1_555
C34 P1 1_555 1_555
C35 C34 1_555 1_555
H24 C35 1_555 1_555
C36 C35 1_555 1_555
H25 C36 1_555 1_555
C37 C36 1_555 1_555
H26 C37 1_555 1_555
C38 C37 1_555 1_555
H27 C38 1_555 1_555
C39 C34 1_555 1_555
H28 C39 1_555 1_555
O1 P1 1_555 1_555
O2 Co1 1_555 1_555
O3 Co1 1_555 1_555
O4 N5 1_555 1_555
O5 Co1 1_555 1_555
O6 N4 1_555 1_555
O7 N4 1_555 1_555
C40 H29 1_555 1_555
Cl1 C40 1_555 1_555
Cl2 C40 1_555 1_555
Cl3 C40 1_555 1_555
Co1A O1 1_555 1_555
Co1B N3 1_555 1_555
N3B Co1 1_555 1_555
O1A Co1 1_555 1_555
N5 O3 1_555 1_555
C4 C5 1_555 1_555
C9 C10 1_555 1_555
C14 C15 1_555 1_555
C20 C21 1_555 1_555
C26 C27 1_555 1_555
C32 C33 1_555 1_555
C38 C39 1_555 1_555

#END
