
#######################################################################
#
#                 Cambridge Crystallographic Data Centre
#                                CCDC 
#
#######################################################################
#
# If this CIF has been generated from an entry in the Cambridge 
# Structural Database, then it will include bibliographic, chemical, 
# crystal, experimental, refinement or atomic coordinate data resulting 
# from the CCDC's data processing and validation procedures.
#
#######################################################################

data_GAYTEH
_chemical_formula_moiety         
'(C36 H22 Cu6 N6 O21 2-)n,2n(Na1 1+),11.5n(H2 O1)'
_chemical_name_systematic        
"catena-(Di-sodium bis(\m~4~-benzene-1,3,5-tricarboxylato)-(\m~4~-hydrogen benzene-1,3,5-tricarboxylato)-tris(\m~2~-hydroxo)-tris(\m~2~-pyrazolato-N,N')-hexa-copper hydrate)"
_symmetry_cell_setting           cubic
_symmetry_space_group_name_H-M   'P a -3'
_symmetry_Int_Tables_number      205
_space_group_name_Hall           '-P 2ac 2ab 3'
loop_
_symmetry_equiv_pos_site_id
_symmetry_equiv_pos_as_xyz
1 x,y,z
2 1/2-x,-y,1/2+z
3 -x,1/2+y,1/2-z
4 1/2+x,1/2-y,-z
5 z,x,y
6 1/2+z,1/2-x,-y
7 1/2-z,-x,1/2+y
8 -z,1/2+x,1/2-y
9 y,z,x
10 -y,1/2+z,1/2-x
11 1/2+y,1/2-z,-x
12 1/2-y,-z,1/2+x
13 -x,-y,-z
14 1/2+x,y,1/2-z
15 x,1/2-y,1/2+z
16 1/2-x,1/2+y,z
17 -z,-x,-y
18 1/2-z,1/2+x,y
19 1/2+z,x,1/2-y
20 z,1/2-x,1/2+y
21 -y,-z,-x
22 y,1/2-z,1/2+x
23 1/2-y,1/2+z,x
24 1/2+y,z,1/2-x
_cell_length_a                   24.3984(7)
_cell_length_b                   24.3984(7)
_cell_length_c                   24.3984(7)
_cell_angle_alpha                90
_cell_angle_beta                 90
_cell_angle_gamma                90
_cell_volume                     14523.9
_exptl_crystal_colour            blue
_exptl_crystal_description       block
_cell_formula_units_Z            8
loop_
_atom_site_label
_atom_site_type_symbol
_atom_site_fract_x
_atom_site_fract_y
_atom_site_fract_z
_atom_site_U_iso_or_equiv
_atom_site_thermal_displace_type
Cu1 Cu 0.78169(3) 0.10923(3) 0.06471(3) 0.0267 Uani
Cu2 Cu 1.00803(3) 0.15265(3) -0.19746(3) 0.0271 Uani
O1 O 0.80422(17) 0.10490(16) -0.01226(15) 0.0290 Uani
O2 O 0.7264(2) 0.0627(3) -0.0287(2) 0.0670 Uani
O3 O 0.93839(16) 0.13081(17) -0.16429(17) 0.0310 Uani
O4 O 0.73521(18) 0.0266(2) -0.28437(18) 0.0430 Uani
O5 O 0.9176(2) 0.1010(3) -0.2471(2) 0.0703 Uani
O6 O 0.66735(17) 0.04946(18) -0.22713(17) 0.0367 Uani
O7 O 0.81379(19) 0.04013(17) 0.08234(17) 0.0367 Uani
H1 H 0.829(2) 0.0217(13) 0.0573(10) 0.0440 Uiso
N1 N 0.7791(2) 0.0794(2) 0.1789(2) 0.0373 Uani
N2 N 0.7705(2) 0.1211(2) 0.1431(2) 0.0380 Uani
C1 C 0.7849(2) 0.0803(2) -0.1044(2) 0.0293 Uani
C2 C 0.7700(3) 0.0823(3) -0.0441(3) 0.0343 Uani
C3 C 0.8502(2) 0.0920(3) -0.1774(2) 0.0313 Uani
C4 C 0.8371(2) 0.0953(2) -0.1223(2) 0.0300 Uani
H2 H 0.8630 0.1076 -0.0973 0.0360 Uiso
C5 C 0.7459(2) 0.0630(2) -0.1423(2) 0.0300 Uani
H3 H 0.7109 0.0535 -0.1306 0.0360 Uiso
C6 C 0.7591(2) 0.0599(2) -0.1975(2) 0.0290 Uani
C7 C 0.7174(3) 0.0437(2) -0.2394(2) 0.0307 Uani
C8 C 0.8112(2) 0.0737(3) -0.2147(2) 0.0333 Uani
H4 H 0.8202 0.0708 -0.2517 0.0400 Uiso
C9 C 0.9056(3) 0.1088(3) -0.1979(3) 0.0373 Uani
C10 C 0.7610(4) 0.1661(3) 0.1727(3) 0.0660 Uani
H5 H 0.7530 0.2004 0.1580 0.0790 Uiso
C11 C 0.7757(4) 0.1003(4) 0.2299(3) 0.0627 Uani
H6 H 0.7803 0.0802 0.2619 0.0750 Uiso
C12 C 0.7645(5) 0.1549(4) 0.2280(3) 0.0770 Uani
H7 H 0.7603 0.1791 0.2572 0.0920 Uiso
Cu1Q Cu 0.43529(3) 0.28169(3) 0.10923(3) 0.0267 Uani
Cu1W Cu 0.60923(3) 0.06471(3) -0.28169(3) 0.0267 Uani
Cu1I Cu 0.89077(3) 0.56471(3) -0.28169(3) 0.0267 Uani
Cu1P Cu 0.93529(3) 0.21831(3) -0.10923(3) 0.0267 Uani
Cu1H Cu 1.10923(3) 0.06471(3) -0.21831(3) 0.0267 Uani
Cu2Q Cu 0.69746(3) 0.50803(3) 0.15265(3) 0.0271 Uani
Cu2F Cu 0.69746(3) -0.00803(3) -0.34735(3) 0.0271 Uani
Cu2D Cu 0.80254(3) 0.00803(3) 0.15265(3) 0.0271 Uani
Cu2T Cu 0.84735(3) 0.19746(3) -0.00803(3) 0.0271 Uani
Cu2I Cu 0.84735(3) 0.30254(3) -0.50803(3) 0.0271 Uani
Cu2V Cu 0.34735(3) 0.30254(3) 0.00803(3) 0.0271 Uani
O1Q O 0.51226(15) 0.30422(17) 0.10490(16) 0.0290 Uani
O1I O 0.89510(16) 0.48774(15) -0.30422(17) 0.0290 Uani
O1W O 0.60490(16) -0.01226(15) -0.30422(17) 0.0290 Uani
O2Q O 0.5287(2) 0.2264(2) 0.0627(3) 0.0670 Uani
O2I O 0.9373(3) 0.4713(2) -0.2264(2) 0.0670 Uani
O3Q O 0.66429(17) 0.43839(16) 0.13081(17) 0.0310 Uani
O3I O 0.86919(17) 0.33571(17) -0.43839(16) 0.0310 Uani
O3F O 0.66429(17) 0.06161(16) -0.36919(17) 0.0310 Uani
O4Q O 0.78437(18) 0.23521(18) 0.0266(2) 0.0430 Uani
O4I O 0.9734(2) 0.21563(18) -0.23521(18) 0.0430 Uani
O4N O 0.73521(18) 0.4734(2) 0.21563(18) 0.0430 Uani
O5Q O 0.7471(2) 0.4176(2) 0.1010(3) 0.0703 Uani
O5I O 0.8990(3) 0.2529(2) -0.4176(2) 0.0703 Uani
O6Q O 0.72713(17) 0.16735(17) 0.04946(18) 0.0367 Uani
O6I O 0.95054(18) 0.27287(17) -0.16735(17) 0.0367 Uani
O6K O 0.45054(18) 0.22713(17) 0.16735(17) 0.0367 Uani
O7H O 1.04013(17) 0.08234(17) -0.18621(19) 0.0367 Uani
O7Q O 0.41766(17) 0.31379(19) 0.04013(17) 0.0367 Uani
O7W O 0.54013(17) 0.08234(17) -0.31379(19) 0.0367 Uani
O7O O 0.68621(19) 0.54013(17) 0.08234(17) 0.0367 Uani
O7A O 0.68621(19) -0.04013(17) -0.41766(17) 0.0367 Uani
H1H H 1.0217(13) 0.0573(10) -0.171(2) 0.0440 Uiso
H1Q H 0.4427(10) 0.329(2) 0.0217(13) 0.0440 Uiso
H1W H 0.5217(13) 0.0573(10) -0.329(2) 0.0440 Uiso
H1O H 0.671(2) 0.5217(13) 0.0573(10) 0.0440 Uiso
H1A H 0.671(2) -0.0217(13) -0.4427(10) 0.0440 Uiso
N1H N 1.0794(2) 0.1789(2) -0.2209(2) 0.0373 Uani
N1Q N 0.3211(2) 0.2791(2) 0.0794(2) 0.0373 Uani
N1O N 0.7209(2) 0.5794(2) 0.1789(2) 0.0373 Uani
N1A N 0.7209(2) -0.0794(2) -0.3211(2) 0.0373 Uani
N2H N 1.1211(2) 0.1431(2) -0.2295(2) 0.0380 Uani
N2Q N 0.3569(2) 0.2705(2) 0.1211(2) 0.0380 Uani
N2W N 0.6211(2) 0.1431(2) -0.2705(2) 0.0380 Uani
C1Q C 0.6044(2) 0.2849(2) 0.0803(2) 0.0293 Uani
C1I C 0.9197(2) 0.3956(2) -0.2849(2) 0.0293 Uani
C2Q C 0.5441(3) 0.2700(3) 0.0823(3) 0.0343 Uani
C2I C 0.9177(3) 0.4559(3) -0.2700(3) 0.0343 Uani
C3Q C 0.6774(2) 0.3502(2) 0.0920(3) 0.0313 Uani
C3I C 0.9080(3) 0.3226(2) -0.3502(2) 0.0313 Uani
C4Q C 0.6223(2) 0.3371(2) 0.0953(2) 0.0300 Uani
C4I C 0.9047(2) 0.3777(2) -0.3371(2) 0.0300 Uani
H2Q H 0.5973 0.3630 0.1076 0.0360 Uiso
H2I H 0.8924 0.4027 -0.3630 0.0360 Uiso
C5Q C 0.6423(2) 0.2459(2) 0.0630(2) 0.0300 Uani
C5I C 0.9370(2) 0.3577(2) -0.2459(2) 0.0300 Uani
H3Q H 0.6306 0.2109 0.0535 0.0360 Uiso
H3I H 0.9465 0.3694 -0.2109 0.0360 Uiso
C6Q C 0.6975(2) 0.2591(2) 0.0599(2) 0.0290 Uani
C6I C 0.9401(2) 0.3025(2) -0.2591(2) 0.0290 Uani
C7Q C 0.7394(2) 0.2174(3) 0.0437(2) 0.0307 Uani
C7I C 0.9563(2) 0.2606(2) -0.2174(3) 0.0307 Uani
C8Q C 0.7147(2) 0.3112(2) 0.0737(3) 0.0333 Uani
C8I C 0.9263(3) 0.2853(2) -0.3112(2) 0.0333 Uani
H4Q H 0.7517 0.3202 0.0708 0.0400 Uiso
H4I H 0.9292 0.2483 -0.3202 0.0400 Uiso
C9Q C 0.6979(3) 0.4056(3) 0.1088(3) 0.0373 Uani
C9I C 0.8912(3) 0.3021(3) -0.4056(3) 0.0373 Uani
C10H C 1.1661(3) 0.1727(3) -0.2390(4) 0.0660 Uani
C10Q C 0.3273(3) 0.2610(4) 0.1661(3) 0.0660 Uani
H5H H 1.2004 0.1580 -0.2470 0.0790 Uiso
H5Q H 0.3420 0.2530 0.2004 0.0790 Uiso
C11H C 1.1003(4) 0.2299(3) -0.2243(4) 0.0627 Uani
C11Q C 0.2701(3) 0.2757(4) 0.1003(4) 0.0627 Uani
H6H H 1.0802 0.2619 -0.2197 0.0750 Uiso
H6Q H 0.2381 0.2803 0.0802 0.0750 Uiso
C12H C 1.1549(4) 0.2280(3) -0.2355(5) 0.0770 Uani
C12Q C 0.2720(3) 0.2645(5) 0.1549(4) 0.0770 Uani
H7H H 1.1791 0.2572 -0.2397 0.0920 Uiso
H7Q H 0.2428 0.2603 0.1791 0.0920 Uiso
Na1 Na 0.9244(5) 0.0772(6) -0.3384(5) 0.0897 Uani
O8 O 0.8435(15) 0.0132(15) -0.3476(15) 0.1710 Uiso
O9 O 0.8571(6) 0.1429(6) -0.3571(6) 0.2010 Uiso
O10 O 0.9349(6) 0.0651(6) -0.4349(6) 0.2230 Uiso
O11 O 0.9449(17) -0.0109(17) -0.2980(17) 0.1980 Uiso
O12 O 1.0179(19) 0.0627(19) -0.3264(19) 0.2220 Uiso
O13 O 1.1265(15) 0.1294(15) -0.4543(15) 0.1720 Uiso
O14 O 0.8474(12) -0.0372(12) -0.0130(13) 0.1390 Uiso
Na2? Na 0.9828(9) 0.0807(10) -0.0643(10) 0.0763 Uani
Na3? Na 1.0996(11) 0.1004(13) -0.3598(11) 0.1033 Uani
loop_
_atom_site_aniso_label
_atom_site_aniso_U_11
_atom_site_aniso_U_22
_atom_site_aniso_U_33
_atom_site_aniso_U_23
_atom_site_aniso_U_13
_atom_site_aniso_U_12
Cu1 0.0352(4) 0.0217(4) 0.0231(4) 0.0009(3) 0.0035(3) 0.0055(3)
Cu2 0.0246 0.0249 0.0317 0.0042 0.0019 0.005
O1 0.036(2) 0.031(2) 0.020(2) -0.0018(17) -0.0048(18) 0.0010(19)
O2 0.054(3) 0.107(5) 0.040(3) -0.011(3) 0.011(3) -0.040(3)
O3 0.022(2) 0.038(2) 0.033(2) -0.0066(19) -0.0037(18) -0.0005(18)
O4 0.036(3) 0.058(3) 0.035(3) -0.021(2) -0.006(2) -0.005(2)
O5 0.047(3) 0.126(5) 0.038(3) -0.031(3) 0.013(2) -0.028(3)
O6 0.027(2) 0.048(3) 0.035(2) -0.003(2) -0.0073(19) 0.002(2)
O7 0.056(3) 0.026(2) 0.028(2) 0.0037(18) 0.013(2) 0.013(2)
N1 0.049(3) 0.037(3) 0.026(3) 0.000(2) 0.007(2) 0.009(3)
N2 0.054(4) 0.032(3) 0.028(3) -0.001(2) 0.008(3) 0.011(3)
C1 0.030(3) 0.034(3) 0.024(3) -0.005(3) 0.000(3) -0.002(3)
C2 0.036(4) 0.038(4) 0.029(3) 0.001(3) 0.000(3) -0.002(3)
C3 0.023(3) 0.041(4) 0.030(3) -0.008(3) -0.004(3) 0.001(3)
C4 0.026(3) 0.035(3) 0.029(3) -0.007(3) -0.006(3) -0.004(3)
C5 0.026(3) 0.035(3) 0.029(3) -0.004(3) -0.002(3) -0.005(3)
C6 0.024(3) 0.031(3) 0.032(3) -0.006(3) -0.006(3) -0.001(3)
C7 0.036(4) 0.025(3) 0.031(3) -0.003(3) -0.011(3) 0.000(3)
C8 0.030(3) 0.045(4) 0.025(3) -0.011(3) -0.003(3) -0.001(3)
C9 0.032(3) 0.047(4) 0.033(4) -0.009(3) 0.001(3) -0.002(3)
C10 0.117(8) 0.038(4) 0.043(4) -0.009(4) 0.005(5) 0.032(5)
C11 0.092(7) 0.071(6) 0.025(4) -0.001(4) 0.011(4) 0.028(5)
C12 0.136(9) 0.059(5) 0.036(4) -0.017(4) 0.000(5) 0.042(6)
Cu1Q 0.0231 0.0352 0.0217 0.0055 -0.0009 -0.0035
Cu1W 0.0217 0.0231 0.0352 -0.0035 -0.0055 0.0009
Cu1I 0.0217 0.0231 0.0352 -0.0035 0.0055 -0.0009
Cu1P 0.0231 0.0352 0.0217 0.0055 0.0009 0.0035
Cu1H 0.0217 0.0231 0.0352 0.0035 0.0055 0.0009
Cu2Q 0.0317 0.0246 0.0249 0.005 -0.0042 -0.0019
Cu2F 0.0317 0.0246 0.0249 -0.005 -0.0042 0.0019
Cu2D 0.0317(4) 0.0246(4) 0.0249(4) 0.0050(3) 0.0042(3) 0.0019(3)
Cu2T 0.0249 0.0317 0.0246 0.0019 0.005 0.0042
Cu2I 0.0249 0.0317 0.0246 -0.0019 0.005 -0.0042
Cu2V 0.0249 0.0317 0.0246 0.0019 -0.005 -0.0042
O1Q 0.02 0.036 0.031 0.001 0.0018 0.0048
O1I 0.031 0.02 0.036 0.0048 0.001 0.0018
O1W 0.031 0.02 0.036 0.0048 -0.001 -0.0018
O2Q 0.04 0.054 0.107 -0.04 0.011 -0.011
O2I 0.107 0.04 0.054 -0.011 -0.04 0.011
O3Q 0.033 0.022 0.038 -0.0005 0.0066 0.0037
O3I 0.038 0.033 0.022 0.0037 -0.0005 0.0066
O3F 0.033 0.022 0.038 0.0005 0.0066 -0.0037
O4Q 0.035 0.036 0.058 -0.005 0.021 0.006
O4I 0.058 0.035 0.036 0.006 -0.005 0.021
O4N 0.036 0.058 0.035 0.021 -0.006 0.005
O5Q 0.038 0.047 0.126 -0.028 0.031 -0.013
O5I 0.126 0.038 0.047 -0.013 -0.028 0.031
O6Q 0.035 0.027 0.048 0.002 0.003 0.0073
O6I 0.048 0.035 0.027 0.0073 0.002 0.003
O6K 0.048 0.035 0.027 0.0073 -0.002 -0.003
O7H 0.026 0.028 0.056 0.013 0.013 0.0037
O7Q 0.028 0.056 0.026 0.013 -0.0037 -0.013
O7W 0.026 0.028 0.056 -0.013 -0.013 0.0037
O7O 0.056 0.026 0.028 0.0037 -0.013 -0.013
O7A 0.056 0.026 0.028 -0.0037 -0.013 0.013
N1H 0.037 0.026 0.049 0.007 0.009 0
N1Q 0.026 0.049 0.037 0.009 0 -0.007
N1O 0.049 0.037 0.026 0 -0.007 -0.009
N1A 0.049 0.037 0.026 0 -0.007 0.009
N2H 0.032 0.028 0.054 0.008 0.011 -0.001
N2Q 0.028 0.054 0.032 0.011 0.001 -0.008
N2W 0.032 0.028 0.054 -0.008 -0.011 -0.001
C1Q 0.024 0.03 0.034 -0.002 0.005 0
C1I 0.034 0.024 0.03 0 -0.002 0.005
C2Q 0.029 0.036 0.038 -0.002 -0.001 0
C2I 0.038 0.029 0.036 0 -0.002 -0.001
C3Q 0.03 0.023 0.041 0.001 0.008 0.004
C3I 0.041 0.03 0.023 0.004 0.001 0.008
C4Q 0.029 0.026 0.035 -0.004 0.007 0.006
C4I 0.035 0.029 0.026 0.006 -0.004 0.007
C5Q 0.029 0.026 0.035 -0.005 0.004 0.002
C5I 0.035 0.029 0.026 0.002 -0.005 0.004
C6Q 0.032 0.024 0.031 -0.001 0.006 0.006
C6I 0.031 0.032 0.024 0.006 -0.001 0.006
C7Q 0.031 0.036 0.025 0 0.003 0.011
C7I 0.025 0.031 0.036 0.011 0 0.003
C8Q 0.025 0.03 0.045 -0.001 0.011 0.003
C8I 0.045 0.025 0.03 0.003 -0.001 0.011
C9Q 0.033 0.032 0.047 -0.002 0.009 -0.001
C9I 0.047 0.033 0.032 -0.001 -0.002 0.009
C10H 0.038 0.043 0.117 0.005 0.032 -0.009
C10Q 0.043 0.117 0.038 0.032 0.009 -0.005
C11H 0.071 0.025 0.092 0.011 0.028 -0.001
C11Q 0.025 0.092 0.071 0.028 0.001 -0.011
C12H 0.059 0.036 0.136 0 0.042 -0.017
C12Q 0.036 0.136 0.059 0.042 0.017 0
Na1 0.088(7) 0.124(8) 0.057(6) -0.020(6) 0.001(5) 0.015(6)
Na2? 0.083 0.08 0.066 0.009 0.007 0.02
Na3? 0.095(11) 0.129(12) 0.086(11) 0.008(9) -0.009(8) 0.021(9)
loop_
_geom_bond_atom_site_label_1
_geom_bond_atom_site_label_2
_geom_bond_site_symmetry_1
_geom_bond_site_symmetry_2
Cu1 O1 1_555 1_555
Cu2 O3 1_555 1_555
O1 C2 1_555 1_555
O2 C2 1_555 1_555
O3 C9 1_555 1_555
O4 C7 1_555 1_555
O5 C9 1_555 1_555
O6 C7 1_555 1_555
O7 Cu1 1_555 1_555
H1 O7 1_555 1_555
N1 N2 1_555 1_555
N2 Cu1 1_555 1_555
C1 C2 1_555 1_555
C3 C4 1_555 1_555
C4 C1 1_555 1_555
H2 C4 1_555 1_555
C5 C1 1_555 1_555
H3 C5 1_555 1_555
C6 C5 1_555 1_555
C7 C6 1_555 1_555
C8 C3 1_555 1_555
H4 C8 1_555 1_555
C9 C3 1_555 1_555
C10 N2 1_555 1_555
H5 C10 1_555 1_555
C11 N1 1_555 1_555
H6 C11 1_555 1_555
C12 C10 1_555 1_555
H7 C12 1_555 1_555
Cu1Q O1Q 1_555 1_555
Cu1W O6 1_555 1_555
Cu1I O1I 1_555 1_555
Cu1P O6I 1_555 1_555
Cu1H O7H 1_555 1_555
Cu2Q O3Q 1_555 1_555
Cu2F O4 1_555 1_555
Cu2D O7 1_555 1_555
Cu2T O4Q 1_555 1_555
Cu2I O3I 1_555 1_555
Cu2V O7Q 1_555 1_555
O1Q C2Q 1_555 1_555
O1I C2I 1_555 1_555
O1W Cu1W 1_555 1_555
O2Q C2Q 1_555 1_555
O2I C2I 1_555 1_555
O3Q C9Q 1_555 1_555
O3I C9I 1_555 1_555
O3F Cu2F 1_555 1_555
O4Q C7Q 1_555 1_555
O4I Cu2 1_555 1_555
O4N Cu2Q 1_555 1_555
O5Q C9Q 1_555 1_555
O5I C9I 1_555 1_555
O6Q Cu1 1_555 1_555
O6I C7I 1_555 1_555
O6K Cu1Q 1_555 1_555
O7H Cu2 1_555 1_555
O7Q Cu1Q 1_555 1_555
O7W Cu1W 1_555 1_555
O7O Cu2Q 1_555 1_555
O7A Cu2F 1_555 1_555
H1H O7H 1_555 1_555
H1Q O7Q 1_555 1_555
H1W O7W 1_555 1_555
H1O O7O 1_555 1_555
H1A O7A 1_555 1_555
N1H Cu2 1_555 1_555
N1Q Cu2V 1_555 1_555
N1O Cu2Q 1_555 1_555
N1A Cu2F 1_555 1_555
N2H Cu1H 1_555 1_555
N2Q Cu1Q 1_555 1_555
N2W Cu1W 1_555 1_555
C1Q C2Q 1_555 1_555
C1I C2I 1_555 1_555
C3Q C4Q 1_555 1_555
C3I C4I 1_555 1_555
C4Q C1Q 1_555 1_555
C4I C1I 1_555 1_555
H2Q C4Q 1_555 1_555
H2I C4I 1_555 1_555
C5Q C1Q 1_555 1_555
C5I C1I 1_555 1_555
H3Q C5Q 1_555 1_555
H3I C5I 1_555 1_555
C6Q C5Q 1_555 1_555
C6I C5I 1_555 1_555
C7Q O6Q 1_555 1_555
C7I O4I 1_555 1_555
C8Q C3Q 1_555 1_555
C8I C3I 1_555 1_555
H4Q C8Q 1_555 1_555
H4I C8I 1_555 1_555
C9Q C3Q 1_555 1_555
C9I C3I 1_555 1_555
C10H N2H 1_555 1_555
C10Q N2Q 1_555 1_555
H5H C10H 1_555 1_555
H5Q C10Q 1_555 1_555
C11H N1H 1_555 1_555
C11Q N1Q 1_555 1_555
H6H C11H 1_555 1_555
H6Q C11Q 1_555 1_555
C12H C10H 1_555 1_555
C12Q C10Q 1_555 1_555
H7H C12H 1_555 1_555
H7Q C12Q 1_555 1_555
N1 Cu2D 1_555 1_555
C6 C8 1_555 1_555
C11 C12 1_555 1_555
N1H N2H 1_555 1_555
N1Q N2Q 1_555 1_555
C6Q C7Q 1_555 1_555
C6Q C8Q 1_555 1_555
C6I C7I 1_555 1_555
C6I C8I 1_555 1_555
C11H C12H 1_555 1_555
C11Q C12Q 1_555 1_555

#END
