
#######################################################################
#
#                 Cambridge Crystallographic Data Centre
#                                CCDC 
#
#######################################################################
#
# If this CIF has been generated from an entry in the Cambridge 
# Structural Database, then it will include bibliographic, chemical, 
# crystal, experimental, refinement or atomic coordinate data resulting 
# from the CCDC's data processing and validation procedures.
#
#######################################################################

data_HOJJUN
_chemical_name_common            ZJNU-40
_chemical_formula_moiety         
'(C22 H12 Cu2 N2 O10 S1)n,4n(C5 H11 N1 O1),6n(H2 O1)'
_chemical_name_systematic        
"catena-[(\m~8~-5,5'-(2,1,3-Benzothiadiazole-4,7-diyl)dibenzene-1,3-dicarboxylato)-diaqua-di-copper N,N-diethylformamide solvate hexahydrate]"
_symmetry_cell_setting           rhombohedral
_symmetry_space_group_name_H-M   'R -3 m'
_symmetry_Int_Tables_number      166
_space_group_name_Hall           '-R 3 2"'
loop_
_symmetry_equiv_pos_site_id
_symmetry_equiv_pos_as_xyz
1 x,y,z
2 -y,x-y,z
3 -x+y,-x,z
4 y,x,-z
5 x-y,-y,-z
6 -x,-x+y,-z
7 2/3+x,1/3+y,1/3+z
8 2/3-y,1/3+x-y,1/3+z
9 2/3-x+y,1/3-x,1/3+z
10 2/3+y,1/3+x,1/3-z
11 2/3+x-y,1/3-y,1/3-z
12 2/3-x,1/3-x+y,1/3-z
13 1/3+x,2/3+y,2/3+z
14 1/3-y,2/3+x-y,2/3+z
15 1/3-x+y,2/3-x,2/3+z
16 1/3+y,2/3+x,2/3-z
17 1/3+x-y,2/3-y,2/3-z
18 1/3-x,2/3-x+y,2/3-z
19 -x,-y,-z
20 y,-x+y,-z
21 x-y,x,-z
22 -y,-x,z
23 -x+y,y,z
24 x,x-y,z
25 1/3-x,2/3-y,2/3-z
26 1/3+y,2/3-x+y,2/3-z
27 1/3+x-y,2/3+x,2/3-z
28 1/3-y,2/3-x,2/3+z
29 1/3-x+y,2/3+y,2/3+z
30 1/3+x,2/3+x-y,2/3+z
31 2/3-x,1/3-y,1/3-z
32 2/3+y,1/3-x+y,1/3-z
33 2/3+x-y,1/3+x,1/3-z
34 2/3-y,1/3-x,1/3+z
35 2/3-x+y,1/3+y,1/3+z
36 2/3+x,1/3+x-y,1/3+z
_cell_length_a                   18.819(4)
_cell_length_b                   18.819(4)
_cell_length_c                   38.603(15)
_cell_angle_alpha                90
_cell_angle_beta                 90
_cell_angle_gamma                120
_cell_volume                     11839.8
_exptl_crystal_colour            green
_cell_formula_units_Z            9
loop_
_atom_site_label
_atom_site_type_symbol
_atom_site_fract_x
_atom_site_fract_y
_atom_site_fract_z
O4 O 0.0000 0.0000 0.3663(16)
C1 C 0.76098(16) -0.02726(17) 0.30740(7)
C2 C 0.81992(17) 0.05228(18) 0.29015(7)
C3 C 0.89135(13) 0.10865(13) 0.30705(10)
H1 H 0.9014 0.0986 0.3296
C4 C 0.80553(19) 0.0668(2) 0.25632(8)
H2 H 0.7575 0.0290 0.2452
C5 C 0.86235(19) 0.13765(19) 0.23871(12)
C6 C 0.8474(2) 0.1526(2) 0.20237(13)
C7 C 0.9102(6) 0.1870(7) 0.1781(2)
C8 C 0.8679(8) 0.2298(6) 0.1901(2)
N1 N 0.9926(14) 0.1970(19) 0.1817(6)
O1 O 0.77750(12) -0.03833(13) 0.33775(5)
O2 O 0.69971(13) -0.07719(13) 0.28981(5)
O3 O 0.7803(3) -0.10985(13) 0.40982(10)
H3 H 0.7499 -0.1251 0.4277
S1 S 1.0443(4) 0.2436(10) 0.14788(19)
Cu1 Cu 0.71230(2) -0.143852(12) 0.361687(10)
N2 N 0.8974(18) 0.3019(12) 0.2104(4)
C1I C 0.63941(17) 0.09431(16) 0.02593(7)
C2I C 0.71895(18) 0.15325(17) 0.04318(7)
C3I C 0.77532(13) 0.22468(13) 0.02628(10)
H1I H 0.7653 0.2347 0.0037
C4I C 0.7335(2) 0.13886(19) 0.07701(8)
H2I H 0.6957 0.0908 0.0881
C5I C 0.80432(19) 0.19568(19) 0.09462(12)
C6I C 0.8193(2) 0.1807(2) 0.13096(13)
C7I C 0.8537(7) 0.2435(6) 0.1552(2)
C8I C 0.8965(6) 0.2012(8) 0.1432(2)
N1I N 0.8637(19) 0.3259(14) 0.1516(6)
O1I O 0.62834(13) 0.11083(12) -0.00442(5)
O2I O 0.58948(13) 0.03304(13) 0.04352(5)
S1I S 0.9103(10) 0.3776(4) 0.18545(19)
N2I N 0.9686(12) 0.2307(18) 0.1229(4)
C1U C 1.02726(17) 0.23902(16) 0.30740(7)
C2U C 0.94772(18) 0.18008(17) 0.29015(7)
C4U C 0.9332(2) 0.19447(19) 0.25632(8)
H2U H 0.9710 0.2425 0.2452
C7U C 0.8130(7) 0.0898(6) 0.1781(2)
C8U C 0.7702(6) 0.1321(8) 0.1901(2)
N1U N 0.8030(19) 0.0074(14) 0.1817(6)
O1U O 1.03833(13) 0.22250(12) 0.33775(5)
O2U O 1.07719(13) 0.30029(13) 0.28981(5)
S1U S 0.7564(10) -0.0443(4) 0.14788(19)
N2U N 0.6981(12) 0.1026(18) 0.2104(4)
C1DA C 0.90569(16) 0.36059(17) 0.02593(7)
C2DA C 0.84675(17) 0.28105(18) 0.04318(7)
C4DA C 0.86114(19) 0.2665(2) 0.07701(8)
H2DA H 0.9092 0.3043 0.0881
C7DA C 0.7565(6) 0.1463(7) 0.1552(2)
C8DA C 0.7988(8) 0.1035(6) 0.1432(2)
N1DA N 0.6741(14) 0.1363(19) 0.1516(6)
O1DA O 0.88917(12) 0.37166(13) -0.00442(5)
O2DA O 0.96696(13) 0.41052(13) 0.04352(5)
S1DA S 0.6224(4) 0.0897(10) 0.18545(19)
N2DA N 0.7693(18) 0.0314(12) 0.1229(4)
O3Q O 0.5530(3) -0.22348(33) 0.25685(10)
H3Q H 0.5834 -0.2083 0.2390
Cu1Q Cu 0.62103(2) -0.189485(23) 0.304980(10)
O1Q O 0.55583(12) -0.14916(18) 0.32892(5)
O1W O 0.77750(12) -0.18417(18) 0.33775(5)
O1X O 0.55583(12) -0.29500(13) 0.32892(5)
O2Q O 0.63362(13) -0.11023(18) 0.37686(5)
O2W O 0.69971(13) -0.22310(18) 0.28981(5)
O2X O 0.63362(13) -0.25614(13) 0.37686(5)
Cu1B Cu 1.143848(23) 0.28770(2) 0.361687(10)
Cu1I Cu 0.522815(12) 0.04563(2) -0.028354(10)
Cu1K Cu 0.95437(2) 0.477181(23) -0.028354(10)
Cu1L Cu 1.04563(2) 0.522815(12) 0.028354(10)
Cu1N Cu 0.477181(23) -0.04563(2) 0.028354(10)
Cu1O Cu 1.189481(12) 0.37897(2) 0.304980(10)
loop_
_geom_bond_atom_site_label_1
_geom_bond_atom_site_label_2
_geom_bond_site_symmetry_1
_geom_bond_site_symmetry_2
C1 C2 1_555 1_555
C2 C3 1_555 1_555
C3 H1 1_555 1_555
C4 C2 1_555 1_555
H2 C4 1_555 1_555
C5 C4 1_555 1_555
C6 C5 1_555 1_555
C7 C6 1_555 1_555
C8 C6 1_555 1_555
N1 C7 1_555 1_555
O1 C1 1_555 1_555
O2 C1 1_555 1_555
O3 H3 1_555 1_555
S1 N1 1_555 1_555
Cu1 O1 1_555 1_555
N2 C8 1_555 1_555
C1I C2I 1_555 1_555
C2I C3I 1_555 1_555
C3I H1I 1_555 1_555
C4I C2I 1_555 1_555
H2I C4I 1_555 1_555
C5I C4I 1_555 1_555
C6I C5I 1_555 1_555
C7I C8 1_555 1_555
C8I C7 1_555 1_555
N1I C7I 1_555 1_555
O1I C1I 1_555 1_555
O2I C1I 1_555 1_555
S1I N2 1_555 1_555
N2I S1 1_555 1_555
C1U C2U 1_555 1_555
C2U C3 1_555 1_555
C4U C5 1_555 1_555
H2U C4U 1_555 1_555
C7U C6 1_555 1_555
C8U C6 1_555 1_555
N1U C7U 1_555 1_555
O1U C1U 1_555 1_555
O2U C1U 1_555 1_555
S1U N1U 1_555 1_555
N2U C8U 1_555 1_555
C1DA C2DA 1_555 1_555
C2DA C3I 1_555 1_555
C4DA C5I 1_555 1_555
H2DA C4DA 1_555 1_555
C7DA C6I 1_555 1_555
C8DA C6I 1_555 1_555
N1DA C7DA 1_555 1_555
O1DA C1DA 1_555 1_555
O2DA C1DA 1_555 1_555
S1DA N2U 1_555 1_555
N2DA S1U 1_555 1_555
O3Q H3Q 1_555 1_555
Cu1Q O2 1_555 1_555
O1Q Cu1Q 1_555 1_555
O1W Cu1 1_555 1_555
O1X Cu1Q 1_555 1_555
O2Q Cu1 1_555 1_555
O2W Cu1Q 1_555 1_555
O2X Cu1 1_555 1_555
Cu1B O1U 1_555 1_555
Cu1I O1I 1_555 1_555
Cu1K O1DA 1_555 1_555
Cu1L O2DA 1_555 1_555
Cu1N O2I 1_555 1_555
Cu1O O2U 1_555 1_555
C7 C8 1_555 1_555
O3 Cu1 1_555 1_555
Cu1 Cu1Q 1_555 1_555
C6I C7I 1_555 1_555
C6I C8I 1_555 1_555
C7I C8I 1_555 1_555
C8I N2I 1_555 1_555
N1I S1I 1_555 1_555
C2U C4U 1_555 1_555
C7U C8U 1_555 1_555
C7U C8DA 1_555 1_555
C8U C7DA 1_555 1_555
C2DA C4DA 1_555 1_555
C7DA C8DA 1_555 1_555
C8DA N2DA 1_555 1_555
N1DA S1DA 1_555 1_555
O3Q Cu1Q 1_555 1_555
Cu1B Cu1O 1_555 1_555
Cu1I Cu1N 1_555 1_555
Cu1K Cu1L 1_555 1_555

#END
