
#######################################################################
#
#                 Cambridge Crystallographic Data Centre
#                                CCDC 
#
#######################################################################
#
# If this CIF has been generated from an entry in the Cambridge 
# Structural Database, then it will include bibliographic, chemical, 
# crystal, experimental, refinement or atomic coordinate data resulting 
# from the CCDC's data processing and validation procedures.
#
#######################################################################

data_DITNEB01
_chemical_formula_moiety         '(C22 H16 Cu1 N4 O4)n,n(C12 H10 Cu1 N2 O5)'
_chemical_name_systematic        
"catena-(bis(\m-isonicotinato)-(4,4'-bipyridine)-copper bis(\m-isonicotinato)-aqua-copper)"
_symmetry_cell_setting           monoclinic
_symmetry_space_group_name_H-M   'P c'
_symmetry_Int_Tables_number      7
_space_group_name_Hall           'P -2yc'
loop_
_symmetry_equiv_pos_site_id
_symmetry_equiv_pos_as_xyz
1 x,y,z
2 x,-y,1/2+z
_cell_length_a                   12.999
_cell_length_b                   11.889
_cell_length_c                   13.000
_cell_angle_alpha                90
_cell_angle_beta                 118.85
_cell_angle_gamma                90
_cell_volume                     1759.73
_exptl_crystal_colour            blue
_exptl_crystal_description       Cubic
_cell_formula_units_Z            2
loop_
_atom_site_label
_atom_site_type_symbol
_atom_site_fract_x
_atom_site_fract_y
_atom_site_fract_z
C1 C 0.3357(5) -0.1551(5) 0.5797(5)
H1 H 0.2946 -0.0879 0.5669
C2 C 0.4603(5) -0.1508(4) 0.6427(5)
H2 H 0.4990 -0.0826 0.6702
C3 C 0.5235(7) -0.2501(5) 0.6626(6)
C4 C 0.4598(5) -0.3492(4) 0.6180(5)
H3 H 0.4985 -0.4175 0.6285
C5 C 0.3361(5) -0.3443(5) 0.5567(5)
H4 H 0.2954 -0.4114 0.5278
C6 C 0.8457(8) -0.1858(8) 0.8828(7)
H5 H 0.8862 -0.1389 0.9473
C7 C 0.7223(7) -0.1801(7) 0.8244(7)
H6 H 0.6843 -0.1294 0.8491
C8 C 0.6570(8) -0.2514(5) 0.7286(7)
C9 C 0.7240(8) -0.3197(7) 0.6988(8)
H7 H 0.6876 -0.3689 0.6356
C10 C 0.8464(8) -0.3155(8) 0.7631(9)
H8 H 0.8884 -0.3624 0.7394
C11 C -0.0165(6) -0.1074(4) 0.5469(5)
C12 C 0.0071(5) -0.0219(5) 0.6404(5)
C13 C 0.0942(5) 0.0609(4) 0.6740(4)
H9 H 0.1413 0.0640 0.6383
C14 C 0.1101(5) 0.1372(4) 0.7594(5)
H10 H 0.1674 0.1923 0.7793
C15 C -0.0382(5) 0.0569(4) 0.7796(5)
H11 H -0.0849 0.0557 0.8158
C16 C -0.0600(5) -0.0214(4) 0.6941(4)
H12 H -0.1202 -0.0735 0.6731
C17 C -0.0369(5) -0.5564(4) -0.0177(5)
H13 H -0.0819 -0.5558 -0.0991
C18 C 0.1097(5) -0.6370(4) 0.1515(5)
H14 H 0.1649 -0.6938 0.1876
C19 C -0.0158(6) -0.3924(4) 0.2369(5)
C20 C 0.0077(5) -0.4786(5) 0.1675(5)
C21 C 0.0943(5) -0.5606(4) 0.2199(4)
H15 H 0.1409 -0.5628 0.3010
C22 C -0.0593(5) -0.4779(4) 0.0466(5)
H16 H -0.1188 -0.4251 0.0092
Cu1 Cu 0.07412(4) -0.25006(4) 0.43735(4)
N1 N 0.2734(4) -0.2502(3) 0.5373(4)
N2 N 0.9068(8) -0.2506(7) 0.8541(10)
N3 N 0.0474(5) 0.1358(4) 0.8147(4)
N4 N 0.0489(5) -0.6345(4) 0.0340(4)
O1 O 0.0750(4) -0.1293(4) 0.5382(4)
O2 O -0.1150(4) -0.1461(4) 0.4890(4)
O3 O 0.0747(4) -0.3703(4) 0.3372(4)
O4 O -0.1156(4) -0.3543(4) 0.1964(4)
Cu1A Cu 0.07412(4) -0.74994(4) -0.06265(4)
Cu1A_2 Cu 0.07412(4) 0.25006(4) 0.93735(4)
N3A N 0.0474(5) -0.1358(4) 0.3147(4)
N4A N 0.0489(5) -0.3655(4) 0.5340(4)
C23 C 0.4142(6) -0.1148(5) -0.0391(5)
H17 H 0.3521 -0.1568 -0.0429
C24 C 0.3919(5) -0.0413(5) -0.1280(5)
H18 H 0.3166 -0.0332 -0.1909
C25 C 0.4854(5) 0.0210(5) -0.1216(5)
C26 C 0.5996(6) 0.0057(5) -0.0240(5)
H19 H 0.6632 0.0466 -0.0181
C27 C 0.6141(5) -0.0710(5) 0.0616(5)
H20 H 0.6886 -0.0822 0.1250
C28 C 0.3926(5) -0.4582(5) 0.3206(5)
H21 H 0.3166 -0.4673 0.3089
C29 C 0.4143(6) -0.3846(5) 0.2540(5)
H22 H 0.3526 -0.3430 0.1968
C30 C 0.6142(5) -0.4296(5) 0.3523(5)
H23 H 0.6890 -0.4184 0.3614
C31 C 0.6008(6) -0.5062(5) 0.4248(6)
H24 H 0.6640 -0.5462 0.4819
C32 C 0.4633(6) 0.0998(4) -0.2205(5)
C33 C 0.4637(6) -0.6004(4) 0.4846(5)
C34 C 0.4849(5) -0.5203(5) 0.4070(5)
Cu2 Cu 0.55050(4) -0.25003(4) 0.17551(4)
N5 N 0.5237(5) -0.1297(4) 0.0557(5)
N6 N 0.5244(5) -0.3702(4) 0.2690(4)
O5 O 0.7493(4) -0.2506(3) 0.2749(4)
H25 H 0.7921 -0.2091 0.3333
H26 H 0.7938 -0.2837 0.2535
O6 O 0.5597(4) 0.1368(4) -0.2126(4)
O7 O 0.3608(4) 0.1178(3) -0.2996(4)
O8 O 0.5603(4) -0.6370(4) 0.5730(4)
O9 O 0.3618(4) -0.6185(3) 0.4617(4)
Cu2A Cu 0.55050(4) -0.74997(4) 0.67551(4)
Cu2A_2 Cu 0.55050(4) 0.25003(4) -0.32449(4)
O6A O 0.5597(4) -0.1368(4) 0.2874(4)
O8A O 0.5603(4) -0.3630(4) 0.0730(4)
loop_
_geom_bond_atom_site_label_1
_geom_bond_atom_site_label_2
_geom_bond_site_symmetry_1
_geom_bond_site_symmetry_2
C1 H1 1_555 1_555
C2 C1 1_555 1_555
H2 C2 1_555 1_555
C3 C2 1_555 1_555
C4 C3 1_555 1_555
H3 C4 1_555 1_555
C5 C4 1_555 1_555
H4 C5 1_555 1_555
C6 H5 1_555 1_555
C7 C6 1_555 1_555
H6 C7 1_555 1_555
C8 C3 1_555 1_555
C9 C8 1_555 1_555
H7 C9 1_555 1_555
C10 C9 1_555 1_555
H8 C10 1_555 1_555
C11 C12 1_555 1_555
C12 C13 1_555 1_555
C13 H9 1_555 1_555
C14 C13 1_555 1_555
H10 C14 1_555 1_555
C15 H11 1_555 1_555
C16 C12 1_555 1_555
H12 C16 1_555 1_555
C17 H13 1_555 1_555
C18 H14 1_555 1_555
C19 C20 1_555 1_555
C20 C21 1_555 1_555
C21 C18 1_555 1_555
H15 C21 1_555 1_555
C22 C17 1_555 1_555
H16 C22 1_555 1_555
Cu1 N1 1_555 1_555
N1 C1 1_555 1_555
N2 C6 1_555 1_555
N3 C14 1_555 1_555
N4 C17 1_555 1_555
O1 C11 1_555 1_555
O2 C11 1_555 1_555
O3 C19 1_555 1_555
O4 C19 1_555 1_555
C23 H17 1_555 1_555
C24 C23 1_555 1_555
H18 C24 1_555 1_555
C25 C24 1_555 1_555
C26 C25 1_555 1_555
H19 C26 1_555 1_555
C27 C26 1_555 1_555
H20 C27 1_555 1_555
C28 H21 1_555 1_555
C29 C28 1_555 1_555
H22 C29 1_555 1_555
C30 H23 1_555 1_555
C31 C30 1_555 1_555
H24 C31 1_555 1_555
C32 C25 1_555 1_555
C33 C34 1_555 1_555
C34 C28 1_555 1_555
Cu2 N5 1_555 1_555
N5 C23 1_555 1_555
N6 C29 1_555 1_555
O5 Cu2 1_555 1_555
H25 O5 1_555 1_555
H26 O5 1_555 1_555
O6 C32 1_555 1_555
O7 C32 1_555 1_555
O8 C33 1_555 1_555
O9 C33 1_555 1_555
Cu1A N4 1_555 1_555
Cu1A_2 N3 1_555 1_555
N3A Cu1 1_555 1_555
N4A Cu1 1_555 1_555
Cu2A O8 1_555 1_555
Cu2A_2 O6 1_555 1_555
O6A Cu2 1_555 1_555
O8A Cu2 1_555 1_555
C5 N1 1_555 1_555
C7 C8 1_555 1_555
C10 N2 1_555 1_555
C15 C16 1_555 1_555
C15 N3 1_555 1_555
C18 N4 1_555 1_555
C20 C22 1_555 1_555
Cu1 O1 1_555 1_555
Cu1 O3 1_555 1_555
C27 N5 1_555 1_555
C30 N6 1_555 1_555
C31 C34 1_555 1_555
Cu2 N6 1_555 1_555

#END
