
#######################################################################
#
#                 Cambridge Crystallographic Data Centre
#                                CCDC 
#
#######################################################################
#
# If this CIF has been generated from an entry in the Cambridge 
# Structural Database, then it will include bibliographic, chemical, 
# crystal, experimental, refinement or atomic coordinate data resulting 
# from the CCDC's data processing and validation procedures.
#
#######################################################################

data_PUBSIP
_chemical_formula_moiety         '(C22 H10 Cu2 F4 O10)n,n(C3 H7 N1 O1),n(H2 O1)'
_chemical_name_systematic        
"catena-[(\m~8~-2',3',5',6'-Tetrafluoro-1,1':4',1''-terphenyl-3,3'',5,5''-tetracarboxylato)-diaqua-di-copper(ii) dimethylformamide solvate monohydrate]"
_symmetry_cell_setting           rhombohedral
_symmetry_space_group_name_H-M   'R -3 m'
_symmetry_Int_Tables_number      166
_space_group_name_Hall           '-R 3 2"'
loop_
_symmetry_equiv_pos_site_id
_symmetry_equiv_pos_as_xyz
1 x,y,z
2 -y,x-y,z
3 -x+y,-x,z
4 y,x,-z
5 -x,-x+y,-z
6 x-y,-y,-z
7 2/3+x,1/3+y,1/3+z
8 2/3-y,1/3+x-y,1/3+z
9 2/3-x+y,1/3-x,1/3+z
10 2/3+y,1/3+x,1/3-z
11 2/3-x,1/3-x+y,1/3-z
12 2/3+x-y,1/3-y,1/3-z
13 1/3+x,2/3+y,2/3+z
14 1/3-y,2/3+x-y,2/3+z
15 1/3-x+y,2/3-x,2/3+z
16 1/3+y,2/3+x,2/3-z
17 1/3-x,2/3-x+y,2/3-z
18 1/3+x-y,2/3-y,2/3-z
19 -x,-y,-z
20 y,-x+y,-z
21 x-y,x,-z
22 -y,-x,z
23 x,x-y,z
24 -x+y,y,z
25 1/3-x,2/3-y,2/3-z
26 1/3+y,2/3-x+y,2/3-z
27 1/3+x-y,2/3+x,2/3-z
28 1/3-y,2/3-x,2/3+z
29 1/3+x,2/3+x-y,2/3+z
30 1/3-x+y,2/3+y,2/3+z
31 2/3-x,1/3-y,1/3-z
32 2/3+y,1/3-x+y,1/3-z
33 2/3+x-y,1/3+x,1/3-z
34 2/3-y,1/3-x,1/3+z
35 2/3+x,1/3+x-y,1/3+z
36 2/3-x+y,1/3+y,1/3+z
_cell_length_a                   18.525(1)
_cell_length_b                   18.525(1)
_cell_length_c                   38.830(2)
_cell_angle_alpha                90
_cell_angle_beta                 90
_cell_angle_gamma                120
_cell_volume                     11540.2
_exptl_crystal_colour            blue
_exptl_crystal_description       block
_cell_formula_units_Z            9
loop_
_atom_site_label
_atom_site_type_symbol
_atom_site_fract_x
_atom_site_fract_y
_atom_site_fract_z
Cu1 Cu 0.190808(16) 0.381615(11) 0.305677(11)
C1 C 0.02688(29) 0.24222(24) 0.30596(7)
C2 C -0.05365(29) 0.18330(24) 0.28865(7)
C3 C -0.11071(23) 0.11075(12) 0.30549(10)
H1 H -0.1003 0.1002 0.3283
C4 C -0.06745(32) 0.19808(26) 0.25502(8)
H2 H -0.0279 0.2474 0.2435
C5 C -0.13989(33) 0.13987(13) 0.23818(12)
C6 C -0.15374(34) 0.15372(15) 0.20162(10)
C7 C -0.1706(6) 0.0956(4) 0.17634(17)
C8 C -0.1504(6) 0.2263(4) 0.19049(18)
O1 O 0.07824(20) 0.30463(25) 0.28907(5)
O2 O 0.03781(18) 0.22275(22) 0.33595(5)
O3 O 0.22783(13) 0.45565(13) 0.26017(12)
F1 F -0.1731(4) 0.0227(2) 0.18487(11)
F2 F -0.1357(4) 0.2868(3) 0.21350(10)
Cu1U Cu -0.381615(11) -0.190808(16) 0.305677(11)
Cu1Q Cu 0.142526(19) 0.285052(11) 0.360990(11)
Cu1Y Cu -0.285052(11) -0.142526(19) 0.360990(11)
Cu1DA Cu -0.524141(16) -0.048282(11) 0.027656(11)
Cu1CA Cu -0.475860(19) 0.048282(11) -0.027656(11)
Cu1I Cu 0.048282(11) 0.524141(16) 0.027656(11)
Cu1M Cu -0.048282(11) 0.475860(19) -0.027656(11)
C1U C -0.24222(24) -0.02688(29) 0.30596(7)
C1DA C -0.36021(29) 0.09111(24) 0.02737(7)
C1I C -0.09111(24) 0.36021(29) 0.02737(7)
C2U C -0.18330(24) 0.05365(29) 0.28865(7)
C2DA C -0.27968(29) 0.15003(24) 0.04468(7)
C2I C -0.15003(24) 0.27968(29) 0.04468(7)
C3DA C -0.22262(23) 0.22258(12) 0.02784(10)
H1DA H -0.2330 0.2331 0.0050
C4U C -0.19808(26) 0.06745(32) 0.25502(8)
C4DA C -0.26588(32) 0.13525(26) 0.07831(8)
C4I C -0.13525(26) 0.26588(32) 0.07831(8)
H2U H -0.2474 0.0279 0.2435
H2I H -0.0859 0.3054 0.0898
H2DA H -0.3054 0.0859 0.0898
C5DA C -0.19344(33) 0.19346(13) 0.09515(12)
C6DA C -0.17959(34) 0.17961(15) 0.13171(10)
C7U C -0.0956(4) 0.1706(6) 0.17634(17)
C7DA C -0.1627(6) 0.2377(4) 0.15699(17)
C7I C -0.2377(4) 0.1627(6) 0.15699(17)
C8U C -0.2263(4) 0.1504(6) 0.19049(18)
C8DA C -0.1829(6) 0.1070(4) 0.14284(18)
C8I C -0.1070(4) 0.1829(6) 0.14284(18)
O1U O -0.30463(25) -0.07824(20) 0.28907(5)
O1DA O -0.41157(20) 0.02870(25) 0.04426(5)
O1I O -0.02870(25) 0.41157(20) 0.04426(5)
O1W O 0.22639(32) 0.30463(25) 0.28907(5)
O1A O -0.30463(25) -0.22639(32) 0.28907(5)
O2U O -0.22275(22) -0.03781(18) 0.33595(5)
O2DA O -0.37114(18) 0.11058(22) -0.00262(5)
O2I O -0.11058(22) 0.37114(18) -0.00262(5)
O2Q O 0.14839(28) 0.44392(22) 0.33072(5)
O2X O 0.29552(18) 0.44392(22) 0.33072(5)
O2Y O -0.44392(22) -0.14839(28) 0.33072(5)
O2O O -0.44392(22) -0.29552(18) 0.33072(5)
O3U O -0.45565(13) -0.22783(13) 0.26017(12)
F1I F -0.3106(2) 0.1602(4) 0.14846(11)
F1U F -0.0227(2) 0.1731(4) 0.18487(11)
F1DA F -0.1602(4) 0.3106(2) 0.14846(11)
F2U F -0.2868(3) 0.1357(4) 0.21350(10)
F2DA F -0.1976(4) 0.0465(3) 0.11983(10)
F2I F -0.0465(3) 0.1976(4) 0.11983(10)
loop_
_geom_bond_atom_site_label_1
_geom_bond_atom_site_label_2
_geom_bond_site_symmetry_1
_geom_bond_site_symmetry_2
Cu1 O1 1_555 1_555
C1 C2 1_555 1_555
C2 C3 1_555 1_555
C3 H1 1_555 1_555
C4 C2 1_555 1_555
H2 C4 1_555 1_555
C5 C4 1_555 1_555
C6 C5 1_555 1_555
C7 C6 1_555 1_555
C8 C6 1_555 1_555
O1 C1 1_555 1_555
O2 C1 1_555 1_555
O3 Cu1 1_555 1_555
F1 C7 1_555 1_555
F2 C8 1_555 1_555
Cu1U O1U 1_555 1_555
Cu1Q O2 1_555 1_555
Cu1Y O2U 1_555 1_555
Cu1DA O1DA 1_555 1_555
Cu1CA O2DA 1_555 1_555
Cu1I O1I 1_555 1_555
Cu1M O2I 1_555 1_555
C1U C2U 1_555 1_555
C1DA C2DA 1_555 1_555
C1I C2I 1_555 1_555
C2U C3 1_555 1_555
C2DA C3DA 1_555 1_555
C2I C3DA 1_555 1_555
C3DA H1DA 1_555 1_555
C4U C5 1_555 1_555
C4DA C2DA 1_555 1_555
C4I C2I 1_555 1_555
H2U C4U 1_555 1_555
H2I C4I 1_555 1_555
H2DA C4DA 1_555 1_555
C5DA C4DA 1_555 1_555
C6DA C5DA 1_555 1_555
C7U C6 1_555 1_555
C7DA C8 1_555 1_555
C7I C6DA 1_555 1_555
C8U C6 1_555 1_555
C8DA C7 1_555 1_555
C8I C6DA 1_555 1_555
O1U C1U 1_555 1_555
O1DA C1DA 1_555 1_555
O1I C1I 1_555 1_555
O1W Cu1 1_555 1_555
O1A Cu1U 1_555 1_555
O2U C1U 1_555 1_555
O2DA C1DA 1_555 1_555
O2I C1I 1_555 1_555
O2Q Cu1 1_555 1_555
O2X Cu1 1_555 1_555
O2Y Cu1U 1_555 1_555
O2O Cu1U 1_555 1_555
O3U Cu1U 1_555 1_555
F1I C7I 1_555 1_555
F1U C7U 1_555 1_555
F1DA C7DA 1_555 1_555
F2U C8U 1_555 1_555
F2DA C8DA 1_555 1_555
F2I C8I 1_555 1_555
C7 C7U 1_555 1_555
C8 C8U 1_555 1_555
C2U C4U 1_555 1_555
C4I C5DA 1_555 1_555
C6DA C7DA 1_555 1_555
C6DA C8DA 1_555 1_555
C7U C8I 1_555 1_555
C7DA C7I 1_555 1_555
C7I C8U 1_555 1_555
C8DA C8I 1_555 1_555

#END
