
#######################################################################
#
#                 Cambridge Crystallographic Data Centre
#                                CCDC 
#
#######################################################################
#
# If this CIF has been generated from an entry in the Cambridge 
# Structural Database, then it will include bibliographic, chemical, 
# crystal, experimental, refinement or atomic coordinate data resulting 
# from the CCDC's data processing and validation procedures.
#
#######################################################################

data_ROYJIA
_chemical_name_common            CPM-33a
_chemical_formula_moiety         '(C42 H24 N6 Ni3 O13)n'
_chemical_name_systematic        
catena-(tris(\m~4~-Terephthalato)-(\m~3~-2,4,6-tris(pyridin-4-yl)-1,3,5-triazine)-(\m~3~-oxo)-tri-nickel)
_symmetry_cell_setting           hexagonal
_symmetry_space_group_name_H-M   'P 63/m m c'
_symmetry_Int_Tables_number      194
_space_group_name_Hall           '-P 6c 2c'
loop_
_symmetry_equiv_pos_site_id
_symmetry_equiv_pos_as_xyz
1 x,y,z
2 -y,x-y,z
3 -x+y,-x,z
4 -x,-y,1/2+z
5 y,-x+y,1/2+z
6 x-y,x,1/2+z
7 y,x,-z
8 x-y,-y,-z
9 -x,-x+y,-z
10 -y,-x,1/2-z
11 -x+y,y,1/2-z
12 x,x-y,1/2-z
13 -x,-y,-z
14 y,-x+y,-z
15 x-y,x,-z
16 x,y,1/2-z
17 -y,x-y,1/2-z
18 -x+y,-x,1/2-z
19 -y,-x,z
20 -x+y,y,z
21 x,x-y,z
22 y,x,1/2+z
23 x-y,-y,1/2+z
24 -x,-x+y,1/2+z
_cell_length_a                   16.7775(12)
_cell_length_b                   16.7775(12)
_cell_length_c                   15.184(3)
_cell_angle_alpha                90
_cell_angle_beta                 90
_cell_angle_gamma                120
_cell_volume                     3701.45
_exptl_crystal_colour            green
_exptl_crystal_description       block
_cell_formula_units_Z            2
loop_
_atom_site_label
_atom_site_type_symbol
_atom_site_fract_x
_atom_site_fract_y
_atom_site_fract_z
Ni1 Ni 0.264705(12) 0.52941(2) 0.7500
O1 O 0.3333 0.6667 0.7500
O2 O 0.17444(9) 0.52095(8) 0.65465(9)
N1 N 0.19175(9) 0.38350(18) 0.7500
N2 N -0.04696(11) 0.04696(11) 0.7500
C1 C 0.14638(16) 0.57319(8) 0.63025(15)
C2 C 0.06976(17) 0.53488(9) 0.56298(16)
C3 C 0.03496(17) 0.44815(14) 0.53126(17)
H1 H 0.0582 0.4115 0.5516
C4 C 0.23528(18) 0.33562(17) 0.7500
H2 H 0.2993 0.3678 0.7500
C5 C 0.19072(19) 0.24108(18) 0.7500
H3 H 0.2243 0.2107 0.7500
C6 C 0.09585(12) 0.1917(2) 0.7500
C7 C 0.04452(12) 0.0890(2) 0.7500
O2H O -0.17444(9) 0.34651(12) 0.34535(9)
C1H C -0.14638(16) 0.42681(18) 0.36975(15)
C2H C -0.06976(17) 0.46512(19) 0.43702(16)
C3H C -0.03496(17) 0.41319(22) 0.46874(17)
H1H H -0.0582 0.3533 0.4484
O2L O -0.17444(9) 0.47905(8) 0.34535(9)
C3L C -0.03496(17) 0.55185(14) 0.46874(17)
H1L H -0.0582 0.5885 0.4484
O2T O 0.17444(9) 0.65349(12) 0.65465(9)
C3T C 0.03496(17) 0.58681(22) 0.53126(17)
H1T H 0.0582 0.6467 0.5516
N1A N -0.38350(18) -0.19175(20) 0.7500
N2A N -0.04696(11) -0.09392(16) 0.7500
C4A C -0.33562(17) -0.10034(25) 0.7500
H2A H -0.3678 -0.0685 0.7500
C5A C -0.24108(18) -0.05036(26) 0.7500
H3A H -0.2107 0.0136 0.7500
C6A C -0.1917(2) -0.09585(23) 0.7500
C7A C -0.0890(2) -0.04448(23) 0.7500
N1B N 0.19175(20) -0.19175(9) 0.7500
N2B N 0.09392(16) 0.04696(11) 0.7500
C4B C 0.10034(25) -0.23528(18) 0.7500
H2B H 0.0685 -0.2993 0.7500
C5B C 0.05036(26) -0.19072(19) 0.7500
H3B H -0.0136 -0.2243 0.7500
C6B C 0.09585(23) -0.09585(12) 0.7500
C7B C 0.04448(23) -0.04452(12) 0.7500
C4I C -0.33562(17) -0.23528(18) 0.7500
H2I H -0.3678 -0.2993 0.7500
C5I C -0.24108(18) -0.19072(19) 0.7500
H3I H -0.2107 -0.2243 0.7500
C4J C 0.10034(25) 0.33562(17) 0.7500
H2J H 0.0685 0.3678 0.7500
C5J C 0.05036(26) 0.24108(18) 0.7500
H3J H -0.0136 0.2107 0.7500
C4K C 0.23528(18) -0.10034(25) 0.7500
H2K H 0.2993 -0.0685 0.7500
C5K C 0.19072(19) -0.05036(26) 0.7500
H3K H 0.2243 0.0136 0.7500
Ni1A Ni -0.52941(2) -0.264705(23) 0.7500
O2A O -0.52095(8) -0.34651(12) 0.65465(9)
C1A C -0.57319(8) -0.42681(18) 0.63025(15)
C2A C -0.53488(9) -0.46512(19) 0.56298(16)
C3A C -0.44815(14) -0.41319(22) 0.53126(17)
H1A H -0.4115 -0.3533 0.5516
O2G O -0.34651(12) -0.52095(8) 0.34535(9)
C1G C -0.42681(18) -0.57319(8) 0.36975(15)
C2G C -0.46512(19) -0.53488(9) 0.43702(16)
C3G C -0.41319(22) -0.44815(14) 0.46874(17)
H1G H -0.3533 -0.4115 0.4484
O2M O -0.47905(8) -0.65349(12) 0.34535(9)
C3M C -0.55185(14) -0.58681(22) 0.46874(17)
H1M H -0.5885 -0.6467 0.4484
O2S O -0.65349(12) -0.47905(8) 0.65465(9)
C3S C -0.58681(22) -0.55185(14) 0.53126(17)
H1S H -0.6467 -0.5885 0.5516
Ni1B Ni -0.735295(23) -0.264705(12) 0.7500
O2B O -0.65349(12) -0.17444(9) 0.65465(9)
C1B C -0.57319(18) -0.14638(16) 0.63025(15)
C2B C -0.53488(19) -0.06976(17) 0.56298(16)
C3B C -0.58681(22) -0.03496(17) 0.53126(17)
H1B H -0.6467 -0.0582 0.5516
O2F O -0.47905(8) 0.17444(9) 0.34535(9)
C1F C -0.42681(8) 0.14638(16) 0.36975(15)
C2F C -0.46512(9) 0.06976(17) 0.43702(16)
C3F C -0.55185(14) 0.03496(17) 0.46874(17)
H1F H -0.5885 0.0582 0.4484
O2N O -0.34651(12) 0.17444(9) 0.34535(9)
C3N C -0.41319(22) 0.03496(17) 0.46874(17)
H1N H -0.3533 0.0582 0.4484
O2R O -0.52095(8) -0.17444(9) 0.65465(9)
C3R C -0.44815(14) -0.03496(17) 0.53126(17)
H1R H -0.4115 -0.0582 0.5516
Ni1_2 Ni -0.735295(12) -0.47059(2) 0.7500
Ni1A_2 Ni 0.47059(2) 0.735295(23) 0.7500
Ni1B_2 Ni 0.264705(23) -0.264705(12) 0.7500
Ni1B_3 Ni 0.264705(23) 0.735295(12) 0.7500
Ni1C Ni -0.264705(12) -0.52941(2) 0.2500
Ni1C_2 Ni -0.264705(12) 0.47059(2) 0.2500
Ni1D Ni -0.47059(2) -0.735295(23) 0.2500
Ni1D_2 Ni -0.47059(2) 0.264705(23) 0.2500
Ni1E Ni -0.264705(23) 0.264705(12) 0.2500
O1_2 O -0.6667 -0.3333 0.7500
O2I O -0.52095(8) -0.17444(9) 0.84535(9)
O2J O 0.34651(12) 0.52095(8) 0.84535(9)
O2K O -0.82556(9) -0.34651(12) 0.84535(9)
O2O O 0.17444(9) 0.52095(8) 0.84535(9)
O2P O -0.52095(8) -0.34651(12) 0.84535(9)
O2Q O -0.65349(12) -0.17444(9) 0.84535(9)
O2S_2 O 0.34651(12) 0.52095(8) 0.65465(9)
O2T_2 O -0.82556(9) -0.34651(12) 0.65465(9)
N1B_2 N -0.80825(20) -0.19175(9) 0.7500
loop_
_geom_bond_atom_site_label_1
_geom_bond_atom_site_label_2
_geom_bond_site_symmetry_1
_geom_bond_site_symmetry_2
Ni1 O1 1_555 1_555
O1 Ni1A_2 1_555 1_555
O2 Ni1 1_555 1_555
N1 Ni1 1_555 1_555
N2 C7 1_555 1_555
C1 O2 1_555 1_555
C2 C1 1_555 1_555
C3 C2 1_555 1_555
H1 C3 1_555 1_555
C4 N1 1_555 1_555
H2 C4 1_555 1_555
C5 C4 1_555 1_555
H3 C5 1_555 1_555
C6 C5 1_555 1_555
C7 C6 1_555 1_555
O2H C1H 1_555 1_555
C1H C2H 1_555 1_555
C2H C3H 1_555 1_555
C3H C3 1_555 1_555
H1H C3H 1_555 1_555
O2L C1H 1_555 1_555
C3L C2H 1_555 1_555
H1L C3L 1_555 1_555
O2T C1 1_555 1_555
C3T C2 1_555 1_555
H1T C3T 1_555 1_555
N1A C4A 1_555 1_555
N2A C7A 1_555 1_555
C4A H2A 1_555 1_555
C5A C4A 1_555 1_555
H3A C5A 1_555 1_555
C6A C5A 1_555 1_555
C7A N2 1_555 1_555
N1B C4B 1_555 1_555
N2B C7 1_555 1_555
C4B H2B 1_555 1_555
C5B C4B 1_555 1_555
H3B C5B 1_555 1_555
C6B C5B 1_555 1_555
C7B N2A 1_555 1_555
C4I N1A 1_555 1_555
H2I C4I 1_555 1_555
C5I C6A 1_555 1_555
H3I C5I 1_555 1_555
C4J N1 1_555 1_555
H2J C4J 1_555 1_555
C5J C6 1_555 1_555
H3J C5J 1_555 1_555
C4K N1B 1_555 1_555
H2K C4K 1_555 1_555
C5K C6B 1_555 1_555
H3K C5K 1_555 1_555
Ni1A N1A 1_555 1_555
O2A Ni1A 1_555 1_555
C1A O2A 1_555 1_555
C2A C1A 1_555 1_555
C3A C2A 1_555 1_555
H1A C3A 1_555 1_555
O2G C1G 1_555 1_555
C1G C2G 1_555 1_555
C2G C3G 1_555 1_555
C3G C3A 1_555 1_555
H1G C3G 1_555 1_555
O2M C1G 1_555 1_555
C3M C2G 1_555 1_555
H1M C3M 1_555 1_555
O2S C1A 1_555 1_555
C3S C2A 1_555 1_555
H1S C3S 1_555 1_555
Ni1B O2B 1_555 1_555
O2B C1B 1_555 1_555
C1B C2B 1_555 1_555
C2B C3B 1_555 1_555
C3B H1B 1_555 1_555
O2F C1F 1_555 1_555
C1F C2F 1_555 1_555
C2F C3F 1_555 1_555
C3F C3B 1_555 1_555
H1F C3F 1_555 1_555
O2N C1F 1_555 1_555
C3N C2F 1_555 1_555
H1N C3N 1_555 1_555
O2R Ni1A 1_555 1_555
C3R C2B 1_555 1_555
H1R C3R 1_555 1_555
Ni1_2 O2S 1_555 1_555
Ni1B_2 N1B 1_555 1_555
Ni1B_3 O1 1_555 1_555
Ni1C O2G 1_555 1_555
Ni1C_2 O2L 1_555 1_555
Ni1D O2M 1_555 1_555
Ni1D_2 O2F 1_555 1_555
Ni1E O2H 1_555 1_555
O1_2 Ni1A 1_555 1_555
O2I Ni1A 1_555 1_555
O2J Ni1 1_555 1_555
O2K Ni1B 1_555 1_555
O2O Ni1 1_555 1_555
O2P Ni1A 1_555 1_555
O2Q Ni1B 1_555 1_555
O2S_2 Ni1 1_555 1_555
O2T_2 Ni1B 1_555 1_555
N1B_2 Ni1B 1_555 1_555
C3L C3T 1_555 1_555
O2T Ni1B_3 1_555 1_555
C6A C7A 1_555 1_555
N2B C7B 1_555 1_555
C6B C7B 1_555 1_555
C4I C5I 1_555 1_555
C4J C5J 1_555 1_555
C4K C5K 1_555 1_555
C3M C3S 1_555 1_555
Ni1B O1_2 1_555 1_555
C1B O2R 1_555 1_555
O2N Ni1E 1_555 1_555
C3N C3R 1_555 1_555
Ni1_2 O1_2 1_555 1_555

#END
