
#######################################################################
#
#                 Cambridge Crystallographic Data Centre
#                                CCDC 
#
#######################################################################
#
# If this CIF has been generated from an entry in the Cambridge 
# Structural Database, then it will include bibliographic, chemical, 
# crystal, experimental, refinement or atomic coordinate data resulting 
# from the CCDC's data processing and validation procedures.
#
#######################################################################

data_ROYKOH
_chemical_name_common            CPM-34
_chemical_formula_moiety         '(C54 H31 N6 Ni3 O13)n'
_chemical_name_systematic        
catena-(tris(\m~4~-Naphthalene-2,6-dicarboxylato)-(\m~3~-hydroxo)-(\m~3~-2,4,6-tris(pyridin-4-yl)-1,3,5-triazine)-tri-nickel)
_symmetry_cell_setting           trigonal
_symmetry_space_group_name_H-M   'P -3 1 c'
_symmetry_Int_Tables_number      163
_space_group_name_Hall           '-P 3 2c'
loop_
_symmetry_equiv_pos_site_id
_symmetry_equiv_pos_as_xyz
1 x,y,z
2 -y,x-y,z
3 -x+y,-x,z
4 -y,-x,1/2-z
5 -x+y,y,1/2-z
6 x,x-y,1/2-z
7 -x,-y,-z
8 y,-x+y,-z
9 x-y,x,-z
10 y,x,1/2+z
11 x-y,-y,1/2+z
12 -x,-x+y,1/2+z
_cell_length_a                   16.6706(2)
_cell_length_b                   16.6706(2)
_cell_length_c                   20.9026(4)
_cell_angle_alpha                90
_cell_angle_beta                 90
_cell_angle_gamma                120
_cell_volume                     5030.76
_exptl_crystal_colour            green
_exptl_crystal_description       block
_cell_formula_units_Z            2
loop_
_atom_site_label
_atom_site_type_symbol
_atom_site_fract_x
_atom_site_fract_y
_atom_site_fract_z
Ni1 Ni 0.735323(12) 0.47065(2) 0.2500
O1 O 0.6667 0.3333 0.2500
N1 N 0.80756(10) 0.6151(2) 0.2500
O2 O 0.65410(15) 0.47871(13) 0.31946(11)
N2 N 1.04742(11) 0.95258(11) 0.2500
O3 O 0.52152(13) 0.34602(20) 0.31923(11)
C1 C 0.7638(2) 0.66327(19) 0.25006(19)
H1 H 0.6994 0.6307 0.2503
C2 C 0.5769(2) 0.4231(2) 0.34019(15)
C3 C 0.95506(13) 0.9101(3) 0.2500
C4 C 0.8079(2) 0.75849(19) 0.24983(19)
H2 H 0.7742 0.7892 0.2496
C5 C 0.90371(13) 0.8074(3) 0.2500
C6 C 0.5624(6) 0.4694(7) 0.3984(6)
C7 C 0.6215(6) 0.5630(6) 0.4151(4)
H3 H 0.6723 0.6003 0.3894
C8 C 0.6047(6) 0.5996(6) 0.4686(4)
H4 H 0.6440 0.6616 0.4787
C9 C 0.5311(8) 0.5461(7) 0.5075(5)
C10 C 0.4909(6) 0.4204(5) 0.4348(4)
H5 H 0.4508 0.3593 0.4229
N1A N 1.3849(2) 1.19246(22) 0.2500
N2A N 1.04742(11) 1.09484(16) 0.2500
C1A C 1.33673(19) 1.10053(28) 0.25006(19)
H1A H 1.3693 1.0687 0.2503
C3A C 1.0899(3) 1.04496(33) 0.2500
C4A C 1.24151(19) 1.04941(28) 0.24983(19)
H2A H 1.2108 0.9850 0.2496
C5A C 1.1926(3) 1.09631(33) 0.2500
N1B N 0.80754(22) 1.19244(10) 0.2500
N2B N 0.90516(16) 0.95258(11) 0.2500
C1B C 0.89947(28) 1.2362(2) 0.25006(19)
H1B H 0.9313 1.3006 0.2503
C3B C 0.95504(33) 1.04494(13) 0.2500
C4B C 0.95059(28) 1.1921(2) 0.24983(19)
H2B H 1.0150 1.2258 0.2496
C5B C 0.90369(33) 1.09629(13) 0.2500
C1C C 1.33673(19) 1.2362(2) 0.24994(19)
H1C H 1.3693 1.3006 0.2497
C4C C 1.24151(19) 1.1921(2) 0.25017(19)
H2C H 1.2108 1.2258 0.2504
C1D C 0.89947(28) 0.66327(19) 0.24994(19)
H1D H 0.9313 0.6307 0.2497
C4D C 0.95059(28) 0.75849(19) 0.25017(19)
H2D H 1.0150 0.7892 0.2504
C1E C 0.7638(2) 1.10053(28) 0.24994(19)
H1E H 0.6994 1.0687 0.2497
C4E C 0.8079(2) 1.04941(28) 0.25017(19)
H2E H 0.7742 0.9850 0.2504
O2F O 0.34590(15) 0.52129(13) 0.68054(11)
O3F O 0.47848(13) 0.65398(20) 0.68077(11)
C2F C 0.4231(2) 0.5769(2) 0.65981(15)
C6F C 0.4376(6) 0.5306(7) 0.6016(6)
C7F C 0.3785(6) 0.4370(6) 0.5849(4)
H3F H 0.3277 0.3997 0.6106
C8F C 0.3953(6) 0.4004(6) 0.5314(4)
H4F H 0.3560 0.3384 0.5213
C9F C 0.4689(8) 0.4539(7) 0.4925(5)
C10F C 0.5091(6) 0.5796(5) 0.5652(4)
H5F H 0.5492 0.6407 0.5771
Ni1A Ni 0.52935(2) 0.264673(23) 0.2500
O2A O 0.52129(13) 0.17539(20) 0.31946(11)
O3A O 0.65398(20) 0.17550(24) 0.31923(11)
C2A C 0.5769(2) 0.1538(3) 0.34019(15)
C6A C 0.5306(7) 0.0930(9) 0.3984(6)
C7A C 0.4370(6) 0.0585(8) 0.4151(4)
H3A H 0.3997 0.0720 0.3894
C8A C 0.4004(6) 0.0051(8) 0.4686(4)
H4A H 0.3384 -0.0176 0.4787
C9A C 0.4539(7) -0.0150(11) 0.5075(5)
C10A C 0.5796(5) 0.0705(8) 0.4348(4)
H5A H 0.6407 0.0915 0.4229
O2G O 0.47871(13) -0.17539(20) 0.68054(11)
O3G O 0.34602(20) -0.17550(24) 0.68077(11)
C2G C 0.4231(2) -0.1538(3) 0.65981(15)
C6G C 0.4694(7) -0.0930(9) 0.6016(6)
C7G C 0.5630(6) -0.0585(8) 0.5849(4)
H3G H 0.6003 -0.0720 0.6106
C8G C 0.5996(6) -0.0051(8) 0.5314(4)
H4G H 0.6616 0.0176 0.5213
C9G C 0.5461(7) 0.0150(11) 0.4925(5)
C10G C 0.4204(5) -0.0705(8) 0.5652(4)
H5G H 0.3593 -0.0915 0.5771
Ni1B Ni 0.735327(23) 0.264677(12) 0.2500
O2B O 0.82461(20) 0.34590(15) 0.31946(11)
O3B O 0.82450(24) 0.47848(13) 0.31923(11)
C2B C 0.8462(3) 0.4231(2) 0.34019(15)
C6B C 0.9070(9) 0.4376(6) 0.3984(6)
C7B C 0.9415(8) 0.3785(6) 0.4151(4)
H3B H 0.9280 0.3277 0.3894
C8B C 0.9949(8) 0.3953(6) 0.4686(4)
H4B H 1.0176 0.3560 0.4787
C9B C 1.0150(11) 0.4689(8) 0.5075(5)
C10B C 0.9295(8) 0.5091(6) 0.4348(4)
H5B H 0.9085 0.5492 0.4229
O2H O 1.17539(20) 0.65410(15) 0.68054(11)
O3H O 1.17550(24) 0.52152(13) 0.68077(11)
C2H C 1.1538(3) 0.5769(2) 0.65981(15)
C6H C 1.0930(9) 0.5624(6) 0.6016(6)
C7H C 1.0585(8) 0.6215(6) 0.5849(4)
H3H H 1.0720 0.6723 0.6106
C8H C 1.0051(8) 0.6047(6) 0.5314(4)
H4H H 0.9824 0.6440 0.5213
C9H C 0.9850(11) 0.5311(8) 0.4925(5)
C10H C 1.0705(8) 0.4909(6) 0.5652(4)
H5H H 1.0915 0.4508 0.5771
Ni1A_2 Ni 1.52935(2) 1.264673(23) 0.2500
Ni1B_2 Ni 0.735327(23) 1.264677(12) 0.2500
Ni1F Ni 0.264677(12) 0.52935(2) 0.7500
Ni1F_2 Ni 1.264677(12) 0.52935(2) 0.7500
Ni1G Ni 0.47065(2) -0.264673(23) 0.7500
Ni1G_2 Ni 0.47065(2) 0.735327(23) 0.7500
Ni1H Ni 0.264673(23) -0.264677(12) 0.7500
Ni1H_2 Ni 1.264673(23) 0.735323(12) 0.7500
N1A_2 N 0.3849(2) 0.19246(22) 0.2500
N1B_2 N 0.80754(22) 0.19244(10) 0.2500
O2C O 0.52129(13) 0.34590(15) 0.18054(11)
O2D O 0.82461(20) 0.47871(13) 0.18054(11)
O2E O 0.65410(15) 0.17539(20) 0.18054(11)
O3C O 0.65398(20) 0.47848(13) 0.18077(11)
O3D O 0.82450(24) 0.34602(20) 0.18077(11)
O3E O 0.52152(13) 0.17550(24) 0.18077(11)
C11? C 0.5296(8) 0.4360(7) 0.3980(6)
C12? C 0.4370(6) 0.3781(6) 0.4151(4)
H6? H 0.3994 0.3269 0.3897
C13? C 0.4010(6) 0.3955(6) 0.4683(4)
H7? H 0.3390 0.3558 0.4783
C14? C 0.4534(8) 0.4704(9) 0.5083(6)
C15? C 0.5803(5) 0.5090(6) 0.4352(4)
H8? H 0.6415 0.5489 0.4235
loop_
_geom_bond_atom_site_label_1
_geom_bond_atom_site_label_2
_geom_bond_site_symmetry_1
_geom_bond_site_symmetry_2
Ni1 O1 1_555 1_555
O1 Ni1A 1_555 1_555
N1 Ni1 1_555 1_555
O2 Ni1 1_555 1_555
N2 C3 1_555 1_555
O3 C2 1_555 1_555
C1 N1 1_555 1_555
H1 C1 1_555 1_555
C2 O2 1_555 1_555
C3 C5 1_555 1_555
C4 C1 1_555 1_555
H2 C4 1_555 1_555
C5 C4 1_555 1_555
C6 C2 1_555 1_555
C7 C6 1_555 1_555
H3 C7 1_555 1_555
C8 C7 1_555 1_555
H4 C8 1_555 1_555
C9 C8 1_555 1_555
C10 C6 1_555 1_555
H5 C10 1_555 1_555
N1A C1A 1_555 1_555
N2A C3A 1_555 1_555
C1A H1A 1_555 1_555
C3A N2 1_555 1_555
C4A C1A 1_555 1_555
H2A C4A 1_555 1_555
C5A C3A 1_555 1_555
N1B C1B 1_555 1_555
N2B C3 1_555 1_555
C1B H1B 1_555 1_555
C3B N2A 1_555 1_555
C4B C1B 1_555 1_555
H2B C4B 1_555 1_555
C5B C3B 1_555 1_555
C1C N1A 1_555 1_555
H1C C1C 1_555 1_555
C4C C5A 1_555 1_555
H2C C4C 1_555 1_555
C1D N1 1_555 1_555
H1D C1D 1_555 1_555
C4D C5 1_555 1_555
H2D C4D 1_555 1_555
C1E N1B 1_555 1_555
H1E C1E 1_555 1_555
C4E C5B 1_555 1_555
H2E C4E 1_555 1_555
O2F C2F 1_555 1_555
O3F C2F 1_555 1_555
C2F C6F 1_555 1_555
C6F C7F 1_555 1_555
C7F H3F 1_555 1_555
C8F C7F 1_555 1_555
H4F C8F 1_555 1_555
C9F C9 1_555 1_555
C10F C9 1_555 1_555
H5F C10F 1_555 1_555
Ni1A O3 1_555 1_555
O2A Ni1A 1_555 1_555
O3A C2A 1_555 1_555
C2A O2A 1_555 1_555
C6A C2A 1_555 1_555
C7A C6A 1_555 1_555
H3A C7A 1_555 1_555
C8A C7A 1_555 1_555
H4A C8A 1_555 1_555
C9A C8A 1_555 1_555
C10A C6A 1_555 1_555
H5A C10A 1_555 1_555
O2G C2G 1_555 1_555
O3G C2G 1_555 1_555
C2G C6G 1_555 1_555
C6G C7G 1_555 1_555
C7G H3G 1_555 1_555
C8G C7G 1_555 1_555
H4G C8G 1_555 1_555
C9G C9A 1_555 1_555
C10G C9A 1_555 1_555
H5G C10G 1_555 1_555
Ni1B O1 1_555 1_555
O2B Ni1B 1_555 1_555
O3B Ni1 1_555 1_555
C2B O2B 1_555 1_555
C6B C2B 1_555 1_555
C7B C6B 1_555 1_555
H3B C7B 1_555 1_555
C8B C7B 1_555 1_555
H4B C8B 1_555 1_555
C9B C8B 1_555 1_555
C10B C6B 1_555 1_555
H5B C10B 1_555 1_555
O2H C2H 1_555 1_555
O3H C2H 1_555 1_555
C2H C6H 1_555 1_555
C6H C7H 1_555 1_555
C7H H3H 1_555 1_555
C8H C7H 1_555 1_555
H4H C8H 1_555 1_555
C9H C9B 1_555 1_555
C10H C9B 1_555 1_555
H5H C10H 1_555 1_555
Ni1A_2 N1A 1_555 1_555
Ni1B_2 N1B 1_555 1_555
Ni1F O2F 1_555 1_555
Ni1F_2 O3H 1_555 1_555
Ni1G O2G 1_555 1_555
Ni1G_2 O3F 1_555 1_555
Ni1H O3G 1_555 1_555
Ni1H_2 O2H 1_555 1_555
N1A_2 Ni1A 1_555 1_555
N1B_2 Ni1B 1_555 1_555
O2C Ni1A 1_555 1_555
O2D Ni1 1_555 1_555
O2E Ni1B 1_555 1_555
O3C Ni1 1_555 1_555
O3D Ni1B 1_555 1_555
O3E Ni1A 1_555 1_555
C10 C9F 1_555 1_555
C4A C5A 1_555 1_555
N2B C3B 1_555 1_555
C4B C5B 1_555 1_555
C1C C4C 1_555 1_555
C1D C4D 1_555 1_555
C1E C4E 1_555 1_555
C6F C10F 1_555 1_555
C8F C9F 1_555 1_555
O3A Ni1B 1_555 1_555
C10A C9G 1_555 1_555
C6G C10G 1_555 1_555
C8G C9G 1_555 1_555
O3B C2B 1_555 1_555
C10B C9H 1_555 1_555
C6H C10H 1_555 1_555
C8H C9H 1_555 1_555

#END
