
#######################################################################
#
#                 Cambridge Crystallographic Data Centre
#                                CCDC 
#
#######################################################################
#
# If this CIF has been generated from an entry in the Cambridge 
# Structural Database, then it will include bibliographic, chemical, 
# crystal, experimental, refinement or atomic coordinate data resulting 
# from the CCDC's data processing and validation procedures.
#
#######################################################################

data_ROYKEX
_chemical_name_common            CPM-33d
_chemical_formula_moiety         '(C54 H31 N6 Ni3 O13)n'
_chemical_name_systematic        
catena-(tris(\m~4~-Naphthalene-1,4-dicarboxylato)-(\m~3~-hydroxo)-(\m~3~-2,4,6-tris(pyridin-4-yl)-1,3,5-triazine)-tri-nickel)
_symmetry_cell_setting           trigonal
_symmetry_space_group_name_H-M   'P -3 1 c'
_symmetry_Int_Tables_number      163
_space_group_name_Hall           '-P 3 2c'
loop_
_symmetry_equiv_pos_site_id
_symmetry_equiv_pos_as_xyz
1 x,y,z
2 -y,x-y,z
3 -x+y,-x,z
4 -y,-x,1/2-z
5 -x+y,y,1/2-z
6 x,x-y,1/2-z
7 -x,-y,-z
8 y,-x+y,-z
9 x-y,x,-z
10 y,x,1/2+z
11 x-y,-y,1/2+z
12 -x,-x+y,1/2+z
_cell_length_a                   16.7342(3)
_cell_length_b                   16.7342(3)
_cell_length_c                   15.2330(5)
_cell_angle_alpha                90
_cell_angle_beta                 90
_cell_angle_gamma                120
_cell_volume                     3694.25
_exptl_crystal_colour            yellow
_exptl_crystal_description       block
_cell_formula_units_Z            2
loop_
_atom_site_label
_atom_site_type_symbol
_atom_site_fract_x
_atom_site_fract_y
_atom_site_fract_z
Ni1 Ni 0.73530(2) 0.47059(4) 0.2500
O1 O 0.6667 0.3333 0.2500
N1 N 0.80800(18) 0.6160(4) 0.2500
C1 C 0.5739(3) 0.4265(3) 0.3692(3)
O2 O 0.6526(3) 0.4779(2) 0.3448(3)
N2 N 1.0473(2) 0.9527(2) 0.2500
O3 O 0.5220(2) 0.3476(4) 0.3449(3)
C2 C 0.5351(3) 0.4650(3) 0.4365(3)
C3 C 0.7651(4) 0.6638(4) 0.2494(5)
H1 H 0.7009 0.6314 0.2491
C4 C 0.9033(3) 0.8066(5) 0.2500
C5 C 0.9554(3) 0.9108(5) 0.2500
C6 C 0.8088(4) 0.7585(4) 0.2493(5)
H2 H 0.7753 0.7891 0.2487
C7 C 0.5708(8) 0.4788(6) 0.5241(8)
C8 C 0.5344(10) 0.5180(10) 0.5858(8)
C9 C 0.5702(17) 0.5268(16) 0.6741(15)
C10 C 0.6412(15) 0.4571(14) 0.5538(15)
C11 C 0.6693(19) 0.4687(16) 0.6373(15)
C12 C 0.6340(17) 0.5059(16) 0.7023(17)
H3 H 0.6540 0.5148 0.7603
H4 H 0.7127 0.4524 0.6540
H5 H 0.6670 0.4348 0.5135
H6 H 0.5465 0.5496 0.7162
N1A N 1.3840(4) 1.19200(44) 0.2500
N2A N 1.0473(2) 1.0946(3) 0.2500
C3A C 1.3362(4) 1.1013(6) 0.2494(5)
H1A H 1.3686 1.0695 0.2491
C4A C 1.1934(5) 1.0967(6) 0.2500
C5A C 1.0892(5) 1.0446(6) 0.2500
C6A C 1.2415(4) 1.0503(6) 0.2493(5)
H2A H 1.2109 0.9862 0.2487
N1B N 0.80800(44) 1.19200(18) 0.2500
N2B N 0.9054(3) 0.9527(2) 0.2500
C3B C 0.8987(6) 1.2349(4) 0.2494(5)
H1B H 0.9305 1.2991 0.2491
C4B C 0.9033(6) 1.0967(3) 0.2500
C5B C 0.9554(6) 1.0446(3) 0.2500
C6B C 0.9497(6) 1.1912(4) 0.2493(5)
H2B H 1.0138 1.2247 0.2487
C3C C 1.3362(4) 1.2349(4) 0.2506(5)
H1C H 1.3686 1.2991 0.2509
C6C C 1.2415(4) 1.1912(4) 0.2507(5)
H2C H 1.2109 1.2247 0.2513
C3D C 0.8987(6) 0.6638(4) 0.2506(5)
H1D H 0.9305 0.6314 0.2509
C6D C 0.9497(6) 0.7585(4) 0.2507(5)
H2D H 1.0138 0.7891 0.2513
C3E C 0.7651(4) 1.1013(6) 0.2506(5)
H1E H 0.7009 1.0695 0.2509
C6E C 0.8088(4) 1.0503(6) 0.2507(5)
H2E H 0.7753 0.9862 0.2513
C1F C 0.4261(3) 0.5735(3) 0.6308(3)
O2F O 0.3474(3) 0.5221(2) 0.6552(3)
O3F O 0.4780(2) 0.6524(4) 0.6551(3)
C2F C 0.4649(3) 0.5350(3) 0.5635(3)
C7F C 0.4292(8) 0.5212(6) 0.4759(8)
C8F C 0.4656(10) 0.4820(10) 0.4142(8)
C9F C 0.4298(17) 0.4732(16) 0.3259(15)
C10F C 0.3588(15) 0.5429(14) 0.4462(15)
C11F C 0.3307(19) 0.5313(16) 0.3627(15)
C12F C 0.3660(17) 0.4941(16) 0.2977(17)
H3F H 0.3460 0.4852 0.2397
H4F H 0.2873 0.5476 0.3460
H5F H 0.3330 0.5652 0.4865
H6F H 0.4535 0.4504 0.2838
Ni1A Ni 0.52941(4) 0.26471(4) 0.2500
C1A C 0.5735(3) 0.1474(4) 0.3692(3)
O2A O 0.5221(2) 0.1747(4) 0.3448(3)
O3A O 0.6524(4) 0.1744(4) 0.3449(3)
C2A C 0.5350(3) 0.0701(4) 0.4365(3)
C7A C 0.5212(6) 0.0920(10) 0.5241(8)
C8A C 0.4820(10) 0.0164(14) 0.5858(8)
C9A C 0.4732(16) 0.0434(23) 0.6741(15)
C10A C 0.5429(14) 0.1841(21) 0.5538(15)
C11A C 0.5313(16) 0.2006(25) 0.6373(15)
C12A C 0.4941(16) 0.1281(23) 0.7023(17)
H3A H 0.4852 0.1392 0.7603
H4A H 0.5476 0.2603 0.6540
H5A H 0.5652 0.2322 0.5135
H6A H 0.4504 -0.0031 0.7162
C1G C 0.4265(3) -0.1474(4) 0.6308(3)
O2G O 0.4779(2) -0.1747(4) 0.6552(3)
O3G O 0.3476(4) -0.1744(4) 0.6551(3)
C2G C 0.4650(3) -0.0701(4) 0.5635(3)
C7G C 0.4788(6) -0.0920(10) 0.4759(8)
C8G C 0.5180(10) -0.0164(14) 0.4142(8)
C9G C 0.5268(16) -0.0434(23) 0.3259(15)
C10G C 0.4571(14) -0.1841(21) 0.4462(15)
C11G C 0.4687(16) -0.2006(25) 0.3627(15)
C12G C 0.5059(16) -0.1281(23) 0.2977(17)
H3G H 0.5148 -0.1392 0.2397
H4G H 0.4524 -0.2603 0.3460
H5G H 0.4348 -0.2322 0.4865
H6G H 0.5496 0.0031 0.2838
Ni1B Ni 0.73529(4) 0.26470(2) 0.2500
C1B C 0.8526(4) 0.4261(3) 0.3692(3)
O2B O 0.8253(4) 0.3474(3) 0.3448(3)
O3B O 0.8256(4) 0.4780(2) 0.3449(3)
C2B C 0.9299(4) 0.4649(3) 0.4365(3)
C7B C 0.9080(10) 0.4292(8) 0.5241(8)
C8B C 0.9836(14) 0.4656(10) 0.5858(8)
C9B C 0.9566(23) 0.4298(17) 0.6741(15)
C10B C 0.8159(21) 0.3588(15) 0.5538(15)
C11B C 0.7994(25) 0.3307(19) 0.6373(15)
C12B C 0.8719(23) 0.3660(17) 0.7023(17)
H3B H 0.8608 0.3460 0.7603
H4B H 0.7397 0.2873 0.6540
H5B H 0.7678 0.3330 0.5135
H6B H 1.0031 0.4535 0.7162
C1H C 1.1474(4) 0.5739(3) 0.6308(3)
O2H O 1.1747(4) 0.6526(3) 0.6552(3)
O3H O 1.1744(4) 0.5220(2) 0.6551(3)
C2H C 1.0701(4) 0.5351(3) 0.5635(3)
C7H C 1.0920(10) 0.5708(8) 0.4759(8)
C8H C 1.0164(14) 0.5344(10) 0.4142(8)
C9H C 1.0434(23) 0.5702(17) 0.3259(15)
C10H C 1.1841(21) 0.6412(15) 0.4462(15)
C11H C 1.2006(25) 0.6693(19) 0.3627(15)
C12H C 1.1281(23) 0.6340(17) 0.2977(17)
H3H H 1.1392 0.6540 0.2397
H4H H 1.2603 0.7127 0.3460
H5H H 1.2322 0.6670 0.4865
H6H H 0.9969 0.5465 0.2838
Ni1A_2 Ni 1.52941(4) 1.26471(4) 0.2500
Ni1B_2 Ni 0.73529(4) 1.26470(2) 0.2500
Ni1F Ni 0.26470(2) 0.52941(4) 0.7500
Ni1F_2 Ni 1.26470(2) 0.52941(4) 0.7500
Ni1G Ni 0.47059(4) -0.26471(4) 0.7500
Ni1G_2 Ni 0.47059(4) 0.73529(4) 0.7500
Ni1H Ni 0.26471(4) -0.26470(2) 0.7500
Ni1H_2 Ni 1.26471(4) 0.73530(2) 0.7500
N1A_2 N 0.3840(4) 0.19200(44) 0.2500
N1B_2 N 0.80800(44) 0.19200(18) 0.2500
O2C O 0.5221(2) 0.3474(3) 0.1552(3)
O2D O 0.8253(4) 0.4779(2) 0.1552(3)
O2E O 0.6526(3) 0.1747(4) 0.1552(3)
O3C O 0.6524(4) 0.4780(2) 0.1551(3)
O3D O 0.8256(4) 0.3476(4) 0.1551(3)
O3E O 0.5220(2) 0.1744(4) 0.1551(3)
C13? C 0.5408(16) 0.3625(16) 0.5539(17)
H7? H 0.5636 0.3379 0.5127
C14? C 0.5312(18) 0.329(2) 0.6414(17)
C15? C 0.4893(18) 0.3596(19) 0.7021(19)
C16? C 0.4772(11) 0.4613(11) 0.5840(9)
H8? H 0.4759 0.3362 0.7589
C17? C 0.4686(18) 0.4262(19) 0.6738(16)
H9? H 0.4471 0.4510 0.7160
H10? H 0.5518 0.2893 0.6576
C18? C 0.5192(6) 0.4290(8) 0.5237(8)
loop_
_geom_bond_atom_site_label_1
_geom_bond_atom_site_label_2
_geom_bond_site_symmetry_1
_geom_bond_site_symmetry_2
Ni1 O1 1_555 1_555
O1 Ni1A 1_555 1_555
N1 Ni1 1_555 1_555
C1 O2 1_555 1_555
O2 Ni1 1_555 1_555
N2 C5 1_555 1_555
O3 C1 1_555 1_555
C2 C1 1_555 1_555
C3 N1 1_555 1_555
H1 C3 1_555 1_555
C4 C5 1_555 1_555
C5 N2B 1_555 1_555
C6 C3 1_555 1_555
H2 C6 1_555 1_555
C7 C2 1_555 1_555
C8 C7 1_555 1_555
C9 C8 1_555 1_555
C10 C7 1_555 1_555
C11 C10 1_555 1_555
C12 C9 1_555 1_555
H3 C12 1_555 1_555
H4 C11 1_555 1_555
H5 C10 1_555 1_555
H6 C9 1_555 1_555
N1A C3A 1_555 1_555
N2A C5A 1_555 1_555
C3A H1A 1_555 1_555
C4A C5A 1_555 1_555
C5A N2 1_555 1_555
C6A C3A 1_555 1_555
H2A C6A 1_555 1_555
N1B C3B 1_555 1_555
N2B C5B 1_555 1_555
C3B H1B 1_555 1_555
C4B C5B 1_555 1_555
C5B N2A 1_555 1_555
C6B C3B 1_555 1_555
H2B C6B 1_555 1_555
C3C N1A 1_555 1_555
H1C C3C 1_555 1_555
C6C C4A 1_555 1_555
H2C C6C 1_555 1_555
C3D N1 1_555 1_555
H1D C3D 1_555 1_555
C6D C4 1_555 1_555
H2D C6D 1_555 1_555
C3E N1B 1_555 1_555
H1E C3E 1_555 1_555
C6E C4B 1_555 1_555
H2E C6E 1_555 1_555
C1F O2F 1_555 1_555
O2F Ni1F 1_555 1_555
O3F C1F 1_555 1_555
C2F C8 1_555 1_555
C7F C2F 1_555 1_555
C8F C2 1_555 1_555
C9F C8F 1_555 1_555
C10F C7F 1_555 1_555
C11F C10F 1_555 1_555
C12F C9F 1_555 1_555
H3F C12F 1_555 1_555
H4F C11F 1_555 1_555
H5F C10F 1_555 1_555
H6F C9F 1_555 1_555
Ni1A O3 1_555 1_555
C1A O2A 1_555 1_555
O2A Ni1A 1_555 1_555
O3A C1A 1_555 1_555
C2A C1A 1_555 1_555
C7A C2A 1_555 1_555
C8A C7A 1_555 1_555
C9A C8A 1_555 1_555
C10A C7A 1_555 1_555
C11A C10A 1_555 1_555
C12A C9A 1_555 1_555
H3A C12A 1_555 1_555
H4A C11A 1_555 1_555
H5A C10A 1_555 1_555
H6A C9A 1_555 1_555
C1G O2G 1_555 1_555
O2G Ni1G 1_555 1_555
O3G C1G 1_555 1_555
C2G C8A 1_555 1_555
C7G C2G 1_555 1_555
C8G C2A 1_555 1_555
C9G C8G 1_555 1_555
C10G C7G 1_555 1_555
C11G C10G 1_555 1_555
C12G C9G 1_555 1_555
H3G C12G 1_555 1_555
H4G C11G 1_555 1_555
H5G C10G 1_555 1_555
H6G C9G 1_555 1_555
Ni1B O1 1_555 1_555
C1B O2B 1_555 1_555
O2B Ni1B 1_555 1_555
O3B Ni1 1_555 1_555
C2B C1B 1_555 1_555
C7B C2B 1_555 1_555
C8B C7B 1_555 1_555
C9B C8B 1_555 1_555
C10B C7B 1_555 1_555
C11B C10B 1_555 1_555
C12B C9B 1_555 1_555
H3B C12B 1_555 1_555
H4B C11B 1_555 1_555
H5B C10B 1_555 1_555
H6B C9B 1_555 1_555
C1H O2H 1_555 1_555
O2H Ni1H_2 1_555 1_555
O3H C1H 1_555 1_555
C2H C8B 1_555 1_555
C7H C2H 1_555 1_555
C8H C2B 1_555 1_555
C9H C8H 1_555 1_555
C10H C7H 1_555 1_555
C11H C10H 1_555 1_555
C12H C9H 1_555 1_555
H3H C12H 1_555 1_555
H4H C11H 1_555 1_555
H5H C10H 1_555 1_555
H6H C9H 1_555 1_555
Ni1A_2 N1A 1_555 1_555
Ni1B_2 N1B 1_555 1_555
Ni1F_2 O3H 1_555 1_555
Ni1G_2 O3F 1_555 1_555
Ni1H O3G 1_555 1_555
N1A_2 Ni1A 1_555 1_555
N1B_2 Ni1B 1_555 1_555
O2C Ni1A 1_555 1_555
O2D Ni1 1_555 1_555
O2E Ni1B 1_555 1_555
O3C Ni1 1_555 1_555
O3D Ni1B 1_555 1_555
O3E Ni1A 1_555 1_555
C4 C6 1_555 1_555
C11 C12 1_555 1_555
C4A C6A 1_555 1_555
C4B C6B 1_555 1_555
C3C C6C 1_555 1_555
C3D C6D 1_555 1_555
C3E C6E 1_555 1_555
C1F C2F 1_555 1_555
C7F C8F 1_555 1_555
C11F C12F 1_555 1_555
O3A Ni1B 1_555 1_555
C11A C12A 1_555 1_555
C1G C2G 1_555 1_555
C7G C8G 1_555 1_555
C11G C12G 1_555 1_555
C1B O3B 1_555 1_555
C11B C12B 1_555 1_555
C1H C2H 1_555 1_555
C7H C8H 1_555 1_555
C11H C12H 1_555 1_555

#END
