
#######################################################################
#
#                 Cambridge Crystallographic Data Centre
#                                CCDC 
#
#######################################################################
#
# If this CIF has been generated from an entry in the Cambridge 
# Structural Database, then it will include bibliographic, chemical, 
# crystal, experimental, refinement or atomic coordinate data resulting 
# from the CCDC's data processing and validation procedures.
#
#######################################################################

data_ROYLAU
_chemical_name_common            CPM-35
_chemical_formula_moiety         '(C60 H37 N6 Ni3 O13)n'
_chemical_name_systematic        
catena-(tris(\m~4~-Biphenyl-4,4'-dicarboxylato)-(\m~3~-hydroxo)-(\m~3~-2,4,6-tris(pyridin-4-yl)-1,3,5-triazine)-tri-nickel)
_symmetry_cell_setting           hexagonal
_symmetry_space_group_name_H-M   'P 63/m m c'
_symmetry_Int_Tables_number      194
_space_group_name_Hall           '-P 6c 2c'
loop_
_symmetry_equiv_pos_site_id
_symmetry_equiv_pos_as_xyz
1 x,y,z
2 -y,x-y,z
3 -x+y,-x,z
4 -x,-y,1/2+z
5 y,-x+y,1/2+z
6 x-y,x,1/2+z
7 y,x,-z
8 x-y,-y,-z
9 -x,-x+y,-z
10 -y,-x,1/2-z
11 -x+y,y,1/2-z
12 x,x-y,1/2-z
13 -x,-y,-z
14 y,-x+y,-z
15 x-y,x,-z
16 x,y,1/2-z
17 -y,x-y,1/2-z
18 -x+y,-x,1/2-z
19 -y,-x,z
20 -x+y,y,z
21 x,x-y,z
22 y,x,1/2+z
23 x-y,-y,1/2+z
24 -x,-x+y,1/2+z
_cell_length_a                   16.6492(15)
_cell_length_b                   16.6492(15)
_cell_length_c                   25.836(3)
_cell_angle_alpha                90
_cell_angle_beta                 90
_cell_angle_gamma                120
_cell_volume                     6202.16
_exptl_crystal_colour            green
_exptl_crystal_description       block
_cell_formula_units_Z            2
loop_
_atom_site_label
_atom_site_type_symbol
_atom_site_fract_x
_atom_site_fract_y
_atom_site_fract_z
Ni1 Ni 0.52894(3) 0.264468(14) 0.7500
O1 O 0.6667 0.3333 0.7500
O2 O 0.52070(9) 0.34517(10) 0.69282(5)
N1 N 0.04741(11) -0.04741(11) 0.7500
N2 N 0.38465(19) 0.19232(10) 0.7500
C1 C 0.57851(10) 0.42149(10) 0.67464(11)
C2 C 0.1924(3) 0.09622(13) 0.7500
C3 C 0.33735(19) 0.10063(18) 0.7500
H1 H 0.3700 0.0688 0.7500
C4 C 0.0906(3) 0.04530(13) 0.7500
C5 C 0.24221(18) 0.05030(19) 0.7500
H2 H 0.2116 -0.0142 0.7500
C6 C 0.55346(12) 0.44654(12) 0.62340(11)
C7 C 0.51050(14) 0.48950(14) 0.52633(14)
C8 C 0.5998(12) 0.5306(13) 0.6022(7)
H3 H 0.6503 0.5770 0.6200
C9 C 0.5768(12) 0.5519(12) 0.5558(7)
H4 H 0.6094 0.6130 0.5443
O2F O 0.34517(10) 0.52070(9) 0.30718(5)
C1F C 0.42149(10) 0.57851(10) 0.32536(11)
C6F C 0.44654(12) 0.55346(12) 0.37660(11)
C7F C 0.48950(14) 0.51050(14) 0.47367(14)
C8F C 0.5306(13) 0.5998(12) 0.3978(7)
H3F H 0.5770 0.6503 0.3800
C9F C 0.5519(12) 0.5768(12) 0.4442(7)
H4F H 0.6130 0.6094 0.4557
O2L O 0.47930(9) 0.65483(10) 0.30718(5)
C8L C 0.4002(12) 0.4694(13) 0.3978(7)
H3L H 0.3497 0.4230 0.3800
C9L C 0.4232(12) 0.4481(12) 0.4442(7)
H4L H 0.3906 0.3870 0.4557
O2R O 0.65483(10) 0.47930(9) 0.69282(5)
C8R C 0.4694(13) 0.4002(12) 0.6022(7)
H3R H 0.4230 0.3497 0.6200
C9R C 0.4481(12) 0.4232(12) 0.5558(7)
H4R H 0.3870 0.3906 0.5443
N1A N 0.04741(11) 0.09482(16) 0.7500
N2A N -0.19232(10) 0.19233(21) 0.7500
C2A C -0.09622(13) 0.09618(33) 0.7500
C3A C -0.10063(18) 0.23672(26) 0.7500
H1A H -0.0688 0.3012 0.7500
C4A C -0.04530(13) 0.04530(33) 0.7500
C5A C -0.05030(19) 0.19191(26) 0.7500
H2A H 0.0142 0.2258 0.7500
N1B N -0.09482(16) -0.04741(11) 0.7500
N2B N -0.19233(21) -0.38465(19) 0.7500
C2B C -0.09618(33) -0.1924(3) 0.7500
C3B C -0.23672(26) -0.33735(19) 0.7500
H1B H -0.3012 -0.3700 0.7500
C4B C -0.04530(33) -0.0906(3) 0.7500
C5B C -0.19191(26) -0.24221(18) 0.7500
H2B H -0.2258 -0.2116 0.7500
C3I C -0.10063(18) -0.33735(19) 0.7500
H1I H -0.0688 -0.3700 0.7500
C5I C -0.05030(19) -0.24221(18) 0.7500
H2I H 0.0142 -0.2116 0.7500
C3J C -0.23672(26) 0.10063(18) 0.7500
H1J H -0.3012 0.0688 0.7500
C5J C -0.19191(26) 0.05030(19) 0.7500
H2J H -0.2258 -0.0142 0.7500
C3K C 0.33735(19) 0.23672(26) 0.7500
H1K H 0.3700 0.3012 0.7500
C5K C 0.24221(18) 0.19191(26) 0.7500
H2K H 0.2116 0.2258 0.7500
Ni1A Ni -0.264468(14) 0.264472(33) 0.7500
O2A O -0.34517(10) 0.17553(13) 0.69282(5)
C1A C -0.42149(10) 0.15702(14) 0.67464(11)
C6A C -0.44654(12) 0.10692(17) 0.62340(11)
C7A C -0.48950(14) 0.02100(20) 0.52633(14)
C8A C -0.5306(13) 0.0692(18) 0.6022(7)
H3A H -0.5770 0.0733 0.6200
C9A C -0.5519(12) 0.0249(17) 0.5558(7)
H4A H -0.6130 -0.0036 0.5443
O2H O -0.52070(9) -0.17553(13) 0.30718(5)
C1H C -0.57851(10) -0.15702(14) 0.32536(11)
C6H C -0.55346(12) -0.10692(17) 0.37660(11)
C7H C -0.51050(14) -0.02100(20) 0.47367(14)
C8H C -0.5998(12) -0.0692(18) 0.3978(7)
H3H H -0.6503 -0.0733 0.3800
C9H C -0.5768(12) -0.0249(17) 0.4442(7)
H4H H -0.6094 0.0036 0.4557
O2M O -0.65483(10) -0.17553(13) 0.30718(5)
C8M C -0.4694(13) -0.0692(18) 0.3978(7)
H3M H -0.4230 -0.0733 0.3800
C9M C -0.4481(12) -0.0249(17) 0.4442(7)
H4M H -0.3870 0.0036 0.4557
O2T O -0.47930(9) 0.17553(13) 0.69282(5)
C8T C -0.4002(12) 0.0692(18) 0.6022(7)
H3T H -0.3497 0.0733 0.6200
C9T C -0.4232(12) 0.0249(17) 0.5558(7)
H4T H -0.3906 -0.0036 0.5443
Ni1B Ni -0.264472(33) -0.52894(3) 0.7500
O2B O -0.17553(13) -0.52070(9) 0.69282(5)
C1B C -0.15702(14) -0.57851(10) 0.67464(11)
C6B C -0.10692(17) -0.55346(12) 0.62340(11)
C7B C -0.02100(20) -0.51050(14) 0.52633(14)
C8B C -0.0692(18) -0.5998(12) 0.6022(7)
H3B H -0.0733 -0.6503 0.6200
C9B C -0.0249(17) -0.5768(12) 0.5558(7)
H4B H 0.0036 -0.6094 0.5443
O2G O 0.17553(13) -0.34517(10) 0.30718(5)
C1G C 0.15702(14) -0.42149(10) 0.32536(11)
C6G C 0.10692(17) -0.44654(12) 0.37660(11)
C7G C 0.02100(20) -0.48950(14) 0.47367(14)
C8G C 0.0692(18) -0.5306(13) 0.3978(7)
H3G H 0.0733 -0.5770 0.3800
C9G C 0.0249(17) -0.5519(12) 0.4442(7)
H4G H -0.0036 -0.6130 0.4557
O2N O 0.17553(13) -0.47930(9) 0.30718(5)
C8N C 0.0692(18) -0.4002(12) 0.3978(7)
H3N H 0.0733 -0.3497 0.3800
C9N C 0.0249(17) -0.4232(12) 0.4442(7)
H4N H -0.0036 -0.3906 0.4557
O2S O -0.17553(13) -0.65483(10) 0.69282(5)
C8S C -0.0692(18) -0.4694(13) 0.6022(7)
H3S H -0.0733 -0.4230 0.6200
C9S C -0.0249(17) -0.4481(12) 0.5558(7)
H4S H 0.0036 -0.3870 0.5443
Ni1_2 Ni -0.47106(3) 0.264468(14) 0.7500
Ni1A_2 Ni -0.264468(14) -0.735528(33) 0.7500
Ni1A_3 Ni 0.735532(14) 0.264472(33) 0.7500
Ni1B_2 Ni 0.735528(33) 0.47106(3) 0.7500
Ni1C Ni -0.52894(3) -0.264468(14) 0.2500
Ni1C_2 Ni 0.47106(3) 0.735532(14) 0.2500
Ni1D Ni -0.735532(14) -0.264472(33) 0.2500
Ni1D_2 Ni 0.264468(14) -0.264472(33) 0.2500
Ni1E Ni 0.264472(33) -0.47106(3) 0.2500
Ni1E_2 Ni 0.264472(33) 0.52894(3) 0.2500
O1_2 O -0.3333 -0.6667 0.7500
O1_3 O -0.3333 0.3333 0.7500
O2I O -0.34517(10) -0.52070(9) 0.80718(5)
O2J O -0.17553(13) 0.34517(10) 0.80718(5)
O2K O 0.52070(9) 0.17553(13) 0.80718(5)
O2O O 0.52070(9) 0.34517(10) 0.80718(5)
O2P O -0.34517(10) 0.17553(13) 0.80718(5)
O2Q O -0.17553(13) -0.52070(9) 0.80718(5)
O2R_2 O -0.34517(10) -0.52070(9) 0.69282(5)
O2S_2 O -0.17553(13) 0.34517(10) 0.69282(5)
O2T_2 O 0.52070(9) 0.17553(13) 0.69282(5)
C10? C 0.6269(15) 0.5207(14) 0.5944(8)
H5? H 0.6866 0.5537 0.6079
C11? C 0.6066(14) 0.5421(13) 0.5455(8)
H6? H 0.6529 0.5886 0.5255
loop_
_geom_bond_atom_site_label_1
_geom_bond_atom_site_label_2
_geom_bond_site_symmetry_1
_geom_bond_site_symmetry_2
Ni1 O1 1_555 1_555
O1 Ni1A_3 1_555 1_555
O2 Ni1 1_555 1_555
N1 C4 1_555 1_555
N2 Ni1 1_555 1_555
C1 O2 1_555 1_555
C2 C4 1_555 1_555
C3 N2 1_555 1_555
H1 C3 1_555 1_555
C4 N1A 1_555 1_555
C5 C2 1_555 1_555
H2 C5 1_555 1_555
C6 C1 1_555 1_555
C7 C9 1_555 1_555
C8 C6 1_555 1_555
H3 C8 1_555 1_555
C9 C8 1_555 1_555
H4 C9 1_555 1_555
O2F C1F 1_555 1_555
C1F C6F 1_555 1_555
C6F C8F 1_555 1_555
C7F C7 1_555 1_555
C8F H3F 1_555 1_555
C9F C7F 1_555 1_555
H4F C9F 1_555 1_555
O2L C1F 1_555 1_555
C8L C6F 1_555 1_555
H3L C8L 1_555 1_555
C9L C7F 1_555 1_555
H4L C9L 1_555 1_555
O2R C1 1_555 1_555
C8R C6 1_555 1_555
H3R C8R 1_555 1_555
C9R C7 1_555 1_555
H4R C9R 1_555 1_555
N1A C4A 1_555 1_555
N2A C3A 1_555 1_555
C2A C4A 1_555 1_555
C3A H1A 1_555 1_555
C4A N1B 1_555 1_555
C5A C2A 1_555 1_555
H2A C5A 1_555 1_555
N1B C4B 1_555 1_555
N2B C3B 1_555 1_555
C2B C4B 1_555 1_555
C3B H1B 1_555 1_555
C4B N1 1_555 1_555
C5B C2B 1_555 1_555
H2B C5B 1_555 1_555
C3I N2B 1_555 1_555
H1I C3I 1_555 1_555
C5I C2B 1_555 1_555
H2I C5I 1_555 1_555
C3J N2A 1_555 1_555
H1J C3J 1_555 1_555
C5J C2A 1_555 1_555
H2J C5J 1_555 1_555
C3K N2 1_555 1_555
H1K C3K 1_555 1_555
C5K C2 1_555 1_555
H2K C5K 1_555 1_555
Ni1A N2A 1_555 1_555
O2A Ni1A 1_555 1_555
C1A O2A 1_555 1_555
C6A C1A 1_555 1_555
C7A C9A 1_555 1_555
C8A C6A 1_555 1_555
H3A C8A 1_555 1_555
C9A C8A 1_555 1_555
H4A C9A 1_555 1_555
O2H C1H 1_555 1_555
C1H C6H 1_555 1_555
C6H C8H 1_555 1_555
C7H C7A 1_555 1_555
C8H H3H 1_555 1_555
C9H C7H 1_555 1_555
H4H C9H 1_555 1_555
O2M C1H 1_555 1_555
C8M C6H 1_555 1_555
H3M C8M 1_555 1_555
C9M C7H 1_555 1_555
H4M C9M 1_555 1_555
O2T C1A 1_555 1_555
C8T C6A 1_555 1_555
H3T C8T 1_555 1_555
C9T C7A 1_555 1_555
H4T C9T 1_555 1_555
Ni1B N2B 1_555 1_555
O2B Ni1B 1_555 1_555
C1B O2B 1_555 1_555
C6B C1B 1_555 1_555
C7B C9B 1_555 1_555
C8B C6B 1_555 1_555
H3B C8B 1_555 1_555
C9B C8B 1_555 1_555
H4B C9B 1_555 1_555
O2G C1G 1_555 1_555
C1G C6G 1_555 1_555
C6G C8G 1_555 1_555
C7G C7B 1_555 1_555
C8G H3G 1_555 1_555
C9G C7G 1_555 1_555
H4G C9G 1_555 1_555
O2N C1G 1_555 1_555
C8N C6G 1_555 1_555
H3N C8N 1_555 1_555
C9N C7G 1_555 1_555
H4N C9N 1_555 1_555
O2S C1B 1_555 1_555
C8S C6B 1_555 1_555
H3S C8S 1_555 1_555
C9S C7B 1_555 1_555
H4S C9S 1_555 1_555
Ni1_2 O2T 1_555 1_555
Ni1A_2 O2S 1_555 1_555
Ni1B_2 O1 1_555 1_555
Ni1C O2H 1_555 1_555
Ni1C_2 O2L 1_555 1_555
Ni1D O2M 1_555 1_555
Ni1D_2 O2G 1_555 1_555
Ni1E O2N 1_555 1_555
Ni1E_2 O2F 1_555 1_555
O1_2 Ni1B 1_555 1_555
O1_3 Ni1A 1_555 1_555
O2I Ni1B 1_555 1_555
O2J Ni1A 1_555 1_555
O2K Ni1 1_555 1_555
O2O Ni1 1_555 1_555
O2P Ni1A 1_555 1_555
O2Q Ni1B 1_555 1_555
O2R_2 Ni1B 1_555 1_555
O2S_2 Ni1A 1_555 1_555
O2T_2 Ni1 1_555 1_555
C3 C5 1_555 1_555
C8F C9F 1_555 1_555
C8L C9L 1_555 1_555
O2R Ni1B_2 1_555 1_555
C8R C9R 1_555 1_555
C3A C5A 1_555 1_555
C3B C5B 1_555 1_555
C3I C5I 1_555 1_555
C3J C5J 1_555 1_555
C3K C5K 1_555 1_555
C8H C9H 1_555 1_555
C8M C9M 1_555 1_555
C8T C9T 1_555 1_555
C8G C9G 1_555 1_555
C8N C9N 1_555 1_555
C8S C9S 1_555 1_555
Ni1_2 O1_3 1_555 1_555
Ni1A_2 O1_2 1_555 1_555

#END
