
#######################################################################
#
#                 Cambridge Crystallographic Data Centre
#                                CCDC 
#
#######################################################################
#
# If this CIF has been generated from an entry in the Cambridge 
# Structural Database, then it will include bibliographic, chemical, 
# crystal, experimental, refinement or atomic coordinate data resulting 
# from the CCDC's data processing and validation procedures.
#
#######################################################################

data_ROYLIC
_chemical_name_common            CPM-37
_chemical_formula_moiety         '(C66 H43 N6 Ni3 O16)n'
_chemical_name_systematic        
catena-(tris(\m~4~-Biphenyl-4,4'-dicarboxylato)-(\m~3~-hydroxo)-(\m~3~-N,N',N''-tris(4-pyridyl)-1,3,5-benzenetricarboxamide)-tri-nickel)
_symmetry_cell_setting           hexagonal
_symmetry_space_group_name_H-M   'P 63/m m c'
_symmetry_Int_Tables_number      194
_space_group_name_Hall           '-P 6c 2c'
loop_
_symmetry_equiv_pos_site_id
_symmetry_equiv_pos_as_xyz
1 x,y,z
2 -y,x-y,z
3 -x+y,-x,z
4 -x,-y,1/2+z
5 y,-x+y,1/2+z
6 x-y,x,1/2+z
7 y,x,-z
8 x-y,-y,-z
9 -x,-x+y,-z
10 -y,-x,1/2-z
11 -x+y,y,1/2-z
12 x,x-y,1/2-z
13 -x,-y,-z
14 y,-x+y,-z
15 x-y,x,-z
16 x,y,1/2-z
17 -y,x-y,1/2-z
18 -x+y,-x,1/2-z
19 -y,-x,z
20 -x+y,y,z
21 x,x-y,z
22 y,x,1/2+z
23 x-y,-y,1/2+z
24 -x,-x+y,1/2+z
_cell_length_a                   20.6087(2)
_cell_length_b                   20.6087(2)
_cell_length_c                   22.7238(5)
_cell_angle_alpha                90
_cell_angle_beta                 90
_cell_angle_gamma                120
_cell_volume                     8358.2
_exptl_crystal_colour            green
_exptl_crystal_description       block
_cell_formula_units_Z            2
loop_
_atom_site_label
_atom_site_type_symbol
_atom_site_fract_x
_atom_site_fract_y
_atom_site_fract_z
Ni1 Ni 0.72211(2) 0.27789(2) 0.7500
O1 O 0.6667 0.3333 0.7500
O2 O 0.7937(2) 0.3443(2) 0.68547(19)
C1 C 0.8144(3) 0.40718(17) 0.6679(2)
C2 C 0.8706(4) 0.43531(19) 0.6180(3)
C3 C 0.9084(12) 0.5082(9) 0.6029(9)
H1 H 0.9006 0.5420 0.6245
C4 C 0.9586(14) 0.5348(10) 0.5564(10)
H2 H 0.9829 0.5855 0.5468
C5 C 0.9726(5) 0.4863(3) 0.5243(4)
N1 N 0.78018(18) 0.21982(18) 0.7500
C6 C 0.8579(2) 0.1421(2) 0.7500
C7 C 0.8553(8) 0.2537(8) 0.7500
H3 H 0.8823 0.3058 0.7500
C8 C 0.8938(8) 0.2173(8) 0.7500
H4 H 0.9459 0.2443 0.7500
N2 N 0.8986(3) 0.1014(3) 0.757(3)
C9 C 0.8880(13) 0.0451(11) 0.7215(13)
O3 O 0.8214(12) -0.0021(12) 0.7000(12)
C10 C 0.9619(4) 0.0381(4) 0.7189(5)
C11 C 1.0396(4) 0.0792(8) 0.7189(5)
O2H O 1.2063(2) 0.5506(3) 0.31453(19)
C1H C 1.1856(3) 0.59278(34) 0.3321(2)
C2H C 1.1294(4) 0.56471(44) 0.3820(3)
C3H C 1.0916(12) 0.5998(15) 0.3971(9)
H1H H 1.0994 0.6414 0.3755
C4H C 1.0414(14) 0.5762(17) 0.4436(10)
H2H H 1.0171 0.6026 0.4532
C5H C 1.0274(5) 0.5137(6) 0.4757(4)
O2L O 1.2063(2) 0.6557(2) 0.31453(19)
C3L C 1.0916(12) 0.4918(9) 0.3971(9)
H1L H 1.0994 0.4580 0.3755
C4L C 1.0414(14) 0.4652(10) 0.4436(10)
H2L H 1.0171 0.4145 0.4532
O2T O 0.7937(2) 0.4494(3) 0.68547(19)
C3T C 0.9084(12) 0.4002(15) 0.6029(9)
H1T H 0.9006 0.3586 0.6245
C4T C 0.9586(14) 0.4238(17) 0.5564(10)
H2T H 0.9829 0.3974 0.5468
N1A N 0.78018(18) -0.43964(25) 0.7500
C6A C 0.8579(2) -0.2842(3) 0.7500
C7A C 0.7463(8) -0.3984(11) 0.7500
H3A H 0.6942 -0.4235 0.7500
C8A C 0.7827(8) -0.3235(11) 0.7500
H4A H 0.7557 -0.2984 0.7500
N2A N 0.8986(3) -0.2028(4) 0.757(3)
C9A C 0.9549(11) -0.1571(17) 0.7215(13)
O3A O 1.0021(12) -0.1765(17) 0.7000(12)
C10A C 0.9619(4) -0.0762(6) 0.7189(5)
C11A C 0.9208(8) -0.0396(9) 0.7189(5)
N1B N 1.43964(25) 0.21982(18) 0.7500
C6B C 1.2842(3) 0.1421(2) 0.7500
C7B C 1.3984(11) 0.1447(8) 0.7500
H3B H 1.4235 0.1177 0.7500
C8B C 1.3235(11) 0.1062(8) 0.7500
H4B H 1.2984 0.0541 0.7500
N2B N 1.2028(4) 0.1014(3) 0.757(3)
C9B C 1.1571(17) 0.1120(13) 0.7215(13)
O3B O 1.1765(17) 0.1786(12) 0.7000(12)
C10B C 1.0762(6) 0.0381(4) 0.7189(5)
C11B C 1.0396(9) -0.0396(4) 0.7189(5)
C7I C 0.7463(8) 0.1447(8) 0.7500
H3I H 0.6942 0.1177 0.7500
C8I C 0.7827(8) 0.1062(8) 0.7500
H4I H 0.7557 0.0541 0.7500
N2I N 0.8986(3) 0.1014(3) 0.743(3)
C9I C 0.9549(11) 0.1120(13) 0.7785(13)
O3I O 1.0021(12) 0.1786(12) 0.8000(12)
C10I C 0.9619(4) 0.0381(4) 0.7811(5)
C11I C 0.9208(8) -0.0396(4) 0.7811(5)
C7J C 1.3984(11) 0.2537(8) 0.7500
H3J H 1.4235 0.3058 0.7500
C8J C 1.3235(11) 0.2173(8) 0.7500
H4J H 1.2984 0.2443 0.7500
N2J N 1.2028(4) 0.1014(3) 0.743(3)
C9J C 1.1571(17) 0.0451(11) 0.7785(13)
O3J O 1.1765(17) -0.0021(12) 0.8000(12)
C10J C 1.0762(6) 0.0381(4) 0.7811(5)
C11J C 1.0396(9) 0.0792(8) 0.7811(5)
C7K C 0.8553(8) -0.3984(11) 0.7500
H3K H 0.8823 -0.4235 0.7500
C8K C 0.8938(8) -0.3235(11) 0.7500
H4K H 0.9459 -0.2984 0.7500
N2K N 0.8986(3) -0.2028(4) 0.743(3)
C9K C 0.8880(13) -0.1571(17) 0.7785(13)
O3K O 0.8214(12) -0.1765(17) 0.8000(12)
C10K C 0.9619(4) -0.0762(6) 0.7811(5)
C11K C 1.0396(4) -0.0396(9) 0.7811(5)
C9O C 0.8880(13) 0.0451(11) 0.7785(13)
O3O O 0.8214(12) -0.0021(12) 0.8000(12)
C9P C 0.9549(11) -0.1571(17) 0.7785(13)
O3P O 1.0021(12) -0.1765(17) 0.8000(12)
C9Q C 1.1571(17) 0.1120(13) 0.7785(13)
O3Q O 1.1765(17) 0.1786(12) 0.8000(12)
C9R C 0.9549(11) 0.1120(13) 0.7215(13)
O3R O 1.0021(12) 0.1786(12) 0.7000(12)
C9S C 1.1571(17) 0.0451(11) 0.7215(13)
O3S O 1.1765(17) -0.0021(12) 0.7000(12)
C9T C 0.8880(13) -0.1571(17) 0.7215(13)
O3T O 0.8214(12) -0.1765(17) 0.7000(12)
Ni1A Ni 0.72211(2) -0.55578(3) 0.7500
O2A O 0.6557(2) -0.5506(3) 0.68547(19)
C1A C 0.59282(17) -0.59278(34) 0.6679(2)
C2A C 0.56469(19) -0.56471(44) 0.6180(3)
C3A C 0.4918(9) -0.5998(15) 0.6029(9)
H1A H 0.4580 -0.6414 0.6245
C4A C 0.4652(10) -0.5762(17) 0.5564(10)
H2A H 0.4145 -0.6026 0.5468
C5A C 0.5137(3) -0.5137(6) 0.5243(4)
O2G O 0.4494(3) -0.3443(2) 0.31453(19)
C1G C 0.40722(34) -0.40718(17) 0.3321(2)
C2G C 0.43529(44) -0.43531(19) 0.3820(3)
C3G C 0.4002(15) -0.5082(9) 0.3971(9)
H1G H 0.3586 -0.5420 0.3755
C4G C 0.4238(17) -0.5348(10) 0.4436(10)
H2G H 0.3974 -0.5855 0.4532
C5G C 0.4863(6) -0.4863(3) 0.4757(4)
O2M O 0.3443(2) -0.4494(3) 0.31453(19)
C3M C 0.5082(9) -0.4002(15) 0.3971(9)
H1M H 0.5420 -0.3586 0.3755
C4M C 0.5348(10) -0.4238(17) 0.4436(10)
H2M H 0.5855 -0.3974 0.4532
O2S O 0.5506(3) -0.6557(2) 0.68547(19)
C3S C 0.5998(15) -0.4918(9) 0.6029(9)
H1S H 0.6414 -0.4580 0.6245
C4S C 0.5762(17) -0.4652(10) 0.5564(10)
H2S H 0.6026 -0.4145 0.5468
Ni1B Ni 0.55578(3) 0.27789(2) 0.7500
O2B O 0.5506(3) 0.2063(2) 0.68547(19)
C1B C 0.59278(34) 0.1856(3) 0.6679(2)
C2B C 0.56471(44) 0.1294(4) 0.6180(3)
C3B C 0.5998(15) 0.0916(12) 0.6029(9)
H1B H 0.6414 0.0994 0.6245
C4B C 0.5762(17) 0.0414(14) 0.5564(10)
H2B H 0.6026 0.0171 0.5468
C5B C 0.5137(6) 0.0274(5) 0.5243(4)
O2F O 0.3443(2) -0.2063(2) 0.31453(19)
C1F C 0.40718(17) -0.1856(3) 0.3321(2)
C2F C 0.43531(19) -0.1294(4) 0.3820(3)
C3F C 0.5082(9) -0.0916(12) 0.3971(9)
H1F H 0.5420 -0.0994 0.3755
C4F C 0.5348(10) -0.0414(14) 0.4436(10)
H2F H 0.5855 -0.0171 0.4532
C5F C 0.4863(3) -0.0274(5) 0.4757(4)
O2N O 0.4494(3) -0.2063(2) 0.31453(19)
C3N C 0.4002(15) -0.0916(12) 0.3971(9)
H1N H 0.3586 -0.0994 0.3755
C4N C 0.4238(17) -0.0414(14) 0.4436(10)
H2N H 0.3974 -0.0171 0.4532
O2R O 0.6557(2) 0.2063(2) 0.68547(19)
C3R C 0.4918(9) 0.0916(12) 0.6029(9)
H1R H 0.4580 0.0994 0.6245
C4R C 0.4652(10) 0.0414(14) 0.5564(10)
H2R H 0.4145 0.0171 0.5468
Ni1A_2 Ni 0.72211(2) 0.44422(3) 0.7500
Ni1B_2 Ni 0.55578(3) -0.72211(2) 0.7500
Ni1B_3 Ni 1.55578(3) 0.27789(2) 0.7500
Ni1C Ni 0.27789(2) -0.27789(2) 0.2500
Ni1C_2 Ni 1.27789(2) 0.72211(2) 0.2500
Ni1D Ni 0.27789(2) -0.44422(3) 0.2500
Ni1D_2 Ni 1.27789(2) 0.55578(3) 0.2500
Ni1E Ni 0.44422(3) -0.27789(2) 0.2500
O1_2 O 0.6667 -0.6667 0.7500
O2I O 0.6557(2) 0.2063(2) 0.81453(19)
O2J O 0.5506(3) 0.3443(2) 0.81453(19)
O2K O 0.7937(2) -0.5506(3) 0.81453(19)
O2O O 0.7937(2) 0.3443(2) 0.81453(19)
O2P O 0.6557(2) -0.5506(3) 0.81453(19)
O2Q O 0.5506(3) 0.2063(2) 0.81453(19)
O2S_2 O 0.5506(3) 0.3443(2) 0.68547(19)
O2T_2 O 0.7937(2) -0.5506(3) 0.68547(19)
N1B_2 N 0.43964(25) 0.21982(18) 0.7500
C12? C 0.8787(17) 0.4964(16) 0.5812(13)
H5? H 0.8527 0.5213 0.5900
C13? C 0.924(2) 0.5164(16) 0.5344(14)
H6? H 0.9247 0.5508 0.5077
C14? C 0.7997(4) 0.2003(4) 0.6993(8)
H7? H 0.7871 0.2129 0.6635
C15? C 0.8387(4) 0.1613(4) 0.7002(10)
H8? H 0.8516 0.1484 0.6646
loop_
_geom_bond_atom_site_label_1
_geom_bond_atom_site_label_2
_geom_bond_site_symmetry_1
_geom_bond_site_symmetry_2
Ni1 O1 1_555 1_555
O1 Ni1B 1_555 1_555
O2 Ni1 1_555 1_555
C1 O2 1_555 1_555
C2 C1 1_555 1_555
C3 C2 1_555 1_555
H1 C3 1_555 1_555
C4 C3 1_555 1_555
H2 C4 1_555 1_555
C5 C4 1_555 1_555
N1 Ni1 1_555 1_555
C6 C8 1_555 1_555
C7 N1 1_555 1_555
H3 C7 1_555 1_555
C8 C7 1_555 1_555
H4 C8 1_555 1_555
N2 C6 1_555 1_555
C9 N2 1_555 1_555
O3 C9 1_555 1_555
C10 C9 1_555 1_555
C11 C10 1_555 1_555
O2H C1H 1_555 1_555
C1H C2H 1_555 1_555
C2H C3H 1_555 1_555
C3H H1H 1_555 1_555
C4H C3H 1_555 1_555
H2H C4H 1_555 1_555
C5H C5 1_555 1_555
O2L C1H 1_555 1_555
C3L C2H 1_555 1_555
H1L C3L 1_555 1_555
C4L C5H 1_555 1_555
H2L C4L 1_555 1_555
O2T C1 1_555 1_555
C3T C2 1_555 1_555
H1T C3T 1_555 1_555
C4T C5 1_555 1_555
H2T C4T 1_555 1_555
N1A C7A 1_555 1_555
C6A C8A 1_555 1_555
C7A H3A 1_555 1_555
C8A C7A 1_555 1_555
H4A C8A 1_555 1_555
N2A C6A 1_555 1_555
C9A N2A 1_555 1_555
O3A C9A 1_555 1_555
C10A C9A 1_555 1_555
C11A C10 1_555 1_555
N1B C7B 1_555 1_555
C6B C8B 1_555 1_555
C7B H3B 1_555 1_555
C8B C7B 1_555 1_555
H4B C8B 1_555 1_555
N2B C6B 1_555 1_555
C9B N2B 1_555 1_555
O3B C9B 1_555 1_555
C10B C11 1_555 1_555
C11B C10A 1_555 1_555
C7I N1 1_555 1_555
H3I C7I 1_555 1_555
C8I C6 1_555 1_555
H4I C8I 1_555 1_555
N2I C6 1_555 1_555
C9I N2 1_555 1_555
O3I C9I 1_555 1_555
C10I C10 1_555 1_555
C11I C11A 1_555 1_555
C7J N1B 1_555 1_555
H3J C7J 1_555 1_555
C8J C6B 1_555 1_555
H4J C8J 1_555 1_555
N2J C6B 1_555 1_555
C9J N2B 1_555 1_555
O3J C9J 1_555 1_555
C10J C10B 1_555 1_555
C11J C11 1_555 1_555
C7K N1A 1_555 1_555
H3K C7K 1_555 1_555
C8K C6A 1_555 1_555
H4K C8K 1_555 1_555
N2K C6A 1_555 1_555
C9K N2A 1_555 1_555
O3K C9K 1_555 1_555
C10K C10A 1_555 1_555
C11K C11B 1_555 1_555
C9O N2 1_555 1_555
O3O C9O 1_555 1_555
C9P N2A 1_555 1_555
O3P C9P 1_555 1_555
C9Q N2B 1_555 1_555
O3Q C9Q 1_555 1_555
C9R N2 1_555 1_555
O3R C9R 1_555 1_555
C9S N2B 1_555 1_555
O3S C9S 1_555 1_555
C9T N2A 1_555 1_555
O3T C9T 1_555 1_555
Ni1A N1A 1_555 1_555
O2A Ni1A 1_555 1_555
C1A O2A 1_555 1_555
C2A C1A 1_555 1_555
C3A C2A 1_555 1_555
H1A C3A 1_555 1_555
C4A C3A 1_555 1_555
H2A C4A 1_555 1_555
C5A C4A 1_555 1_555
O2G C1G 1_555 1_555
C1G C2G 1_555 1_555
C2G C3G 1_555 1_555
C3G H1G 1_555 1_555
C4G C3G 1_555 1_555
H2G C4G 1_555 1_555
C5G C5A 1_555 1_555
O2M C1G 1_555 1_555
C3M C2G 1_555 1_555
H1M C3M 1_555 1_555
C4M C5G 1_555 1_555
H2M C4M 1_555 1_555
O2S C1A 1_555 1_555
C3S C2A 1_555 1_555
H1S C3S 1_555 1_555
C4S C5A 1_555 1_555
H2S C4S 1_555 1_555
Ni1B O2B 1_555 1_555
O2B C1B 1_555 1_555
C1B C2B 1_555 1_555
C2B C3B 1_555 1_555
C3B H1B 1_555 1_555
C4B C3B 1_555 1_555
H2B C4B 1_555 1_555
C5B C4B 1_555 1_555
O2F C1F 1_555 1_555
C1F C2F 1_555 1_555
C2F C3F 1_555 1_555
C3F H1F 1_555 1_555
C4F C3F 1_555 1_555
H2F C4F 1_555 1_555
C5F C5B 1_555 1_555
O2N C1F 1_555 1_555
C3N C2F 1_555 1_555
H1N C3N 1_555 1_555
C4N C5F 1_555 1_555
H2N C4N 1_555 1_555
O2R Ni1 1_555 1_555
C3R C2B 1_555 1_555
H1R C3R 1_555 1_555
C4R C5B 1_555 1_555
H2R C4R 1_555 1_555
Ni1A_2 O1 1_555 1_555
Ni1B_2 O2S 1_555 1_555
Ni1B_3 N1B 1_555 1_555
Ni1C O2F 1_555 1_555
Ni1C_2 O2L 1_555 1_555
Ni1D O2M 1_555 1_555
Ni1D_2 O2H 1_555 1_555
Ni1E O2G 1_555 1_555
O1_2 Ni1A 1_555 1_555
O2I Ni1 1_555 1_555
O2J Ni1B 1_555 1_555
O2K Ni1A 1_555 1_555
O2O Ni1 1_555 1_555
O2P Ni1A 1_555 1_555
O2Q Ni1B 1_555 1_555
O2S_2 Ni1B 1_555 1_555
O2T_2 Ni1A 1_555 1_555
N1B_2 Ni1B 1_555 1_555
C9 N2I 1_555 1_555
C9 C9O 1_555 1_555
C9 C9R 1_555 1_555
C10 C9R 1_555 1_555
C4H C5H 1_555 1_555
C3L C4L 1_555 1_555
O2T Ni1A_2 1_555 1_555
C3T C4T 1_555 1_555
C9A N2K 1_555 1_555
C9A C9P 1_555 1_555
C9A C9T 1_555 1_555
C10A C11A 1_555 1_555
C10A C9T 1_555 1_555
C9B C10B 1_555 1_555
C9B N2J 1_555 1_555
C9B C9Q 1_555 1_555
C9B C9S 1_555 1_555
C10B C11B 1_555 1_555
C10B C9S 1_555 1_555
C7I C8I 1_555 1_555
N2I C9I 1_555 1_555
N2I C9O 1_555 1_555
N2I C9R 1_555 1_555
C9I C10I 1_555 1_555
C9I C9O 1_555 1_555
C9I C9R 1_555 1_555
C10I C11I 1_555 1_555
C10I C11J 1_555 1_555
C10I C9O 1_555 1_555
C11I C10K 1_555 1_555
C7J C8J 1_555 1_555
N2J C9J 1_555 1_555
N2J C9Q 1_555 1_555
N2J C9S 1_555 1_555
C9J C10J 1_555 1_555
C9J C9Q 1_555 1_555
C9J C9S 1_555 1_555
C10J C11J 1_555 1_555
C10J C11K 1_555 1_555
C10J C9Q 1_555 1_555
C7K C8K 1_555 1_555
N2K C9K 1_555 1_555
N2K C9P 1_555 1_555
N2K C9T 1_555 1_555
C9K C10K 1_555 1_555
C9K C9P 1_555 1_555
C9K C9T 1_555 1_555
C10K C11K 1_555 1_555
C10K C9P 1_555 1_555
C4G C5G 1_555 1_555
C3M C4M 1_555 1_555
C3S C4S 1_555 1_555
C1B O2R 1_555 1_555
C4F C5F 1_555 1_555
O2N Ni1E 1_555 1_555
C3N C4N 1_555 1_555
C3R C4R 1_555 1_555
Ni1B_2 O1_2 1_555 1_555

#END
