
#######################################################################
#
#                 Cambridge Crystallographic Data Centre
#                                CCDC 
#
#######################################################################
#
# If this CIF has been generated from an entry in the Cambridge 
# Structural Database, then it will include bibliographic, chemical, 
# crystal, experimental, refinement or atomic coordinate data resulting 
# from the CCDC's data processing and validation procedures.
#
#######################################################################

data_DIHTAR
_chemical_formula_moiety         
'(C42 H29 N5 O10 Zn2)n,2n(C3 H7 N1 O1),n(H2 O1)'
_chemical_name_systematic        
"catena-((\m~3~-4,4',4''-(Benzene-1,3,5-triyltris(carbonylimino))tribenzoato)-(\m~2~-4,4'-ethene-1,2-diyldipyridine)-(\m~2~-hydroxo)-di-zinc(ii) N,N-dimethylformamide solvate monohydrate)"
_symmetry_cell_setting           monoclinic
_symmetry_space_group_name_H-M   'P 21/c'
_symmetry_Int_Tables_number      14
_space_group_name_Hall           '-P 2ybc'
loop_
_symmetry_equiv_pos_site_id
_symmetry_equiv_pos_as_xyz
1 x,y,z
2 -x,1/2+y,1/2-z
3 -x,-y,-z
4 x,1/2-y,1/2+z
_cell_length_a                   10.405(3)
_cell_length_b                   24.813(7)
_cell_length_c                   19.681(5)
_cell_angle_alpha                90
_cell_angle_beta                 106.200(13)
_cell_angle_gamma                90
_cell_volume                     4879.47
_exptl_crystal_colour            colorless
_exptl_crystal_description       block
_cell_formula_units_Z            4
loop_
_atom_site_label
_atom_site_type_symbol
_atom_site_fract_x
_atom_site_fract_y
_atom_site_fract_z
Zn1 Zn 0.11768(6) 0.60149(2) 0.72330(3)
Zn2 Zn 1.12092(6) 1.02802(2) 0.21078(3)
O1 O 0.1987(5) 0.65412(17) 0.6292(2)
O2 O 0.1978(4) 0.67215(14) 0.7389(2)
O3 O 1.0602(3) 0.91937(14) 0.30839(18)
O4 O 1.0477(4) 1.00844(14) 0.2908(2)
O5 O 0.2113(4) 1.40237(13) 0.7398(2)
O6 O 0.2305(4) 1.42116(14) 0.6341(2)
O7 O 0.1985(3) 0.53911(12) 0.6965(2)
H1 H 0.2807 0.5387 0.7197
O8 O 0.4247(4) 0.93777(14) 0.7563(2)
O9 O 0.3731(6) 1.13302(16) 0.7333(3)
O10 O 0.6640(4) 1.08067(14) 0.5037(2)
N1 N -0.0734(4) 0.60248(17) 0.6545(2)
N2 N -0.9398(4) 0.54417(16) 0.3632(2)
N3 N 0.4164(4) 0.89561(16) 0.6533(2)
H2 H 0.4329 0.9003 0.6132
N4 N 0.4575(5) 1.18205(16) 0.6618(2)
H3 H 0.5090 1.1809 0.6345
N5 N 0.7303(4) 0.99356(16) 0.5222(2)
H4 H 0.7256 0.9652 0.5465
C1 C 0.2197(6) 0.6854(2) 0.6805(3)
C2 C 0.2717(6) 0.7410(2) 0.6745(3)
C3 C 0.3025(7) 0.7569(2) 0.6150(3)
H5 H 0.2941 0.7325 0.5782
C4 C 0.3464(7) 0.8088(2) 0.6079(3)
H6 H 0.3624 0.8195 0.5657
C5 C 0.3665(5) 0.8448(2) 0.6638(3)
C6 C 0.3372(5) 0.8283(2) 0.7245(3)
H7 H 0.3493 0.8520 0.7624
C7 C 0.2904(6) 0.7772(2) 0.7295(3)
H8 H 0.2708 0.7668 0.7709
C8 C 0.4420(5) 0.93813(19) 0.6977(3)
C9 C 0.4895(5) 0.98793(19) 0.6694(3)
C10 C 0.4542(5) 1.03657(18) 0.6926(3)
H9 H 0.4075 1.0371 0.7266
C11 C 0.4876(5) 1.08521(19) 0.6658(3)
C12 C 0.5591(5) 1.08339(19) 0.6161(3)
H10 H 0.5817 1.1154 0.5977
C13 C 0.5974(5) 1.03487(18) 0.5935(3)
C14 C 0.5638(5) 0.98687(19) 0.6205(3)
H11 H 0.5908 0.9541 0.6060
C15 C 0.4361(6) 1.1359(2) 0.6905(3)
C16 C 1.0235(5) 0.9663(2) 0.3205(3)
C17 C 0.9457(5) 0.97308(19) 0.3732(2)
C18 C 0.9194(5) 1.02412(19) 0.3931(3)
H12 H 0.9494 1.0537 0.3728
C19 C 0.8497(5) 1.0327(2) 0.4423(3)
H13 H 0.8352 1.0676 0.4558
C20 C 0.8014(5) 0.9890(2) 0.4714(3)
C21 C 0.8263(5) 0.9371(2) 0.4504(3)
H14 H 0.7940 0.9075 0.4696
C22 C 0.8976(5) 0.9289(2) 0.4021(3)
H15 H 0.9135 0.8941 0.3889
C23 C 0.6683(5) 1.03848(19) 0.5365(3)
C24 C 0.2462(5) 1.3896(2) 0.6850(3)
C25 C 0.3053(5) 1.3358(2) 0.6820(3)
C26 C 0.3112(6) 1.2979(2) 0.7333(3)
H16 H 0.2819 1.3067 0.7724
C27 C 0.3604(6) 1.2463(2) 0.7281(3)
H17 H 0.3631 1.2210 0.7633
C28 C 0.4047(5) 1.2331(2) 0.6713(3)
C29 C 0.4009(6) 1.2711(2) 0.6192(3)
H18 H 0.4323 1.2624 0.5807
C30 C 0.3510(6) 1.3215(2) 0.6244(3)
H19 H 0.3476 1.3466 0.5888
C31 C -0.8268(5) 0.5496(2) 0.3440(3)
H20 H -0.8306 0.5450 0.2966
C32 C -0.7055(5) 0.5617(2) 0.3910(3)
H21 H -0.6294 0.5644 0.3752
C33 C -0.6960(5) 0.5700(2) 0.4616(3)
C34 C -0.8137(5) 0.5645(3) 0.4812(3)
H22 H -0.8126 0.5696 0.5282
C35 C -0.9325(6) 0.5517(2) 0.4313(3)
H23 H -1.0100 0.5482 0.4457
C36 C -0.5708(5) 0.5826(2) 0.5144(3)
H24 H -0.5762 0.5949 0.5582
C37 C -0.1857(5) 0.6051(2) 0.6742(3)
H25 H -0.1794 0.6121 0.7214
C38 C -0.3104(5) 0.5980(2) 0.6280(3)
H26 H -0.3861 0.6003 0.6442
C39 C -0.3239(5) 0.5876(2) 0.5572(3)
C40 C -0.2069(5) 0.5863(2) 0.5368(3)
H27 H -0.2103 0.5804 0.4896
C41 C -0.0857(6) 0.5937(2) 0.5864(3)
H28 H -0.0084 0.5925 0.5715
C42 C -0.4512(5) 0.5781(2) 0.5054(3)
H29 H -0.4477 0.5677 0.4606
Zn1C Zn 1.11768(6) 0.89851(2) 0.22330(3)
Zn2A Zn -1.12092(6) 0.52802(2) 0.28922(3)
Zn2C Zn 0.12092(6) 0.47198(2) 0.71078(3)
Zn2C_2 Zn 0.12092(6) 1.47198(2) 0.71078(3)
O3C O 0.0602(3) 0.58063(14) 0.80839(18)
O5C O 1.2113(4) 1.09763(13) 0.2398(2)
O6C O 1.2305(4) 1.07884(14) 0.1341(2)
O7C O 1.1985(3) 0.96089(12) 0.1965(2)
N2A N 0.9398(4) 1.04417(16) 0.1368(2)
O11 O 0.3574(6) 0.7891(2) 0.4269(3)
N6 N 0.1446(8) 0.7586(3) 0.3959(4)
C43 C 0.1783(12) 0.7040(3) 0.4095(6)
H30 H 0.2737 0.7006 0.4279
H31 H 0.1484 0.6838 0.3663
H32 H 0.1359 0.6904 0.4435
C44 C 0.0007(12) 0.7735(6) 0.3614(9)
H33 H -0.0035 0.8094 0.3427
H34 H -0.0488 0.7719 0.3959
H35 H -0.0372 0.7487 0.3238
C45 C 0.2358(10) 0.7967(3) 0.4036(4)
H36 H 0.2066 0.8316 0.3905
O12 O 0.7089(9) 0.6185(2) 0.0733(5)
N7 N 0.8040(15) 0.6971(5) 0.0984(6)
C46 C 0.780(3) 0.7566(8) 0.0912(13)
H37 H 0.6927 0.7633 0.0602
H38 H 0.8463 0.7728 0.0719
H39 H 0.7870 0.7718 0.1369
C47 C 0.943(2) 0.6959(14) 0.1380(15)
H40 H 0.9723 0.6591 0.1452
H41 H 0.9533 0.7130 0.1830
H42 H 0.9947 0.7147 0.1123
C48 C 0.717(3) 0.6618(9) 0.0786(12)
O13 O 0.4098(4) 0.99542(18) 0.1375(2)
loop_
_geom_bond_atom_site_label_1
_geom_bond_atom_site_label_2
_geom_bond_site_symmetry_1
_geom_bond_site_symmetry_2
Zn1 O2 1_555 1_555
Zn2 O4 1_555 1_555
O1 C1 1_555 1_555
O2 C1 1_555 1_555
O3 C16 1_555 1_555
O4 C16 1_555 1_555
O5 C24 1_555 1_555
O6 C24 1_555 1_555
O7 Zn1 1_555 1_555
H1 O7 1_555 1_555
O8 C8 1_555 1_555
O9 C15 1_555 1_555
O10 C23 1_555 1_555
N1 Zn1 1_555 1_555
N2 C31 1_555 1_555
N3 H2 1_555 1_555
N4 H3 1_555 1_555
N5 H4 1_555 1_555
C1 C2 1_555 1_555
C2 C3 1_555 1_555
C3 H5 1_555 1_555
C4 C3 1_555 1_555
H6 C4 1_555 1_555
C5 N3 1_555 1_555
C6 C5 1_555 1_555
H7 C6 1_555 1_555
C7 C2 1_555 1_555
H8 C7 1_555 1_555
C8 N3 1_555 1_555
C9 C8 1_555 1_555
C10 C9 1_555 1_555
H9 C10 1_555 1_555
C11 C10 1_555 1_555
C12 C11 1_555 1_555
H10 C12 1_555 1_555
C13 C12 1_555 1_555
C14 C9 1_555 1_555
H11 C14 1_555 1_555
C15 N4 1_555 1_555
C16 C17 1_555 1_555
C17 C18 1_555 1_555
C18 H12 1_555 1_555
C19 C18 1_555 1_555
H13 C19 1_555 1_555
C20 N5 1_555 1_555
C21 C20 1_555 1_555
H14 C21 1_555 1_555
C22 C17 1_555 1_555
H15 C22 1_555 1_555
C23 N5 1_555 1_555
C24 C25 1_555 1_555
C25 C26 1_555 1_555
C26 H16 1_555 1_555
C27 C26 1_555 1_555
H17 C27 1_555 1_555
C28 N4 1_555 1_555
C29 C28 1_555 1_555
H18 C29 1_555 1_555
C30 C25 1_555 1_555
H19 C30 1_555 1_555
C31 H20 1_555 1_555
C32 C31 1_555 1_555
H21 C32 1_555 1_555
C33 C32 1_555 1_555
C34 C33 1_555 1_555
H22 C34 1_555 1_555
C35 N2 1_555 1_555
H23 C35 1_555 1_555
C36 C33 1_555 1_555
H24 C36 1_555 1_555
C37 N1 1_555 1_555
H25 C37 1_555 1_555
C38 C37 1_555 1_555
H26 C38 1_555 1_555
C39 C38 1_555 1_555
C40 C39 1_555 1_555
H27 C40 1_555 1_555
C41 N1 1_555 1_555
H28 C41 1_555 1_555
C42 C36 1_555 1_555
H29 C42 1_555 1_555
O11 C45 1_555 1_555
N6 C43 1_555 1_555
C43 H30 1_555 1_555
H31 C43 1_555 1_555
H32 C43 1_555 1_555
C44 N6 1_555 1_555
H33 C44 1_555 1_555
H34 C44 1_555 1_555
H35 C44 1_555 1_555
C45 N6 1_555 1_555
H36 C45 1_555 1_555
O12 C48 1_555 1_555
N7 C46 1_555 1_555
C46 H37 1_555 1_555
H38 C46 1_555 1_555
H39 C46 1_555 1_555
C47 N7 1_555 1_555
H40 C47 1_555 1_555
H41 C47 1_555 1_555
H42 C47 1_555 1_555
C48 N7 1_555 1_555
Zn1C O3 1_555 1_555
Zn2A N2 1_555 1_555
Zn2C O7 1_555 1_555
Zn2C_2 O5 1_555 1_555
O3C Zn1 1_555 1_555
O5C Zn2 1_555 1_555
O6C Zn2 1_555 1_555
O7C Zn2 1_555 1_555
N2A Zn2 1_555 1_555
O6 Zn2C_2 1_555 1_555
C4 C5 1_555 1_555
C6 C7 1_555 1_555
C11 C15 1_555 1_555
C13 C14 1_555 1_555
C13 C23 1_555 1_555
C19 C20 1_555 1_555
C21 C22 1_555 1_555
C27 C28 1_555 1_555
C29 C30 1_555 1_555
C34 C35 1_555 1_555
C39 C42 1_555 1_555
C40 C41 1_555 1_555
Zn1C O7C 1_555 1_555

#END
