
#######################################################################
#
#                 Cambridge Crystallographic Data Centre
#                                CCDC 
#
#######################################################################
#
# If this CIF has been generated from an entry in the Cambridge 
# Structural Database, then it will include bibliographic, chemical, 
# crystal, experimental, refinement or atomic coordinate data resulting 
# from the CCDC's data processing and validation procedures.
#
#######################################################################

data_GUYLUI
_chemical_formula_moiety         '(C30 H16 N2 O8 S4 Zn2)n'
_chemical_name_systematic        
"catena-[bis(\m~4~-2,2'-Bithiophene-5,5'-dicarboxylato)-(\m~2~-4,4'-bipyridyl)-di-zinc unknown solvate]"
_symmetry_cell_setting           monoclinic
_symmetry_space_group_name_H-M   'C 2/c'
_symmetry_Int_Tables_number      15
_space_group_name_Hall           '-C 2yc'
loop_
_symmetry_equiv_pos_site_id
_symmetry_equiv_pos_as_xyz
1 x,y,z
2 -x,y,1/2-z
3 1/2+x,1/2+y,z
4 1/2-x,1/2+y,1/2-z
5 -x,-y,-z
6 x,-y,1/2+z
7 1/2-x,1/2-y,-z
8 1/2+x,1/2-y,1/2+z
_cell_length_a                   17.692(4)
_cell_length_b                   21.743(6)
_cell_length_c                   9.376(3)
_cell_angle_alpha                90
_cell_angle_beta                 108.334(3)
_cell_angle_gamma                90
_cell_volume                     3423.65
_exptl_crystal_colour            'pale yellow'
_exptl_crystal_description       needle
_cell_formula_units_Z            4
loop_
_atom_site_label
_atom_site_type_symbol
_atom_site_fract_x
_atom_site_fract_y
_atom_site_fract_z
N1 N -0.12536(14) -0.23165(10) -0.1253(3)
C1 C -0.1859(3) -0.27000(17) -0.1610(4)
H1 H -0.1959 -0.2930 -0.0840
C2 C -0.2356(3) -0.27802(18) -0.3070(4)
H2 H -0.2780 -0.3061 -0.3262
C3 C -0.22420(15) -0.24636(14) -0.4220(3)
C4 C -0.1637(2) -0.2034(2) -0.3830(4)
H3 H -0.1544 -0.1783 -0.4574
C5 C -0.1167(2) -0.1973(2) -0.2349(4)
H4 H -0.0765 -0.1672 -0.2112
Zn1 Zn -0.050122(17) -0.225542(13) 0.08846(3)
O1 O 0.03867(12) -0.28370(9) 0.0748(2)
C6 C 0.08739(16) -0.30808(12) 0.1876(3)
O2 O -0.09644(13) -0.29512(9) 0.1776(2)
C7 C 0.13808(17) -0.35819(13) 0.1637(3)
C8 C 0.1399(2) -0.38563(15) 0.0338(4)
H5 H 0.1069 -0.3741 -0.0623
C9 C 0.1967(2) -0.43328(15) 0.0603(4)
H6 H 0.2055 -0.4570 -0.0169
C10 C 0.23764(18) -0.44165(14) 0.2084(3)
S1 S 0.20666(4) -0.39010(3) 0.31845(8)
C11 C 0.29957(18) -0.48606(14) 0.2793(3)
S2 S 0.29806(5) -0.55719(4) 0.19901(9)
C12 C 0.38325(17) -0.57944(13) 0.3368(3)
C13 C 0.40935(19) -0.53418(14) 0.4407(4)
H7 H 0.4542 -0.5382 0.5266
C14 C 0.3621(2) -0.48039(15) 0.4062(4)
H8 H 0.3731 -0.4445 0.4651
C15 C 0.42353(16) -0.63689(12) 0.3211(3)
O3 O 0.39642(12) -0.66537(9) 0.2002(2)
O4 O 0.48291(12) -0.65226(9) 0.4306(2)
N1B N 0.37464(14) -0.73165(10) -0.1253(3)
N1F N -0.37464(14) -0.26835(10) -0.8747(3)
C1F C -0.3141(3) -0.23000(17) -0.8390(4)
H1F H -0.3041 -0.2070 -0.9160
C2F C -0.2644(3) -0.22198(18) -0.6930(4)
H2F H -0.2220 -0.1939 -0.6738
C3F C -0.27580(15) -0.25364(14) -0.5780(3)
C4F C -0.3363(2) -0.2966(2) -0.6170(4)
H3F H -0.3456 -0.3217 -0.5426
C5F C -0.3833(2) -0.3027(2) -0.7651(4)
H4F H -0.4235 -0.3328 -0.7888
Zn1A Zn 0.050122(17) -0.225542(13) 0.41154(3)
Zn1B Zn 0.449878(17) -0.725542(13) 0.08846(3)
Zn1C Zn 0.550122(17) -0.725542(13) 0.41154(3)
Zn1F Zn -0.449878(17) -0.274458(13) -1.08846(3)
Zn1C_2 Zn -0.449878(17) -0.725542(13) 0.41154(3)
Zn1B_2 Zn -0.550122(17) -0.725542(13) 0.08846(3)
O1A O -0.03867(12) -0.28370(9) 0.4252(2)
O1B O 0.53867(12) -0.78370(9) 0.0748(2)
C6A C -0.08739(16) -0.30808(12) 0.3124(3)
O2A O 0.09644(13) -0.29512(9) 0.3224(2)
O2B O 0.40356(13) -0.79512(9) 0.1776(2)
C7A C -0.13808(17) -0.35819(13) 0.3363(3)
C8A C -0.1399(2) -0.38563(15) 0.4662(4)
H5A H -0.1069 -0.3741 0.5623
C9A C -0.1967(2) -0.43328(15) 0.4397(4)
H6A H -0.2055 -0.4570 0.5169
C10A C -0.23764(18) -0.44165(14) 0.2916(3)
S1A S -0.20666(4) -0.39010(3) 0.18155(8)
C11A C -0.29957(18) -0.48606(14) 0.2207(3)
S2A S -0.29806(5) -0.55719(4) 0.30099(9)
C12A C -0.38325(17) -0.57944(13) 0.1632(3)
C13A C -0.40935(19) -0.53418(14) 0.0593(4)
H7A H -0.4542 -0.5382 -0.0266
C14A C -0.3621(2) -0.48039(15) 0.0938(4)
H8A H -0.3731 -0.4445 0.0349
C15A C -0.42353(16) -0.63689(12) 0.1789(3)
O3B O -0.10358(12) -0.16537(9) 0.2002(2)
O3A O -0.39642(12) -0.66537(9) 0.2998(2)
O4C O 0.01709(12) -0.15226(9) 0.0694(2)
O4A O 0.51709(12) -0.65226(9) 0.0694(2)
O4A_2 O -0.48291(12) -0.65226(9) 0.0694(2)
loop_
_geom_bond_atom_site_label_1
_geom_bond_atom_site_label_2
_geom_bond_site_symmetry_1
_geom_bond_site_symmetry_2
N1 C1 1_555 1_555
C1 H1 1_555 1_555
C2 C1 1_555 1_555
H2 C2 1_555 1_555
C3 C2 1_555 1_555
C4 C3 1_555 1_555
H3 C4 1_555 1_555
C5 N1 1_555 1_555
H4 C5 1_555 1_555
Zn1 N1 1_555 1_555
O1 Zn1 1_555 1_555
C6 O1 1_555 1_555
O2 Zn1 1_555 1_555
C7 C6 1_555 1_555
C8 C7 1_555 1_555
H5 C8 1_555 1_555
C9 C8 1_555 1_555
H6 C9 1_555 1_555
C10 C9 1_555 1_555
S1 C7 1_555 1_555
C11 C10 1_555 1_555
S2 C11 1_555 1_555
C12 S2 1_555 1_555
C13 C12 1_555 1_555
H7 C13 1_555 1_555
C14 C11 1_555 1_555
H8 C14 1_555 1_555
C15 C12 1_555 1_555
O3 C15 1_555 1_555
O4 C15 1_555 1_555
N1B Zn1B 1_555 1_555
N1F C1F 1_555 1_555
C1F H1F 1_555 1_555
C2F C1F 1_555 1_555
H2F C2F 1_555 1_555
C3F C3 1_555 1_555
C4F C3F 1_555 1_555
H3F C4F 1_555 1_555
C5F N1F 1_555 1_555
H4F C5F 1_555 1_555
Zn1A O1A 1_555 1_555
Zn1B O3 1_555 1_555
Zn1C O4 1_555 1_555
Zn1F N1F 1_555 1_555
Zn1C_2 O3A 1_555 1_555
Zn1B_2 O4A_2 1_555 1_555
O1A C6A 1_555 1_555
O1B Zn1B 1_555 1_555
C6A O2 1_555 1_555
O2A C6 1_555 1_555
O2B Zn1B 1_555 1_555
C7A C6A 1_555 1_555
C8A C7A 1_555 1_555
H5A C8A 1_555 1_555
C9A C8A 1_555 1_555
H6A C9A 1_555 1_555
C10A C9A 1_555 1_555
S1A C7A 1_555 1_555
C11A C10A 1_555 1_555
S2A C11A 1_555 1_555
C12A S2A 1_555 1_555
C13A C12A 1_555 1_555
H7A C13A 1_555 1_555
C14A C11A 1_555 1_555
H8A C14A 1_555 1_555
C15A C12A 1_555 1_555
O3B Zn1 1_555 1_555
O3A C15A 1_555 1_555
O4C Zn1 1_555 1_555
O4A Zn1B 1_555 1_555
O4A_2 C15A 1_555 1_555
C4 C5 1_555 1_555
C10 S1 1_555 1_555
C13 C14 1_555 1_555
C2F C3F 1_555 1_555
C4F C5F 1_555 1_555
Zn1A O2A 1_555 1_555
C10A S1A 1_555 1_555
C13A C14A 1_555 1_555

#END
