
#######################################################################
#
#                 Cambridge Crystallographic Data Centre
#                                CCDC 
#
#######################################################################
#
# If this CIF has been generated from an entry in the Cambridge 
# Structural Database, then it will include bibliographic, chemical, 
# crystal, experimental, refinement or atomic coordinate data resulting 
# from the CCDC's data processing and validation procedures.
#
#######################################################################

data_GUYMAP
_chemical_formula_moiety         '(C30 H16 N2 O8 S4 Zn2)n'
_chemical_name_systematic        
catena-[bis(\m~4~-2,2'-Bithiophenedicarboxylato)-(\m~2~-4,4'-bipyridyl)-di-zinc]
_symmetry_cell_setting           monoclinic
_symmetry_space_group_name_H-M   'C 2/c'
_symmetry_Int_Tables_number      15
_space_group_name_Hall           '-C 2yc'
loop_
_symmetry_equiv_pos_site_id
_symmetry_equiv_pos_as_xyz
1 x,y,z
2 -x,y,1/2-z
3 1/2+x,1/2+y,z
4 1/2-x,1/2+y,1/2-z
5 -x,-y,-z
6 x,-y,1/2+z
7 1/2-x,1/2-y,-z
8 1/2+x,1/2-y,1/2+z
_cell_length_a                   17.510(9)
_cell_length_b                   22.117(10)
_cell_length_c                   14.003(7)
_cell_angle_alpha                90
_cell_angle_beta                 115.781(5)
_cell_angle_gamma                90
_cell_volume                     4883.14
_exptl_crystal_colour            'pale yellow'
_exptl_crystal_description       needle
_cell_formula_units_Z            4
loop_
_atom_site_label
_atom_site_type_symbol
_atom_site_fract_x
_atom_site_fract_y
_atom_site_fract_z
Zn1 Zn 0.48042(7) 0.14405(5) -0.36370(11)
S1 S 0.3390(2) 0.31803(14) -0.2025(3)
S2 S 0.32061(19) -0.02081(13) -0.2038(3)
N1 N 0.4858(6) 0.1426(3) -0.5008(9)
O1 O 0.3936(4) 0.2095(3) -0.3850(7)
O2 O 0.3932(5) 0.0780(3) -0.3821(7)
C1 C 0.3254(7) 0.0086(5) -0.3135(10)
O3 O 0.4315(5) 0.2092(3) -0.2002(8)
C2 C 0.3897(7) 0.2271(5) -0.3019(11)
C3 C 0.5004(6) 0.1437(4) -0.7004(9)
C4 C 0.3914(8) 0.0625(4) -0.2893(12)
C5 C 0.2770(7) 0.3758(5) -0.2716(10)
O4 O 0.4311(5) 0.0793(4) -0.1935(7)
C6 C 0.3411(7) 0.2855(5) -0.3113(10)
C7 C 0.2577(7) -0.0789(6) -0.2681(11)
C8 C 0.5178(7) 0.0931(6) -0.6300(10)
H1 H 0.5325 0.0565 -0.6500
C9 C 0.2890(8) 0.3170(6) -0.4171(12)
H2 H 0.2804 0.3078 -0.4859
C10 C 0.5135(8) 0.0964(7) -0.5298(12)
H3 H 0.5319 0.0634 -0.4843
C11 C 0.2821(9) -0.0241(7) -0.4026(14)
H4 H 0.2791 -0.0170 -0.4697
C12 C 0.2409(8) -0.0732(6) -0.3715(12)
H5 H 0.2040 -0.0998 -0.4219
C13 C 0.4707(9) 0.1948(7) -0.6569(13)
H6 H 0.4630 0.2327 -0.6886
C14 C 0.2560(9) 0.3682(6) -0.3728(13)
H7 H 0.2186 0.3957 -0.4204
C15 C 0.4544(11) 0.1868(8) -0.5701(15)
H8 H 0.4188 0.2145 -0.5595
Zn1A Zn 0.51958(7) 0.14405(5) -0.13630(11)
Zn1A_2 Zn 0.51958(7) 0.14405(5) -1.13630(11)
Zn1C Zn 0.01958(7) 0.64405(5) -0.13630(11)
Zn1B Zn -0.01958(7) 0.64405(5) -0.36370(11)
Zn1C_2 Zn 0.01958(7) -0.35595(5) -0.13630(11)
Zn1B_2 Zn -0.01958(7) -0.35595(5) -0.36370(11)
S1C S 0.1610(2) -0.18197(14) -0.2975(3)
S2C S 0.17939(19) 0.47919(13) -0.2962(3)
N1A N 0.5142(6) 0.1426(3) -0.9992(9)
N1C N 0.0142(6) 0.6426(3) 0.0008(9)
O1C O 0.1064(4) -0.2905(3) -0.1150(7)
O1C_2 O 0.1064(4) 0.7095(3) -0.1150(7)
O2C O 0.1068(5) 0.5780(3) -0.1179(7)
C1C C 0.1746(7) 0.5086(5) -0.1865(10)
O3A O 0.5685(5) 0.2092(3) -0.2998(8)
O3C O 0.0685(5) -0.2908(3) -0.2998(8)
O3B O -0.0685(5) 0.7092(3) -0.2002(8)
C2C C 0.1103(7) -0.2729(5) -0.1981(11)
C3A C 0.4996(6) 0.1437(4) -0.7996(9)
C4C C 0.1086(8) 0.5625(4) -0.2107(12)
C5C C 0.2230(7) -0.1242(5) -0.2284(10)
O4A O 0.5689(5) 0.0793(4) -0.3065(7)
O4C O 0.0689(5) 0.5793(4) -0.3065(7)
O4B O -0.0689(5) 0.5793(4) -0.1935(7)
C6C C 0.1589(7) -0.2145(5) -0.1887(10)
C7C C 0.2423(7) 0.4211(6) -0.2319(11)
C8A C 0.4822(7) 0.0931(6) -0.8700(10)
H1A H 0.4675 0.0565 -0.8500
C9C C 0.2110(8) -0.1830(6) -0.0829(12)
H2C H 0.2196 -0.1922 -0.0141
C10A C 0.4865(8) 0.0964(7) -0.9702(12)
H3A H 0.4681 0.0634 -1.0157
C11C C 0.2179(9) 0.4759(7) -0.0974(14)
H4C H 0.2209 0.4830 -0.0303
C12C C 0.2591(8) 0.4268(6) -0.1285(12)
H5C H 0.2960 0.4002 -0.0781
C13A C 0.5293(9) 0.1948(7) -0.8431(13)
H6A H 0.5370 0.2327 -0.8114
C14C C 0.2440(9) -0.1318(6) -0.1272(13)
H7C H 0.2814 -0.1043 -0.0796
C15A C 0.5456(11) 0.1868(8) -0.9299(15)
H8A H 0.5812 0.2145 -0.9405
loop_
_geom_bond_atom_site_label_1
_geom_bond_atom_site_label_2
_geom_bond_site_symmetry_1
_geom_bond_site_symmetry_2
Zn1 N1 1_555 1_555
S1 C5 1_555 1_555
S2 C1 1_555 1_555
N1 C10 1_555 1_555
O1 Zn1 1_555 1_555
O2 Zn1 1_555 1_555
C1 C4 1_555 1_555
O3 C2 1_555 1_555
C2 O1 1_555 1_555
C3 C8 1_555 1_555
C4 O2 1_555 1_555
C5 C14 1_555 1_555
O4 C4 1_555 1_555
C6 S1 1_555 1_555
C7 S2 1_555 1_555
C8 H1 1_555 1_555
C9 C6 1_555 1_555
H2 C9 1_555 1_555
C10 C8 1_555 1_555
H3 C10 1_555 1_555
C11 C1 1_555 1_555
H4 C11 1_555 1_555
C12 C7 1_555 1_555
H5 C12 1_555 1_555
C13 C3 1_555 1_555
H6 C13 1_555 1_555
C14 C9 1_555 1_555
H7 C14 1_555 1_555
C15 N1 1_555 1_555
H8 C15 1_555 1_555
Zn1A O3 1_555 1_555
Zn1A_2 N1A 1_555 1_555
Zn1C N1C 1_555 1_555
Zn1B O4C 1_555 1_555
Zn1C_2 O1C 1_555 1_555
Zn1B_2 O3C 1_555 1_555
S1C C5C 1_555 1_555
S2C C1C 1_555 1_555
N1A C10A 1_555 1_555
O1C C2C 1_555 1_555
O1C_2 Zn1C 1_555 1_555
O2C Zn1C 1_555 1_555
C1C C4C 1_555 1_555
O3A Zn1 1_555 1_555
O3C C2C 1_555 1_555
O3B Zn1C 1_555 1_555
C2C C6C 1_555 1_555
C3A C3 1_555 1_555
C4C O2C 1_555 1_555
C5C C7 1_555 1_555
O4A Zn1 1_555 1_555
O4C C4C 1_555 1_555
O4B Zn1C 1_555 1_555
C6C S1C 1_555 1_555
C7C C5 1_555 1_555
C8A C3A 1_555 1_555
H1A C8A 1_555 1_555
C9C C6C 1_555 1_555
H2C C9C 1_555 1_555
C10A C8A 1_555 1_555
H3A C10A 1_555 1_555
C11C C1C 1_555 1_555
H4C C11C 1_555 1_555
C12C C7C 1_555 1_555
H5C C12C 1_555 1_555
C13A C3A 1_555 1_555
H6A C13A 1_555 1_555
C14C C5C 1_555 1_555
H7C C14C 1_555 1_555
C15A N1A 1_555 1_555
H8A C15A 1_555 1_555
C2 C6 1_555 1_555
O4 Zn1A 1_555 1_555
C11 C12 1_555 1_555
C13 C15 1_555 1_555
S2C C7C 1_555 1_555
C9C C14C 1_555 1_555
C11C C12C 1_555 1_555
C13A C15A 1_555 1_555

#END
