
#######################################################################
#
#                 Cambridge Crystallographic Data Centre
#                                CCDC 
#
#######################################################################
#
# If this CIF has been generated from an entry in the Cambridge 
# Structural Database, then it will include bibliographic, chemical, 
# crystal, experimental, refinement or atomic coordinate data resulting 
# from the CCDC's data processing and validation procedures.
#
#######################################################################

data_XEKYUK
_chemical_formula_moiety         
'(C11 H8 N2 O9 P1 Zn2 1-)n,C2 H8 N1 1+,2(C3 H7 N1 O1)'
_chemical_name_systematic        
'catena-[dimethylammonium (\m-5-(1H-imidazol-1-yl)benzene-1,3-dicarboxylato)-(\m-phosphato)-aqua-di-zinc N,N-dimethylformamide solvate]'
_symmetry_cell_setting           rhombohedral
_symmetry_space_group_name_H-M   'R -3'
_symmetry_Int_Tables_number      148
_space_group_name_Hall           '-R 3'
loop_
_symmetry_equiv_pos_site_id
_symmetry_equiv_pos_as_xyz
1 x,y,z
2 -y,x-y,z
3 -x+y,-x,z
4 2/3+x,1/3+y,1/3+z
5 2/3-y,1/3+x-y,1/3+z
6 2/3-x+y,1/3-x,1/3+z
7 1/3+x,2/3+y,2/3+z
8 1/3-y,2/3+x-y,2/3+z
9 1/3-x+y,2/3-x,2/3+z
10 -x,-y,-z
11 y,-x+y,-z
12 x-y,x,-z
13 1/3-x,2/3-y,2/3-z
14 1/3+y,2/3-x+y,2/3-z
15 1/3+x-y,2/3+x,2/3-z
16 2/3-x,1/3-y,1/3-z
17 2/3+y,1/3-x+y,1/3-z
18 2/3+x-y,1/3+x,1/3-z
_cell_length_a                   33.859(5)
_cell_length_b                   33.859(5)
_cell_length_c                   10.608(5)
_cell_angle_alpha                90
_cell_angle_beta                 90
_cell_angle_gamma                120
_cell_volume                     10532
_exptl_crystal_colour            colorless
_exptl_crystal_description       block
_cell_formula_units_Z            18
loop_
_atom_site_label
_atom_site_type_symbol
_atom_site_fract_x
_atom_site_fract_y
_atom_site_fract_z
Zn1 Zn 0.63005(2) 0.56852(2) 0.62837(5)
Zn2 Zn 0.68516(2) 0.62812(2) 0.88599(5)
P1 P 0.69541(4) 0.71421(4) 1.01516(11)
O1 O 0.62808(11) 0.57859(11) 0.9476(3)
O2 O 0.44177(16) 0.39295(11) 0.8881(3)
O3 O 0.59495(11) 0.53176(11) 0.7837(3)
O4 O 0.45601(16) 0.35247(11) 1.0292(3)
C1 C 0.59835(16) 0.54196(16) 0.8980(4)
C2 C 0.50811(16) 0.43968(16) 1.1573(4)
H1 H 0.489398 0.416895 1.213667
C3 C 0.56515(15) 0.50681(16) 0.9878(4)
C4 C 0.46277(23) 0.38902(16) 0.9787(4)
C5 C 0.50130(22) 0.43274(16) 1.0282(4)
C6 C 0.52962(16) 0.46637(16) 0.9433(4)
H2 H 0.524607 0.461593 0.857010
C7 C 0.54327(17) 0.48116(18) 1.2012(4)
C8 C 0.57188(16) 0.51419(17) 1.1165(4)
H3 H 0.595839 0.541589 1.146091
N1 N 0.58423(13) 0.52309(15) 1.5100(4)
C9 C 0.58493(17) 0.52425(18) 1.3879(4)
H4 H 0.608120 0.548084 1.342666
N2 N 0.55074(14) 0.48955(14) 1.3333(4)
O5 O 0.70994(11) 0.69298(11) 0.9170(3)
O6 O 0.72141(12) 0.61992(13) 1.0360(3)
H5 H 0.750768 0.638442 1.027505
H6 H 0.716584 0.592029 1.037756
O7 O 0.64602(11) 0.68238(11) 1.0437(3)
O8 O 0.72190(12) 0.72262(14) 1.1274(3)
O9 O 0.69952(14) 0.75549(12) 0.9619(3)
C10 C 0.5563(4) 0.4745(4) 1.5349(9)
C11 C 0.5359(4) 0.4518(4) 1.4282(9)
Zn1_2 Zn 0.63005(2) 0.56852(2) 1.62837(5)
Zn1E Zn 0.60514(3) 0.70328(2) 0.96170(5)
Zn1G Zn 0.76481(2) 0.72820(3) 1.29504(5)
Zn1N Zn 0.39486(3) 0.29672(2) 1.03830(5)
Zn2E Zn 0.60963(3) 0.64817(2) 1.21932(5)
Zn2N Zn 0.39037(3) 0.35183(2) 0.78068(5)
O2M O 0.72628(11) 0.61785(19) 0.7786(3)
O4M O 0.68580(11) 0.56313(19) 0.6375(3)
N1_2 N 0.58423(13) 0.52309(15) 0.5100(4)
O7G O 0.65095(11) 0.63031(16) 0.7104(3)
O8E O 0.66739(18) 0.61143(12) 0.4607(3)
C12? C 0.5375(4) 0.4949(4) 1.5351(10)
C13? C 0.5160(4) 0.4749(4) 1.4257(10)
loop_
_geom_bond_atom_site_label_1
_geom_bond_atom_site_label_2
_geom_bond_site_symmetry_1
_geom_bond_site_symmetry_2
Zn1 O3 1_555 1_555
Zn2 O1 1_555 1_555
P1 O5 1_555 1_555
O1 C1 1_555 1_555
O2 C4 1_555 1_555
O3 C1 1_555 1_555
O4 C4 1_555 1_555
C1 C3 1_555 1_555
C2 H1 1_555 1_555
C3 C6 1_555 1_555
C4 C5 1_555 1_555
C5 C2 1_555 1_555
C6 C5 1_555 1_555
H2 C6 1_555 1_555
C7 C2 1_555 1_555
C8 C3 1_555 1_555
H3 C8 1_555 1_555
N1 C9 1_555 1_555
C9 H4 1_555 1_555
N2 C7 1_555 1_555
O5 Zn2 1_555 1_555
O6 Zn2 1_555 1_555
H5 O6 1_555 1_555
H6 O6 1_555 1_555
O7 P1 1_555 1_555
O8 P1 1_555 1_555
O9 P1 1_555 1_555
C10 N1 1_555 1_555
C11 N2 1_555 1_555
Zn1_2 N1 1_555 1_555
Zn1E O7 1_555 1_555
Zn1G O8 1_555 1_555
Zn1N O4 1_555 1_555
Zn2E O7 1_555 1_555
Zn2N O2 1_555 1_555
O2M Zn2 1_555 1_555
O4M Zn1 1_555 1_555
N1_2 Zn1 1_555 1_555
O7G Zn1 1_555 1_555
O8E Zn1 1_555 1_555
Zn2 O7G 1_555 1_555
C7 C8 1_555 1_555
C9 N2 1_555 1_555
C10 C11 1_555 1_555

#END
