
#######################################################################
#
#                 Cambridge Crystallographic Data Centre
#                                CCDC 
#
#######################################################################
#
# If this CIF has been generated from an entry in the Cambridge 
# Structural Database, then it will include bibliographic, chemical, 
# crystal, experimental, refinement or atomic coordinate data resulting 
# from the CCDC's data processing and validation procedures.
#
#######################################################################

data_XALROT
_chemical_formula_moiety         '(C16 H10 In1 N2 O8)n'
_chemical_name_systematic        
'catena-(bis(\m~2~-2-aminoterephthalato)-indium unknown solvate)'
_symmetry_cell_setting           orthorhombic
_symmetry_space_group_name_H-M   'F d d d'
_symmetry_Int_Tables_number      70
_space_group_name_Hall           '-F 2uv 2vw'
loop_
_symmetry_equiv_pos_site_id
_symmetry_equiv_pos_as_xyz
1 x,y,z
2 3/4-x,3/4-y,z
3 3/4-x,y,3/4-z
4 x,3/4-y,3/4-z
5 x,1/2+y,1/2+z
6 3/4-x,1/4-y,1/2+z
7 3/4-x,1/2+y,1/4-z
8 x,1/4-y,1/4-z
9 1/2+x,y,1/2+z
10 1/4-x,3/4-y,1/2+z
11 1/4-x,y,1/4-z
12 1/2+x,3/4-y,1/4-z
13 1/2+x,1/2+y,z
14 1/4-x,1/4-y,z
15 1/4-x,1/2+y,3/4-z
16 1/2+x,1/4-y,3/4-z
17 -x,-y,-z
18 1/4+x,1/4+y,-z
19 1/4+x,-y,1/4+z
20 -x,1/4+y,1/4+z
21 -x,1/2-y,1/2-z
22 1/4+x,3/4+y,1/2-z
23 1/4+x,1/2-y,3/4+z
24 -x,3/4+y,3/4+z
25 1/2-x,-y,1/2-z
26 3/4+x,1/4+y,1/2-z
27 3/4+x,-y,3/4+z
28 1/2-x,1/4+y,3/4+z
29 1/2-x,1/2-y,-z
30 3/4+x,3/4+y,-z
31 3/4+x,1/2-y,1/4+z
32 1/2-x,3/4+y,1/4+z
_cell_length_a                   15.300(2)
_cell_length_b                   26.902(4)
_cell_length_c                   31.342(5)
_cell_angle_alpha                90
_cell_angle_beta                 90
_cell_angle_gamma                90
_cell_volume                     12900.4
_exptl_crystal_colour            yellow
_exptl_crystal_description       block
_cell_formula_units_Z            16
loop_
_atom_site_label
_atom_site_type_symbol
_atom_site_fract_x
_atom_site_fract_y
_atom_site_fract_z
_atom_site_U_iso_or_equiv
_atom_site_thermal_displace_type
In1 In 0.3750 0.3750 0.565219(6) 0.0199 Uani
O1 O 0.26215(10) 0.41156(6) 0.52929(5) 0.0336 Uani
C1 C 0.31500(17) 0.43852(10) 0.50869(8) 0.0325 Uani
C2 C 0.28300(17) 0.47183(10) 0.47465(8) 0.0379 Uani
C3 C 0.33801(19) 0.50530(14) 0.45387(10) 0.0573 Uani
C4 C 0.19578(18) 0.46959(12) 0.46285(9) 0.0484 Uani
H1 H 0.1580 0.4471 0.4772 0.0580 Uiso
N1 N 0.4246(2) 0.51263(16) 0.46499(13) 0.1417 Uani
H2 H 0.4586 0.5348 0.4477 0.1700 Uiso
H3 H 0.4526 0.4847 0.4783 0.1700 Uiso
O2 O 0.39632(11) 0.43589(7) 0.51741(6) 0.0371 Uani
C5 C 0.1621(2) 0.49922(14) 0.43066(10) 0.0516 Uani
H4 H 0.1021 0.4973 0.4231 0.0620 Uiso
C6 C 0.30388(18) 0.53542(12) 0.42092(10) 0.0500 Uani
H5 H 0.3409 0.5583 0.4066 0.0600 Uiso
C7 C 0.21804(16) 0.53182(10) 0.40960(8) 0.0322 Uani
C8 C 0.18539(16) 0.56390(9) 0.37403(7) 0.0265 Uani
O3 O 0.10388(11) 0.56771(7) 0.36719(5) 0.0308 Uani
O4 O 0.23842(10) 0.58750(6) 0.35101(5) 0.0284 Uani
In1Z In 0.1250 0.6250 0.315219(6) 0.0199 Uani
In1DA In 0.1250 0.1250 0.815219(6) 0.0199 Uani
O1EA O 0.23785(10) 0.16156(6) 0.77929(5) 0.0336 Uani
O1A O 0.48785(10) 0.33844(6) 0.52929(5) 0.0336 Uani
C1EA C 0.18500(17) 0.18852(10) 0.75869(8) 0.0325 Uani
C2EA C 0.21700(17) 0.22183(10) 0.72465(8) 0.0379 Uani
C3EA C 0.16199(19) 0.25530(14) 0.70387(10) 0.0573 Uani
C4EA C 0.30422(18) 0.21959(12) 0.71285(9) 0.0484 Uani
H1EA H 0.3420 0.1971 0.7272 0.0580 Uiso
N1EA N 0.0754(2) 0.26263(16) 0.71499(13) 0.1417 Uani
H2EA H 0.0414 0.2848 0.6977 0.1700 Uiso
H3EA H 0.0474 0.2347 0.7283 0.1700 Uiso
O2EA O 0.10368(11) 0.18589(7) 0.76741(6) 0.0371 Uani
O2A O 0.35368(11) 0.31411(7) 0.51741(6) 0.0371 Uani
C5EA C 0.3379(2) 0.24922(14) 0.68066(10) 0.0516 Uani
H4EA H 0.3979 0.2473 0.6731 0.0620 Uiso
C6EA C 0.19612(18) 0.28542(12) 0.67092(10) 0.0500 Uani
H5EA H 0.1591 0.3083 0.6566 0.0600 Uiso
C7EA C 0.28196(16) 0.28182(10) 0.65960(8) 0.0322 Uani
C8EA C 0.31461(16) 0.31390(9) 0.62403(7) 0.0265 Uani
O3EA O 0.39612(11) 0.31771(7) 0.61719(5) 0.0308 Uani
O3R O 0.35388(11) 0.43229(7) 0.61719(5) 0.0308 Uani
O4EA O 0.26158(10) 0.33750(6) 0.60101(5) 0.0284 Uani
O4R O 0.48842(10) 0.41250(6) 0.60101(5) 0.0284 Uani
loop_
_atom_site_aniso_label
_atom_site_aniso_U_11
_atom_site_aniso_U_22
_atom_site_aniso_U_33
_atom_site_aniso_U_23
_atom_site_aniso_U_13
_atom_site_aniso_U_12
In1 0.02296(15) 0.02223(15) 0.01460(14) 0.000 0.000 -0.00095(10)
O1 0.0267(9) 0.0419(10) 0.0321(9) 0.0134(8) -0.0053(7) 0.0014(8)
C1 0.0331(14) 0.0374(15) 0.0271(13) 0.0091(11) 0.0055(11) -0.0043(12)
C2 0.0302(14) 0.0493(17) 0.0342(15) 0.0196(13) -0.0030(11) 0.0011(13)
C3 0.0290(15) 0.083(2) 0.060(2) 0.0465(19) -0.0109(14) -0.0119(16)
C4 0.0302(15) 0.062(2) 0.0531(19) 0.0340(15) -0.0013(13) -0.0061(14)
N1 0.062(2) 0.196(5) 0.167(4) 0.138(4) -0.053(3) -0.057(3)
O2 0.0283(10) 0.0500(12) 0.0331(10) 0.0186(9) -0.0014(7) -0.0022(9)
C5 0.0291(15) 0.074(2) 0.0517(19) 0.0326(17) -0.0072(13) -0.0006(16)
C6 0.0297(15) 0.070(2) 0.0504(18) 0.0381(16) -0.0036(13) -0.0098(14)
C7 0.0253(13) 0.0402(15) 0.0311(14) 0.0124(12) 0.0017(11) 0.0028(12)
C8 0.0265(13) 0.0279(13) 0.0252(12) 0.0046(11) 0.0085(11) 0.0051(10)
O3 0.0242(9) 0.0374(10) 0.0307(10) 0.0098(8) 0.0029(7) 0.0052(8)
O4 0.0270(9) 0.0340(9) 0.0242(9) 0.0073(7) -0.0040(7) 0.0040(8)
In1Z 0.02296 0.02223 0.0146 0 0 0.00095
In1DA 0.02296 0.02223 0.0146 0 0 0.00095
O1EA 0.0267 0.0419 0.0321 0.0134 0.0053 -0.0014
O1A 0.0267 0.0419 0.0321 -0.0134 0.0053 0.0014
C1EA 0.0331 0.0374 0.0271 0.0091 -0.0055 0.0043
C2EA 0.0302 0.0493 0.0342 0.0196 0.003 -0.0011
C3EA 0.029 0.083 0.06 0.0465 0.0109 0.0119
C4EA 0.0302 0.062 0.0531 0.034 0.0013 0.0061
N1EA 0.062 0.196 0.167 0.138 0.053 0.057
O2EA 0.0283 0.05 0.0331 0.0186 0.0014 0.0022
O2A 0.0283 0.05 0.0331 -0.0186 0.0014 -0.0022
C5EA 0.0291 0.074 0.0517 0.0326 0.0072 0.0006
C6EA 0.0297 0.07 0.0504 0.0381 0.0036 0.0098
C7EA 0.0253 0.0402 0.0311 0.0124 -0.0017 -0.0028
C8EA 0.0265 0.0279 0.0252 0.0046 -0.0085 -0.0051
O3EA 0.0242 0.0374 0.0307 0.0098 -0.0029 -0.0052
O3R 0.0242 0.0374 0.0307 -0.0098 0.0029 -0.0052
O4EA 0.027 0.034 0.0242 0.0073 0.004 -0.004
O4R 0.027 0.034 0.0242 -0.0073 -0.004 -0.004
loop_
_geom_bond_atom_site_label_1
_geom_bond_atom_site_label_2
_geom_bond_site_symmetry_1
_geom_bond_site_symmetry_2
In1 O1 1_555 1_555
O1 C1 1_555 1_555
C1 C2 1_555 1_555
C2 C3 1_555 1_555
C3 N1 1_555 1_555
C4 C2 1_555 1_555
H1 C4 1_555 1_555
N1 H2 1_555 1_555
H3 N1 1_555 1_555
O2 In1 1_555 1_555
C5 C4 1_555 1_555
H4 C5 1_555 1_555
C6 C3 1_555 1_555
H5 C6 1_555 1_555
C7 C5 1_555 1_555
C8 C7 1_555 1_555
O3 C8 1_555 1_555
O4 C8 1_555 1_555
In1Z O3 1_555 1_555
In1DA O1EA 1_555 1_555
O1EA C1EA 1_555 1_555
O1A In1 1_555 1_555
C1EA C2EA 1_555 1_555
C2EA C3EA 1_555 1_555
C3EA N1EA 1_555 1_555
C4EA C2EA 1_555 1_555
H1EA C4EA 1_555 1_555
N1EA H2EA 1_555 1_555
H3EA N1EA 1_555 1_555
O2EA In1DA 1_555 1_555
O2A In1 1_555 1_555
C5EA C4EA 1_555 1_555
H4EA C5EA 1_555 1_555
C6EA C3EA 1_555 1_555
H5EA C6EA 1_555 1_555
C7EA C5EA 1_555 1_555
C8EA C7EA 1_555 1_555
O3EA In1 1_555 1_555
O3R In1 1_555 1_555
O4EA In1 1_555 1_555
O4R In1 1_555 1_555
C1 O2 1_555 1_555
C6 C7 1_555 1_555
O4 In1Z 1_555 1_555
C1EA O2EA 1_555 1_555
C6EA C7EA 1_555 1_555
C8EA O3EA 1_555 1_555
C8EA O4EA 1_555 1_555

#END
