
#######################################################################
#
#                 Cambridge Crystallographic Data Centre
#                                CCDC 
#
#######################################################################
#
# If this CIF has been generated from an entry in the Cambridge 
# Structural Database, then it will include bibliographic, chemical, 
# crystal, experimental, refinement or atomic coordinate data resulting 
# from the CCDC's data processing and validation procedures.
#
#######################################################################

data_LUVTAY
_chemical_formula_moiety         '(C30 H24 N2 O10 Zn3)n,2.5n(C3 H7 N1 O1)'
_chemical_name_systematic        
'catena-(bis(\m~3~-DL-lactato)-bis(\m~3~-4-(4-pyridyl)benzoato)-tri-zinc(ii) N,N-dimethylformamide solvate)'
_symmetry_cell_setting           tetragonal
_symmetry_space_group_name_H-M   'P -4 21 c'
_symmetry_Int_Tables_number      114
_space_group_name_Hall           'P -4 2n'
loop_
_symmetry_equiv_pos_site_id
_symmetry_equiv_pos_as_xyz
1 x,y,z
2 -x,-y,z
3 y,-x,-z
4 -y,x,-z
5 1/2-x,1/2+y,1/2-z
6 1/2+x,1/2-y,1/2-z
7 1/2-y,1/2-x,1/2+z
8 1/2+y,1/2+x,1/2+z
_cell_length_a                   24.8859(14)
_cell_length_b                   24.8859(14)
_cell_length_c                   15.1743(17)
_cell_angle_alpha                90
_cell_angle_beta                 90
_cell_angle_gamma                90
_cell_volume                     9397.57
_exptl_crystal_colour            colorless
_exptl_crystal_description       block
_cell_formula_units_Z            8
loop_
_atom_site_label
_atom_site_type_symbol
_atom_site_fract_x
_atom_site_fract_y
_atom_site_fract_z
Zn1 Zn -0.87922(3) -0.02242(3) -0.03023(5)
Zn2 Zn -0.85097(3) -0.00071(3) -0.24683(4)
Zn3 Zn -0.48235(3) -0.37265(3) 0.03298(5)
O1 O -0.81785(18) 0.03372(18) -0.0464(3)
O2 O -0.80103(19) 0.0489(2) -0.1905(3)
O3 O -0.55560(19) -0.3014(2) 0.2075(3)
O4 O -0.5455(2) -0.3216(2) 0.0656(3)
O5 O -0.89609(17) -0.02901(19) -0.1565(3)
O6 O -0.94886(17) -0.07009(17) -0.0229(3)
O7 O -1.0074(2) -0.1133(2) -0.1038(3)
O8 O -0.9917(2) 0.12260(19) -0.4075(3)
O9 O -0.93833(19) 0.06791(18) -0.4821(3)
O10 O -0.88742(16) 0.03412(17) -0.3414(3)
N1 N -0.5728(2) 0.3105(2) 0.0102(4)
N2 N -0.8248(2) -0.0854(2) -0.0093(4)
C1 C -0.7578(3) 0.1028(3) -0.0865(5)
C2 C -0.7279(3) 0.1274(3) -0.1513(5)
H1 H -0.7316 0.1157 -0.2106
C3 C -0.6927(3) 0.1688(3) -0.1323(5)
H2 H -0.6726 0.1852 -0.1783
C4 C -0.6866(3) 0.1864(3) -0.0461(5)
C5 C -0.7173(3) 0.1620(3) 0.0198(5)
H3 H -0.7142 0.1737 0.0791
C6 C -0.7520(3) 0.1209(3) -0.0011(5)
H4 H -0.7726 0.1045 0.0444
C7 C -0.6476(3) 0.2298(3) -0.0259(5)
C8 C -0.6211(3) 0.2320(3) 0.0545(5)
H5 H -0.6284 0.2062 0.0990
C9 C -0.5835(3) 0.2733(3) 0.0692(5)
H6 H -0.5651 0.2743 0.1239
C10 C -0.5995(3) 0.3093(3) -0.0655(5)
H7 H -0.5925 0.3368 -0.1075
C11 C -0.6371(4) 0.2700(3) -0.0866(6)
H8 H -0.6553 0.2707 -0.1417
C12 C -0.7957(2) 0.0579(3) -0.1089(5)
C13 C -0.6161(3) -0.2649(3) 0.1038(5)
C14 C -0.6358(3) -0.2644(3) 0.0201(6)
H9 H -0.6200 -0.2870 -0.0231
C15 C -0.6787(3) -0.2315(3) -0.0033(5)
H10 H -0.6911 -0.2310 -0.0626
C16 C -0.7031(3) -0.2000(3) 0.0583(4)
C17 C -0.6839(3) -0.2009(3) 0.1449(5)
H11 H -0.7003 -0.1790 0.1884
C18 C -0.6409(3) -0.2336(3) 0.1674(5)
H12 H -0.6284 -0.2346 0.2266
C19 C -0.7464(3) -0.1619(3) 0.0322(5)
C20 C -0.7468(3) -0.1362(3) -0.0470(5)
H13 H -0.7201 -0.1443 -0.0897
C21 C -0.7858(3) -0.0985(3) -0.0655(5)
H14 H -0.7848 -0.0810 -0.1211
C22 C -0.8256(3) -0.1113(3) 0.0673(5)
H15 H -0.8533 -0.1030 0.1083
C23 C -0.7878(3) -0.1500(3) 0.0901(5)
H16 H -0.7903 -0.1683 0.1449
C24 C -0.5687(3) -0.2991(3) 0.1267(5)
C25 C -0.9394(3) -0.0624(3) -0.1794(4)
H17 H -0.9661 -0.0407 -0.2134
C26 C -0.9668(3) -0.0836(3) -0.0964(5)
C27 C -0.9220(4) -0.1081(4) -0.2350(6)
H18 H -0.9053 -0.0944 -0.2890
H19 H -0.9532 -0.1302 -0.2502
H20 H -0.8958 -0.1299 -0.2025
C28 C -0.9533(3) 0.0893(3) -0.4119(5)
C29 C -0.9224(3) 0.0776(3) -0.3271(5)
H21 H -0.9483 0.0684 -0.2791
C30 C -0.8913(3) 0.1291(4) -0.3020(5)
H22 H -0.8679 0.1216 -0.2516
H23 H -0.8695 0.1409 -0.3521
H24 H -0.9169 0.1575 -0.2862
Zn1B Zn -1.02242(3) -0.12078(3) 0.03023(5)
Zn2G Zn -0.50071(3) -0.35097(3) 0.25317(4)
Zn3D Zn -1.01765(3) 0.12735(3) -0.53298(5)
Zn3G Zn -0.87265(3) 0.01765(3) -0.46702(5)
Zn3A Zn -0.51765(3) 0.37265(3) 0.03298(5)
O3G O -0.8014(2) -0.05560(19) -0.2925(3)
O6C O -0.92991(17) 0.05114(17) 0.0229(3)
O7C O -0.8867(2) -0.0074(2) 0.1038(3)
O8D O -0.5083(2) -0.37740(19) -0.0925(3)
O9G O -0.43209(18) -0.43833(19) 0.0179(3)
O10G O -0.46588(17) -0.38742(16) 0.1586(3)
N1A N -0.4272(2) -0.3105(2) 0.0102(4)
N3 N -0.7072(5) 0.0173(5) 0.1541(7)
O11 O -0.6874(6) 0.0959(5) 0.2205(9)
C31 C -0.6753(7) 0.0595(6) 0.1721(9)
H25 H -0.6409 0.0606 0.1450
C32 C -0.7614(7) 0.0134(9) 0.1934(13)
H26 H -0.7768 0.0494 0.1992
H27 H -0.7588 -0.0033 0.2518
H28 H -0.7844 -0.0086 0.1555
C33 C -0.6918(7) -0.0239(6) 0.0948(10)
H29 H -0.6618 -0.0114 0.0584
H30 H -0.7223 -0.0332 0.0569
H31 H -0.6806 -0.0557 0.1283
N4 N -0.6744(7) -0.0518(7) 0.4064(12)
O12 O -0.6586(6) -0.1251(5) 0.3288(8)
C34 C -0.6866(9) -0.0830(8) 0.3333(16)
H32 H -0.7132 -0.0736 0.2911
C35 C -0.6334(10) -0.0698(10) 0.4669(19)
H33 H -0.6277 -0.1085 0.4593
H34 H -0.6449 -0.0626 0.5275
H35 H -0.5998 -0.0506 0.4550
C36 C -0.7030(10) -0.0031(9) 0.4206(17)
H36 H -0.7364 -0.0036 0.3866
H37 H -0.6808 0.0273 0.4016
H38 H -0.7113 0.0006 0.4834
N5 N -0.6483(10) 0.0039(11) -0.2044(17)
O13 O -0.6280(12) 0.0541(12) -0.3224(18)
C37 C -0.617(2) 0.032(2) -0.135(3)
C38 C -0.6780(15) -0.0414(13) -0.175(3)
C39 C -0.6526(13) 0.0154(13) -0.293(2)
loop_
_geom_bond_atom_site_label_1
_geom_bond_atom_site_label_2
_geom_bond_site_symmetry_1
_geom_bond_site_symmetry_2
Zn1 O1 1_555 1_555
Zn2 O2 1_555 1_555
Zn3 O4 1_555 1_555
O1 C12 1_555 1_555
O2 C12 1_555 1_555
O3 C24 1_555 1_555
O4 C24 1_555 1_555
O5 Zn1 1_555 1_555
O6 Zn1 1_555 1_555
O7 C26 1_555 1_555
O8 C28 1_555 1_555
O9 C28 1_555 1_555
O10 Zn2 1_555 1_555
N1 C9 1_555 1_555
N2 Zn1 1_555 1_555
C1 C2 1_555 1_555
C2 H1 1_555 1_555
C3 C2 1_555 1_555
H2 C3 1_555 1_555
C4 C3 1_555 1_555
C5 C4 1_555 1_555
H3 C5 1_555 1_555
C6 C1 1_555 1_555
H4 C6 1_555 1_555
C7 C4 1_555 1_555
C8 C7 1_555 1_555
H5 C8 1_555 1_555
C9 C8 1_555 1_555
H6 C9 1_555 1_555
C10 N1 1_555 1_555
H7 C10 1_555 1_555
C11 C7 1_555 1_555
H8 C11 1_555 1_555
C12 C1 1_555 1_555
C13 C14 1_555 1_555
C14 H9 1_555 1_555
C15 C14 1_555 1_555
H10 C15 1_555 1_555
C16 C15 1_555 1_555
C17 C16 1_555 1_555
H11 C17 1_555 1_555
C18 C13 1_555 1_555
H12 C18 1_555 1_555
C19 C16 1_555 1_555
C20 C19 1_555 1_555
H13 C20 1_555 1_555
C21 N2 1_555 1_555
H14 C21 1_555 1_555
C22 N2 1_555 1_555
H15 C22 1_555 1_555
C23 C19 1_555 1_555
H16 C23 1_555 1_555
C24 C13 1_555 1_555
C25 O5 1_555 1_555
H17 C25 1_555 1_555
C26 O6 1_555 1_555
C27 C25 1_555 1_555
H18 C27 1_555 1_555
H19 C27 1_555 1_555
H20 C27 1_555 1_555
C28 C29 1_555 1_555
C29 O10 1_555 1_555
H21 C29 1_555 1_555
C30 C29 1_555 1_555
H22 C30 1_555 1_555
H23 C30 1_555 1_555
H24 C30 1_555 1_555
N3 C31 1_555 1_555
O11 C31 1_555 1_555
C31 H25 1_555 1_555
C32 N3 1_555 1_555
H26 C32 1_555 1_555
H27 C32 1_555 1_555
H28 C32 1_555 1_555
C33 N3 1_555 1_555
H29 C33 1_555 1_555
H30 C33 1_555 1_555
H31 C33 1_555 1_555
N4 C34 1_555 1_555
O12 C34 1_555 1_555
C34 H32 1_555 1_555
C35 N4 1_555 1_555
H33 C35 1_555 1_555
H34 C35 1_555 1_555
H35 C35 1_555 1_555
C36 N4 1_555 1_555
H36 C36 1_555 1_555
H37 C36 1_555 1_555
H38 C36 1_555 1_555
N5 C37 1_555 1_555
O13 C39 1_555 1_555
C38 N5 1_555 1_555
C39 N5 1_555 1_555
Zn1B O6 1_555 1_555
Zn2G O3 1_555 1_555
Zn3D O8 1_555 1_555
Zn3G O9 1_555 1_555
Zn3A N1 1_555 1_555
O3G Zn2 1_555 1_555
O6C Zn1 1_555 1_555
O7C Zn1 1_555 1_555
O8D Zn3 1_555 1_555
O9G Zn3 1_555 1_555
O10G Zn3 1_555 1_555
N1A Zn3 1_555 1_555
Zn2 O5 1_555 1_555
O7 Zn1B 1_555 1_555
O10 Zn3G 1_555 1_555
C5 C6 1_555 1_555
C10 C11 1_555 1_555
C17 C18 1_555 1_555
C20 C21 1_555 1_555
C22 C23 1_555 1_555
C25 C26 1_555 1_555
Zn2G O10G 1_555 1_555

#END
