
#######################################################################
#
#                 Cambridge Crystallographic Data Centre
#                                CCDC 
#
#######################################################################
#
# If this CIF has been generated from an entry in the Cambridge 
# Structural Database, then it will include bibliographic, chemical, 
# crystal, experimental, refinement or atomic coordinate data resulting 
# from the CCDC's data processing and validation procedures.
#
#######################################################################

data_IYIJAC
_chemical_formula_moiety         '(C48 H28 N2 O8 Zn2)n'
_chemical_name_systematic        
"catena-((\m~8~-1,2,4,5-tetrakis(4-carboxylatophenyl)benzene)-(\m~2~-4,4'-ethene-1,2-diyl(3-ethynylpyridine)(pyridine))-di-zinc unknown solvate)"
_symmetry_cell_setting           monoclinic
_symmetry_space_group_name_H-M   'P 2/m'
_symmetry_Int_Tables_number      10
_space_group_name_Hall           '-P 2y'
loop_
_symmetry_equiv_pos_site_id
_symmetry_equiv_pos_as_xyz
1 x,y,z
2 -x,y,-z
3 -x,-y,-z
4 x,-y,z
_cell_length_a                   11.2539(19)
_cell_length_b                   15.772(2)
_cell_length_c                   16.175(3)
_cell_angle_alpha                90
_cell_angle_beta                 98.771(14)
_cell_angle_gamma                90
_cell_volume                     2837.43
_exptl_crystal_colour            yellow
_exptl_crystal_description       plate
_cell_formula_units_Z            1
loop_
_atom_site_label
_atom_site_type_symbol
_atom_site_fract_x
_atom_site_fract_y
_atom_site_fract_z
Zn1 Zn 0.01928(9) -0.5000 0.09062(7)
O1 O -0.1081(4) -0.4106(3) 0.0669(3)
O2 O -0.1393(4) -0.4107(3) -0.0714(3)
C1 C -0.1509(5) -0.3840(3) -0.0012(5)
C2 C -0.2301(5) -0.3035(3) -0.0031(4)
C3 C -0.3186(11) -0.2875(8) -0.0646(9)
H1 H -0.3330 -0.3263 -0.1099
C4 C -0.3928(12) -0.2149(7) -0.0659(9)
H2 H -0.4577 -0.2068 -0.1102
C5 C -0.3698(5) -0.1554(3) -0.0018(5)
C6 C -0.2731(11) -0.1732(7) 0.0653(9)
H3 H -0.2560 -0.1343 0.1105
C7 C -0.2043(11) -0.2468(8) 0.0648(9)
H4 H -0.1412 -0.2585 0.1094
C12 C -0.4405(4) -0.0770(3) -0.0011(5)
C13 C -0.3806(7) 0.0000 -0.0012(7)
H9 H -0.2963 0.0000 -0.0013
N1 N 0.0379(7) -0.5000 0.2137(5)
C14 C -0.0465(12) -0.5344(8) 0.2532(9)
H10 H -0.1156 -0.5589 0.2208
C15 C -0.0365(15) -0.5356(10) 0.3416(10)
H11 H -0.0972 -0.5632 0.3666
C16 C 0.0531(13) -0.5000 0.3898(10)
C17 C 0.1363(14) -0.4642(13) 0.3528(9)
C18 C 0.1309(15) -0.4640(11) 0.2635(9)
H12 H 0.1937 -0.4381 0.2393
C19 C 0.0480(17) -0.5000 0.4805(10)
H13 H 0.1236 -0.5000 0.5158
C20 C 0.341(2) -0.409(3) 0.4397(15)
H14 H 0.4145 -0.3911 0.4721
C21 C 0.2479(19) -0.432(2) 0.3984(11)
Zn1A Zn -1.01928(9) -0.5000 -0.09062(7)
Zn1_2 Zn -0.98072(9) -0.5000 0.09062(7)
Zn1_3 Zn -0.98072(9) 0.5000 0.09062(7)
Zn1_4 Zn 0.01928(9) 0.5000 0.09062(7)
Zn1A_2 Zn -1.01928(9) 0.5000 -0.09062(7)
Zn1A_3 Zn -0.01928(9) -0.5000 -0.09062(7)
Zn1A_4 Zn -0.01928(9) -0.5000 0.90938(7)
Zn1A_5 Zn -0.01928(9) 0.5000 -0.09062(7)
O1A O -0.8919(4) -0.4106(3) -0.0669(3)
O1B O -0.8919(4) 0.4106(3) -0.0669(3)
O1C O -0.1081(4) 0.4106(3) 0.0669(3)
O1B_2 O -0.8919(4) -0.5894(3) -0.0669(3)
O1C_2 O -0.1081(4) -0.5894(3) 0.0669(3)
O2A O -0.8607(4) -0.4107(3) 0.0714(3)
O2B O -0.8607(4) 0.4107(3) 0.0714(3)
O2C O -0.1393(4) 0.4107(3) -0.0714(3)
O2_2 O -1.1393(4) -0.4107(3) -0.0714(3)
O2A_2 O 0.1393(4) -0.4107(3) 0.0714(3)
O2B_2 O 0.1393(4) -0.5893(3) 0.0714(3)
O2C_2 O -1.1393(4) -0.5893(3) -0.0714(3)
C1A C -0.8491(5) -0.3840(3) 0.0012(5)
C1B C -0.8491(5) 0.3840(3) 0.0012(5)
C1C C -0.1509(5) 0.3840(3) -0.0012(5)
C2A C -0.7699(5) -0.3035(3) 0.0031(4)
C2B C -0.7699(5) 0.3035(3) 0.0031(4)
C2C C -0.2301(5) 0.3035(3) -0.0031(4)
C3A C -0.6814(11) -0.2875(8) 0.0646(9)
C3B C -0.6814(11) 0.2875(8) 0.0646(9)
C3C C -0.3186(11) 0.2875(8) -0.0646(9)
H1A H -0.6670 -0.3263 0.1099
H1B H -0.6670 0.3263 0.1099
H1C H -0.3330 0.3263 -0.1099
C4A C -0.6072(12) -0.2149(7) 0.0659(9)
C4B C -0.6072(12) 0.2149(7) 0.0659(9)
C4C C -0.3928(12) 0.2149(7) -0.0659(9)
H2A H -0.5423 -0.2068 0.1102
H2B H -0.5423 0.2068 0.1102
H2C H -0.4577 0.2068 -0.1102
C5A C -0.6302(5) -0.1554(3) 0.0018(5)
C5B C -0.6302(5) 0.1554(3) 0.0018(5)
C5C C -0.3698(5) 0.1554(3) -0.0018(5)
C6A C -0.7269(11) -0.1732(7) -0.0653(9)
C6B C -0.7269(11) 0.1732(7) -0.0653(9)
C6C C -0.2731(11) 0.1732(7) 0.0653(9)
H3A H -0.7440 -0.1343 -0.1105
H3B H -0.7440 0.1343 -0.1105
H3C H -0.2560 0.1343 0.1105
C7A C -0.7957(11) -0.2468(8) -0.0648(9)
C7B C -0.7957(11) 0.2468(8) -0.0648(9)
C7C C -0.2043(11) 0.2468(8) 0.0648(9)
H4A H -0.8588 -0.2585 -0.1094
H4B H -0.8588 0.2585 -0.1094
H4C H -0.1412 0.2585 0.1094
C12A C -0.5595(4) -0.0770(3) 0.0011(5)
C12B C -0.5595(4) 0.0770(3) 0.0011(5)
C12C C -0.4405(4) 0.0770(3) -0.0011(5)
C13A C -0.6194(7) 0.0000 0.0012(7)
H9A H -0.7037 0.0000 0.0013
N1A N -0.0379(7) -0.5000 0.7863(5)
N1A_2 N -1.0379(7) -0.5000 -0.2137(5)
C14A C 0.0465(12) -0.5344(8) 0.7468(9)
C14B C 0.0465(12) -0.4656(8) 0.7468(9)
C14C C -0.0465(12) -0.4656(8) 0.2532(9)
H10A H 0.1156 -0.5589 0.7792
H10B H 0.1156 -0.4411 0.7792
H10C H -0.1156 -0.4411 0.2208
C15A C 0.0365(15) -0.5356(10) 0.6584(10)
C15B C 0.0365(15) -0.4644(10) 0.6584(10)
C15C C -0.0365(15) -0.4644(10) 0.3416(10)
H11A H 0.0972 -0.5632 0.6334
H11B H 0.0972 -0.4368 0.6334
H11C H -0.0972 -0.4368 0.3666
C16A C -0.0531(13) -0.5000 0.6102(10)
C17A C -0.1363(14) -0.4642(13) 0.6472(9)
C17B C -0.1363(14) -0.5358(13) 0.6472(9)
C17C C 0.1363(14) -0.5358(13) 0.3528(9)
C18A C -0.1309(15) -0.4640(11) 0.7365(9)
C18B C -0.1309(15) -0.5360(11) 0.7365(9)
C18C C 0.1309(15) -0.5360(11) 0.2635(9)
H12A H -0.1937 -0.4381 0.7607
H12B H -0.1937 -0.5619 0.7607
H12C H 0.1937 -0.5619 0.2393
C19A C -0.0480(17) -0.5000 0.5195(10)
H13A H -0.1236 -0.5000 0.4842
C20A C -0.341(2) -0.409(3) 0.5603(15)
C20B C -0.341(2) -0.591(3) 0.5603(15)
C20C C 0.341(2) -0.591(3) 0.4397(15)
H14A H -0.4145 -0.3911 0.5279
H14B H -0.4145 -0.6089 0.5279
H14C H 0.4145 -0.6089 0.4721
C21A C -0.2479(19) -0.432(2) 0.6016(11)
C21B C -0.2479(19) -0.568(2) 0.6016(11)
C21C C 0.2479(19) -0.568(2) 0.3984(11)
C8? C -0.2371(10) -0.2473(7) -0.0711(9)
H5? H -0.1976 -0.2600 -0.1175
C9? C -0.3034(10) -0.1722(7) -0.0696(9)
H6? H -0.3045 -0.1320 -0.1135
C10? C -0.3652(10) -0.2145(7) 0.0593(9)
H7? H -0.4129 -0.2061 0.1023
C11? C -0.2925(11) -0.2884(8) 0.0624(8)
H8? H -0.2870 -0.3264 0.1085
loop_
_geom_bond_atom_site_label_1
_geom_bond_atom_site_label_2
_geom_bond_site_symmetry_1
_geom_bond_site_symmetry_2
Zn1 O1 1_555 1_555
O1 C1 1_555 1_555
O2 C1 1_555 1_555
C1 C2 1_555 1_555
C2 C3 1_555 1_555
C3 H1 1_555 1_555
C4 C3 1_555 1_555
H2 C4 1_555 1_555
C5 C4 1_555 1_555
C6 C5 1_555 1_555
H3 C6 1_555 1_555
C7 C2 1_555 1_555
H4 C7 1_555 1_555
C12 C5 1_555 1_555
C13 C12 1_555 1_555
H9 C13 1_555 1_555
N1 Zn1 1_555 1_555
C14 N1 1_555 1_555
H10 C14 1_555 1_555
C15 H11 1_555 1_555
C16 C15 1_555 1_555
C17 C16 1_555 1_555
C18 N1 1_555 1_555
H12 C18 1_555 1_555
C19 C16 1_555 1_555
H13 C19 1_555 1_555
C20 H14 1_555 1_555
C21 C17 1_555 1_555
Zn1A O1A 1_555 1_555
Zn1_2 O2A 1_555 1_555
Zn1_3 O2B 1_555 1_555
Zn1_4 O1C 1_555 1_555
Zn1A_2 O1B 1_555 1_555
Zn1A_3 O2 1_555 1_555
Zn1A_4 N1A 1_555 1_555
Zn1A_5 O2C 1_555 1_555
O1A C1A 1_555 1_555
O1B C1B 1_555 1_555
O1C C1C 1_555 1_555
O1B_2 Zn1A 1_555 1_555
O1C_2 Zn1 1_555 1_555
O2A C1A 1_555 1_555
O2B C1B 1_555 1_555
O2C C1C 1_555 1_555
O2_2 Zn1A 1_555 1_555
O2A_2 Zn1 1_555 1_555
O2B_2 Zn1 1_555 1_555
O2C_2 Zn1A 1_555 1_555
C1A C2A 1_555 1_555
C1B C2B 1_555 1_555
C1C C2C 1_555 1_555
C2A C3A 1_555 1_555
C2B C3B 1_555 1_555
C2C C3C 1_555 1_555
C3A H1A 1_555 1_555
C3B H1B 1_555 1_555
C3C H1C 1_555 1_555
C4A C3A 1_555 1_555
C4B C3B 1_555 1_555
C4C C3C 1_555 1_555
H2A C4A 1_555 1_555
H2B C4B 1_555 1_555
H2C C4C 1_555 1_555
C5A C4A 1_555 1_555
C5B C4B 1_555 1_555
C5C C4C 1_555 1_555
C6A C5A 1_555 1_555
C6B C5B 1_555 1_555
C6C C5C 1_555 1_555
H3A C6A 1_555 1_555
H3B C6B 1_555 1_555
H3C C6C 1_555 1_555
C7A C2A 1_555 1_555
C7B C2B 1_555 1_555
C7C C2C 1_555 1_555
H4A C7A 1_555 1_555
H4B C7B 1_555 1_555
H4C C7C 1_555 1_555
C12A C12 1_555 1_555
C12B C5B 1_555 1_555
C12C C13 1_555 1_555
C13A C12A 1_555 1_555
H9A C13A 1_555 1_555
N1A C14A 1_555 1_555
N1A_2 Zn1A 1_555 1_555
C14A C14B 1_555 1_555
C14B N1A 1_555 1_555
C14C N1 1_555 1_555
H10A C14A 1_555 1_555
H10B C14B 1_555 1_555
H10C C14C 1_555 1_555
C15A C15B 1_555 1_555
C15B H11B 1_555 1_555
C15C C15 1_555 1_555
H11A C15A 1_555 1_555
H11C C15C 1_555 1_555
C16A C15A 1_555 1_555
C17A C16A 1_555 1_555
C17B C16A 1_555 1_555
C17C C16 1_555 1_555
C18A N1A 1_555 1_555
C18B N1A 1_555 1_555
C18C N1 1_555 1_555
H12A C18A 1_555 1_555
H12B C18B 1_555 1_555
H12C C18C 1_555 1_555
C19A C19 1_555 1_555
H13A C19A 1_555 1_555
C20A H14A 1_555 1_555
C20B H14B 1_555 1_555
C20C H14C 1_555 1_555
C21A C17A 1_555 1_555
C21B C17B 1_555 1_555
C21C C17C 1_555 1_555
C6 C7 1_555 1_555
C14 C14C 1_555 1_555
C16 C15C 1_555 1_555
C17 C18 1_555 1_555
C17 C17C 1_555 1_555
C18 C18C 1_555 1_555
C20 C21 1_555 1_555
C5A C12A 1_555 1_555
C5C C12C 1_555 1_555
C6A C7A 1_555 1_555
C6B C7B 1_555 1_555
C6C C7C 1_555 1_555
C12B C12C 1_555 1_555
C12B C13A 1_555 1_555
C15B C16A 1_555 1_555
C16A C19A 1_555 1_555
C17A C17B 1_555 1_555
C17A C18A 1_555 1_555
C17B C18B 1_555 1_555
C17C C18C 1_555 1_555
C18A C18B 1_555 1_555
C20A C21A 1_555 1_555
C20B C21B 1_555 1_555
C20C C21C 1_555 1_555

#END
