
#######################################################################
#
#                 Cambridge Crystallographic Data Centre
#                                CCDC 
#
#######################################################################
#
# If this CIF has been generated from an entry in the Cambridge 
# Structural Database, then it will include bibliographic, chemical, 
# crystal, experimental, refinement or atomic coordinate data resulting 
# from the CCDC's data processing and validation procedures.
#
#######################################################################

data_KAFTUI
_chemical_name_common            FMOF-2
_chemical_formula_moiety         '(C57 H38 F18 N2 O16 Zn4)n,0.5n(C2 H6 O1)'
_chemical_name_systematic        
"catena-(bis(\m~3~-4,4'-(1,1,1,3,3,3-hexafluoropropane-2,2-diyl)dibenzoato)-bis(\m~3~-oxo)-(\m~2~-4,4'-(1,1,1,3,3,3-hexafluoropropane-2,2-diyl)dibenzoato)-bis(N,N-dimethylformamide)-tetra-zinc ethanol solvate)"
_symmetry_cell_setting           monoclinic
_symmetry_space_group_name_H-M   'P 2/n'
_symmetry_Int_Tables_number      13
_space_group_name_Hall           '-P 2yac'
loop_
_symmetry_equiv_pos_site_id
_symmetry_equiv_pos_as_xyz
1 x,y,z
2 1/2-x,y,1/2-z
3 -x,-y,-z
4 1/2+x,-y,1/2+z
_cell_length_a                   17.885(3)
_cell_length_b                   7.5417(12)
_cell_length_c                   23.764(4)
_cell_angle_alpha                90
_cell_angle_beta                 92.498(2)
_cell_angle_gamma                90
_cell_volume                     3202.32
_exptl_crystal_colour            colorless
_cell_formula_units_Z            2
loop_
_atom_site_label
_atom_site_type_symbol
_atom_site_fract_x
_atom_site_fract_y
_atom_site_fract_z
Zn1 Zn 1.078443(15) 0.02615(4) 0.031386(11)
Zn2 Zn 1.009490(15) -0.29444(4) 0.087329(11)
F1 F 0.64512(9) -1.2376(2) 0.25157(7)
O1 O 0.93954(11) -0.4304(3) 0.12852(8)
O2 O 1.33951(10) 0.8458(3) 0.43860(9)
F2 F 0.72520(10) -1.2954(2) 0.18964(8)
F3 F 1.06505(9) 0.1303(2) 0.41724(7)
F4 F 0.94981(9) 0.2124(3) 0.41211(7)
O3 O 1.06788(11) 0.1410(2) 0.10537(7)
F5 F 0.65234(9) -1.0696(2) 0.17914(7)
F6 F 0.91181(9) 0.4653(2) 0.33832(7)
F7 F 0.99310(9) 0.6692(2) 0.32519(7)
O4 O 0.92562(11) -0.6103(3) 0.05511(8)
F8 F 1.02985(10) 0.3543(3) 0.46484(6)
O5 O 1.01754(12) -0.0999(3) 0.14285(8)
F9 F 0.95879(9) 0.6119(3) 0.40879(7)
O6 O 1.39096(10) 0.5938(3) 0.40925(8)
C1 C 1.33591(15) 0.6914(4) 0.41949(11)
C2 C 0.7500 -1.0417(5) 0.2500
C3 C 1.07020(14) 0.3892(4) 0.26327(11)
H1 H 1.0901 0.5050 0.2688
C4 C 0.79585(14) -0.9256(3) 0.21052(11)
C5 C 0.82885(14) -0.7715(3) 0.23260(11)
H2 H 0.8238 -0.7430 0.2712
C6 C 0.87672(14) -0.6994(3) 0.14248(11)
C7 C 1.04279(14) 0.0549(3) 0.14576(11)
C8 C 1.03896(14) 0.3970(4) 0.36576(11)
C9 C 1.11610(15) 0.4813(4) 0.38101(11)
C10 C 1.04040(14) 0.2990(3) 0.30862(11)
C11 C 1.04294(14) 0.1421(3) 0.20249(10)
C12 C 1.17943(15) 0.3778(4) 0.37394(11)
H3 H 1.1739 0.2603 0.3599
C13 C 1.01386(15) 0.0514(4) 0.24709(11)
H4 H 0.9951 -0.0654 0.2415
C14 C 0.97534(15) 0.5375(4) 0.35950(12)
C15 C 1.01174(14) 0.1290(4) 0.29980(11)
H5 H 0.9907 0.0663 0.3300
C16 C 0.80710(16) -0.9692(4) 0.15459(12)
H6 H 0.7875 -1.0770 0.1395
C17 C 0.69337(15) -1.1625(4) 0.21732(12)
C18 C 1.19604(16) 0.7192(4) 0.41438(13)
H7 H 1.2017 0.8370 0.4281
C19 C 0.86887(14) -0.6597(3) 0.19881(11)
H8 H 0.8911 -0.5551 0.2144
C20 C 1.02056(16) 0.2726(4) 0.41506(12)
C21 C 0.84659(16) -0.8568(4) 0.12105(12)
H9 H 0.8533 -0.8872 0.0828
C22 C 0.91736(14) -0.5744(4) 0.10546(11)
C23 C 1.07102(14) 0.3125(3) 0.21065(11)
H10 H 1.0907 0.3758 0.1801
C24 C 1.25014(15) 0.4434(4) 0.38695(11)
H11 H 1.2928 0.3706 0.3823
C25 C 1.12507(15) 0.6526(4) 0.40216(12)
H12 H 1.0824 0.7238 0.4082
O7 O 1.00310(9) -0.1744(2) 0.01372(7)
O8 O 1.16467(10) 0.1258(3) -0.00826(8)
C26 C 1.25920(14) 0.6159(4) 0.40690(11)
N1 N 1.25054(13) 0.3216(3) -0.03465(10)
C27 C 1.18313(15) 0.2806(4) -0.01823(11)
C28 C 1.30806(17) 0.1854(5) -0.03782(15)
H13 H 1.2862 0.0690 -0.0303
H14 H 1.3485 0.2098 -0.0097
H15 H 1.3282 0.1857 -0.0755
C29 C 1.2709(2) 0.5038(5) -0.04811(15)
H16 H 1.2288 0.5827 -0.0411
H17 H 1.2831 0.5113 -0.0879
H18 H 1.3145 0.5396 -0.0244
H19 H 1.1512(17) 0.377(4) -0.0112(12)
Zn1B Zn 0.921557(15) -0.02615(4) -0.031386(11)
Zn1A Zn 1.421557(15) -0.97385(4) 0.468614(11)
Zn2A Zn 1.490510(15) 0.70556(4) 0.412671(11)
Zn2A_2 Zn 0.490510(15) -0.29444(4) 0.412671(11)
Zn2B Zn 0.990510(15) 0.29444(4) -0.087329(11)
Zn2A_3 Zn 1.490510(15) -1.29444(4) 0.412671(11)
F1A F 0.85488(9) -1.2376(2) 0.24843(7)
O1A O 0.56046(11) -0.4304(3) 0.37148(8)
O1A_2 O 1.56046(11) 0.5696(3) 0.37148(8)
O2A O 1.16049(10) -0.1542(3) 0.06140(9)
F2A F 0.77480(10) -1.2954(2) 0.31036(8)
F3A F 1.43495(9) -0.8697(2) 0.08276(7)
F4A F 1.55019(9) -0.7876(3) 0.08789(7)
O3A O 1.43212(11) -0.8590(2) 0.39463(7)
O3B O 0.93212(11) -0.1410(2) -0.10537(7)
F5A F 0.84766(9) -1.0696(2) 0.32086(7)
F6A F 1.58819(9) -0.5347(2) 0.16168(7)
F7A F 1.50690(9) -0.3308(2) 0.17481(7)
O4A O 0.57438(11) -0.6103(3) 0.44489(8)
F8A F 1.47015(10) -0.6457(3) 0.03516(6)
O5A O 1.48246(12) -1.0999(3) 0.35715(8)
O5A_2 O 1.48246(12) 0.9001(3) 0.35715(8)
F9A F 1.54121(9) -0.3881(3) 0.09121(7)
O6A O 1.10904(10) -0.4062(3) 0.09075(8)
C1A C 1.16409(15) -0.3086(4) 0.08051(11)
C3A C 1.42980(14) -0.6108(4) 0.23673(11)
H1A H 1.4099 -0.4950 0.2312
C4A C 0.70415(14) -0.9256(3) 0.28948(11)
C5A C 0.67115(14) -0.7715(3) 0.26740(11)
H2A H 0.6762 -0.7430 0.2288
C6A C 0.62328(14) -0.6994(3) 0.35752(11)
C7A C 1.45721(14) -0.9451(3) 0.35424(11)
C8A C 1.46104(14) -0.6030(4) 0.13424(11)
C9A C 1.38390(15) -0.5187(4) 0.11899(11)
C10A C 1.45960(14) -0.7010(3) 0.19138(11)
C11A C 1.45706(14) -0.8579(3) 0.29751(10)
C12A C 1.32057(15) -0.6222(4) 0.12606(11)
H3A H 1.3261 -0.7397 0.1401
C13A C 1.48614(15) -0.9486(4) 0.25291(11)
H4A H 1.5049 -1.0654 0.2585
C14A C 1.52466(15) -0.4625(4) 0.14050(12)
C15A C 1.48826(14) -0.8710(4) 0.20020(11)
H5A H 1.5093 -0.9337 0.1700
C16A C 0.69290(16) -0.9692(4) 0.34541(12)
H6A H 0.7125 -1.0770 0.3605
C17A C 0.80663(15) -1.1625(4) 0.28268(12)
C18A C 1.30396(16) -0.2808(4) 0.08562(13)
H7A H 1.2983 -0.1630 0.0719
C19A C 0.63113(14) -0.6597(3) 0.30119(11)
H8A H 0.6089 -0.5551 0.2856
C20A C 1.47944(16) -0.7274(4) 0.08494(12)
C21A C 0.65341(16) -0.8568(4) 0.37895(12)
H9A H 0.6467 -0.8872 0.4172
C22A C 0.58264(14) -0.5744(4) 0.39454(11)
C23A C 1.42898(14) -0.6875(3) 0.28935(11)
H10A H 1.4093 -0.6242 0.3199
C24A C 1.24986(15) -0.5566(4) 0.11305(11)
H11A H 1.2072 -0.6294 0.1177
C25A C 1.37493(15) -0.3474(4) 0.09784(12)
H12A H 1.4176 -0.2762 0.0918
O7B O 0.99690(9) 0.1744(2) -0.01372(7)
O7A O 1.49690(9) 0.8256(2) 0.48628(7)
O8B O 0.83533(10) -0.1258(3) 0.00826(8)
C26A C 1.24080(14) -0.3841(4) 0.09310(11)
N1B N 0.74946(13) -0.3216(3) 0.03465(10)
C27B C 0.81687(15) -0.2806(4) 0.01823(11)
C28B C 0.69194(17) -0.1854(5) 0.03782(15)
H13B H 0.7138 -0.0690 0.0303
H14B H 0.6515 -0.2098 0.0097
H15B H 0.6718 -0.1857 0.0755
C29B C 0.7291(2) -0.5038(5) 0.04811(15)
H16B H 0.7712 -0.5827 0.0411
H17B H 0.7169 -0.5113 0.0879
H18B H 0.6855 -0.5396 0.0244
H19B H 0.8488(17) -0.377(4) 0.0112(12)
O9? O 0.2315(6) 0.0284(14) 0.1717(5)
C30? C 0.2458(13) -0.027(3) 0.2302(8)
C31? C 0.2500 -0.159(5) 0.2500
loop_
_geom_bond_atom_site_label_1
_geom_bond_atom_site_label_2
_geom_bond_site_symmetry_1
_geom_bond_site_symmetry_2
Zn1 O3 1_555 1_555
Zn2 O1 1_555 1_555
F1 C17 1_555 1_555
O1 C22 1_555 1_555
O2 C1 1_555 1_555
F2 C17 1_555 1_555
F3 C20 1_555 1_555
F4 C20 1_555 1_555
O3 C7 1_555 1_555
F5 C17 1_555 1_555
F6 C14 1_555 1_555
F7 C14 1_555 1_555
O4 C22 1_555 1_555
F8 C20 1_555 1_555
O5 Zn2 1_555 1_555
F9 C14 1_555 1_555
O6 C1 1_555 1_555
C1 C26 1_555 1_555
C2 C4 1_555 1_555
C3 H1 1_555 1_555
C4 C5 1_555 1_555
C5 H2 1_555 1_555
C6 C19 1_555 1_555
C7 O5 1_555 1_555
C8 C9 1_555 1_555
C9 C12 1_555 1_555
C10 C3 1_555 1_555
C11 C7 1_555 1_555
C12 H3 1_555 1_555
C13 C11 1_555 1_555
H4 C13 1_555 1_555
C14 C8 1_555 1_555
C15 C10 1_555 1_555
H5 C15 1_555 1_555
C16 C4 1_555 1_555
H6 C16 1_555 1_555
C17 C2 1_555 1_555
C18 H7 1_555 1_555
C19 C5 1_555 1_555
H8 C19 1_555 1_555
C20 C8 1_555 1_555
C21 C6 1_555 1_555
H9 C21 1_555 1_555
C22 C6 1_555 1_555
C23 C3 1_555 1_555
H10 C23 1_555 1_555
C24 C12 1_555 1_555
H11 C24 1_555 1_555
C25 C9 1_555 1_555
H12 C25 1_555 1_555
O7 Zn1 1_555 1_555
O8 Zn1 1_555 1_555
C26 C18 1_555 1_555
N1 C27 1_555 1_555
C27 O8 1_555 1_555
C28 N1 1_555 1_555
H13 C28 1_555 1_555
H14 C28 1_555 1_555
H15 C28 1_555 1_555
C29 N1 1_555 1_555
H16 C29 1_555 1_555
H17 C29 1_555 1_555
H18 C29 1_555 1_555
H19 C27 1_555 1_555
Zn1B O7 1_555 1_555
Zn1A O3A 1_555 1_555
Zn2A O6 1_555 1_555
Zn2A_2 O1A 1_555 1_555
Zn2B O7B 1_555 1_555
Zn2A_3 O5A 1_555 1_555
F1A C17A 1_555 1_555
O1A C22A 1_555 1_555
O1A_2 Zn2A 1_555 1_555
O2A C1A 1_555 1_555
F2A C17A 1_555 1_555
F3A C20A 1_555 1_555
F4A C20A 1_555 1_555
O3A C7A 1_555 1_555
O3B Zn1B 1_555 1_555
F5A C17A 1_555 1_555
F6A C14A 1_555 1_555
F7A C14A 1_555 1_555
O4A C22A 1_555 1_555
F8A C20A 1_555 1_555
O5A C7A 1_555 1_555
O5A_2 Zn2A 1_555 1_555
F9A C14A 1_555 1_555
O6A Zn2 1_555 1_555
C1A O6A 1_555 1_555
C3A H1A 1_555 1_555
C4A C2 1_555 1_555
C5A C4A 1_555 1_555
H2A C5A 1_555 1_555
C6A C19A 1_555 1_555
C7A C11A 1_555 1_555
C8A C9A 1_555 1_555
C9A C12A 1_555 1_555
C10A C3A 1_555 1_555
C11A C13A 1_555 1_555
C12A H3A 1_555 1_555
C13A H4A 1_555 1_555
C14A C8A 1_555 1_555
C15A C10A 1_555 1_555
H5A C15A 1_555 1_555
C16A C4A 1_555 1_555
H6A C16A 1_555 1_555
C17A C2 1_555 1_555
C18A H7A 1_555 1_555
C19A C5A 1_555 1_555
H8A C19A 1_555 1_555
C20A C8A 1_555 1_555
C21A C6A 1_555 1_555
H9A C21A 1_555 1_555
C22A C6A 1_555 1_555
C23A C3A 1_555 1_555
H10A C23A 1_555 1_555
C24A C12A 1_555 1_555
H11A C24A 1_555 1_555
C25A C9A 1_555 1_555
H12A C25A 1_555 1_555
O7B Zn1 1_555 1_555
O7A Zn2A 1_555 1_555
O8B Zn1B 1_555 1_555
C26A C1A 1_555 1_555
N1B C27B 1_555 1_555
C27B O8B 1_555 1_555
C28B N1B 1_555 1_555
H13B C28B 1_555 1_555
H14B C28B 1_555 1_555
H15B C28B 1_555 1_555
C29B N1B 1_555 1_555
H16B C29B 1_555 1_555
H17B C29B 1_555 1_555
H18B C29B 1_555 1_555
H19B C27B 1_555 1_555
Zn2 O7 1_555 1_555
C8 C10 1_555 1_555
C11 C23 1_555 1_555
C13 C15 1_555 1_555
C16 C21 1_555 1_555
C18 C25 1_555 1_555
C24 C26 1_555 1_555
Zn1B O7B 1_555 1_555
C8A C10A 1_555 1_555
C11A C23A 1_555 1_555
C13A C15A 1_555 1_555
C16A C21A 1_555 1_555
C18A C25A 1_555 1_555
C18A C26A 1_555 1_555
C24A C26A 1_555 1_555

#END
