
#######################################################################
#
#                 Cambridge Crystallographic Data Centre
#                                CCDC 
#
#######################################################################
#
# If this CIF has been generated from an entry in the Cambridge 
# Structural Database, then it will include bibliographic, chemical, 
# crystal, experimental, refinement or atomic coordinate data resulting 
# from the CCDC's data processing and validation procedures.
#
#######################################################################

data_VOGTER
_chemical_name_common            CPO-26-Mg
_chemical_formula_moiety         '(C8 H8 Mg1 O8)n'
_chemical_name_systematic        
catena-[(\m~4~-2,5-Dihydroxyterephthalato-O,O',O'',O''')-diaqua-magnesium]
_symmetry_cell_setting           monoclinic
_symmetry_space_group_name_H-M   'C 2/c'
_symmetry_Int_Tables_number      15
_space_group_name_Hall           '-C 2yc'
loop_
_symmetry_equiv_pos_site_id
_symmetry_equiv_pos_as_xyz
1 x,y,z
2 1/2+x,1/2+y,z
3 -x,y,1/2-z
4 1/2-x,1/2+y,1/2-z
5 -x,-y,-z
6 1/2-x,1/2-y,-z
7 x,-y,1/2+z
8 1/2+x,1/2-y,1/2+z
_cell_length_a                   8.349(3)
_cell_length_b                   16.645(6)
_cell_length_c                   6.997(2)
_cell_angle_alpha                90
_cell_angle_beta                 108.236(3)
_cell_angle_gamma                90
_cell_volume                     923.53
_exptl_crystal_colour            colorless
_exptl_crystal_description       needle
_cell_formula_units_Z            4
loop_
_atom_site_label
_atom_site_type_symbol
_atom_site_fract_x
_atom_site_fract_y
_atom_site_fract_z
_atom_site_U_iso_or_equiv
_atom_site_thermal_displace_type
Mg1 Mg 1.0000 0.30909(5) 0.2500 0.0178 Uani
C1 C 0.8989(2) 0.16761(11) -0.0515(3) 0.0176 Uani
C2 C 0.9520(2) 0.08100(10) -0.0279(3) 0.0165 Uani
C3 C 0.8363(2) 0.02054(11) -0.1077(3) 0.0178 Uani
H1 H 0.728(3) 0.0332(12) -0.184(3) 0.0220 Uiso
C4 C 1.1179(2) 0.05909(11) 0.0810(3) 0.0174 Uani
O1 O 1.00681(16) 0.21832(8) 0.0482(2) 0.0246 Uani
O2 O 0.75509(15) 0.18574(8) -0.1625(2) 0.0237 Uani
O3 O 1.24034(15) 0.11619(8) 0.1614(2) 0.0225 Uani
H2 H 1.186(3) 0.1643(17) 0.135(4) 0.0530 Uiso
O4 O 1.0012(2) 0.39429(9) 0.0312(2) 0.0243 Uani
H3 H 0.919(3) 0.3915(15) -0.066(4) 0.0450 Uiso
H4 H 1.088(3) 0.3925(15) -0.012(4) 0.0510 Uiso
Mg1G Mg 0.5000 0.19091(5) -0.2500 0.0178 Uani
Mg1F Mg 1.0000 -0.30909(5) -0.2500 0.0178 Uani
Mg1A Mg 1.5000 -0.19091(5) 0.2500 0.0178 Uani
C1D C 1.1011(2) -0.16761(11) 0.0515(3) 0.0176 Uani
C2D C 1.0480(2) -0.08100(10) 0.0279(3) 0.0165 Uani
C3D C 1.1637(2) -0.02054(11) 0.1077(3) 0.0178 Uani
H1D H 1.272(3) -0.0332(12) 0.184(3) 0.0220 Uiso
C4D C 0.8821(2) -0.05909(11) -0.0810(3) 0.0174 Uani
O1D O 0.99319(16) -0.21832(8) -0.0482(2) 0.0246 Uani
O1B O 0.99319(16) 0.21832(8) 0.4518(2) 0.0246 Uani
O2D O 1.24491(15) -0.18574(8) 0.1625(2) 0.0237 Uani
O2G O 1.25509(15) 0.31426(8) 0.3375(2) 0.0237 Uani
O2E O 0.74491(15) 0.31426(8) 0.1625(2) 0.0237 Uani
O3D O 0.75966(15) -0.11619(8) -0.1614(2) 0.0225 Uani
H2D H 0.814(3) -0.1643(17) -0.135(4) 0.0530 Uiso
O4B O 0.9988(2) 0.39429(9) 0.4688(2) 0.0243 Uani
H3B H 1.081(3) 0.3915(15) 0.566(4) 0.0450 Uiso
H4B H 0.912(3) 0.3925(15) 0.512(4) 0.0510 Uiso
loop_
_atom_site_aniso_label
_atom_site_aniso_U_11
_atom_site_aniso_U_22
_atom_site_aniso_U_33
_atom_site_aniso_U_23
_atom_site_aniso_U_13
_atom_site_aniso_U_12
Mg1 0.0145(5) 0.0126(5) 0.0219(5) 0.000 -0.0007(4) 0.000
C1 0.0143(10) 0.0191(9) 0.0184(9) -0.0011(7) 0.0038(8) 0.0014(7)
C2 0.0139(9) 0.0182(9) 0.0146(9) 0.0000(7) 0.0005(7) 0.0021(7)
C3 0.0109(9) 0.0218(10) 0.0170(9) -0.0009(7) -0.0009(7) 0.0023(7)
C4 0.0126 0.021 0.0167 -0.0037 0.0018 -0.0008
O1 0.0167(7) 0.0171(7) 0.0338(8) -0.0071(6) -0.0011(6) 0.0003(5)
O2 0.0155 0.0206 0.0293 0.0002 -0.0012 0.0033
O3 0.0134 0.0171 0.0305 -0.0027 -0.0024 -0.0008
O4 0.0189(8) 0.0265(8) 0.0244(8) 0.0039(6) 0.0022(7) 0.0003(6)
Mg1G 0.0145 0.0126 0.0219 0 -0.0007 0
Mg1F 0.0145 0.0126 0.0219 0 -0.0007 0
Mg1A 0.0145 0.0126 0.0219 0 -0.0007 0
C1D 0.0143 0.0191 0.0184 -0.0011 0.0038 0.0014
C2D 0.0139 0.0182 0.0146 0 0.0005 0.0021
C3D 0.0109 0.0218 0.017 -0.0009 -0.0009 0.0023
C4D 0.0126(9) 0.0210(10) 0.0167(9) -0.0037(7) 0.0018(7) -0.0008(7)
O1D 0.0167 0.0171 0.0338 -0.0071 -0.0011 0.0003
O1B 0.0167 0.0171 0.0338 0.0071 -0.0011 -0.0003
O2D 0.0155 0.0206 0.0293 0.0002 -0.0012 0.0033
O2G 0.0155 0.0206 0.0293 -0.0002 -0.0012 -0.0033
O2E 0.0155 0.0206 0.0293 0.0002 -0.0012 0.0033
O3D 0.0134(7) 0.0171(7) 0.0305(7) -0.0027(6) -0.0024(6) -0.0008(6)
O4B 0.0189 0.0265 0.0244 -0.0039 0.0022 -0.0003
loop_
_geom_bond_atom_site_label_1
_geom_bond_atom_site_label_2
_geom_bond_site_symmetry_1
_geom_bond_site_symmetry_2
Mg1 O1 1_555 1_555
C1 C2 1_555 1_555
C2 C3 1_555 1_555
C3 H1 1_555 1_555
C4 C2 1_555 1_555
O1 C1 1_555 1_555
O2 C1 1_555 1_555
O3 C4 1_555 1_555
H2 O3 1_555 1_555
O4 Mg1 1_555 1_555
H3 O4 1_555 1_555
H4 O4 1_555 1_555
Mg1G O2 1_555 1_555
Mg1F O1D 1_555 1_555
Mg1A O2D 1_555 1_555
C1D C2D 1_555 1_555
C2D C3D 1_555 1_555
C3D C4 1_555 1_555
H1D C3D 1_555 1_555
C4D C3 1_555 1_555
O1D C1D 1_555 1_555
O1B Mg1 1_555 1_555
O2D C1D 1_555 1_555
O2G Mg1 1_555 1_555
O2E Mg1 1_555 1_555
O3D C4D 1_555 1_555
H2D O3D 1_555 1_555
O4B Mg1 1_555 1_555
H3B O4B 1_555 1_555
H4B O4B 1_555 1_555
C2D C4D 1_555 1_555

#END
