
#######################################################################
#
#                 Cambridge Crystallographic Data Centre
#                                CCDC 
#
#######################################################################
#
# If this CIF has been generated from an entry in the Cambridge 
# Structural Database, then it will include bibliographic, chemical, 
# crystal, experimental, refinement or atomic coordinate data resulting 
# from the CCDC's data processing and validation procedures.
#
#######################################################################

data_COKNOH01
_chemical_formula_moiety         '(C8 H2 Fe2 O6)n'
_chemical_name_systematic        
catena-[(\m~8~-2,5-Dioxidoterephthalato)-di-iron(ii)]
_symmetry_cell_setting           rhombohedral
_symmetry_space_group_name_H-M   'R -3'
_symmetry_Int_Tables_number      148
_space_group_name_Hall           '-R 3'
loop_
_symmetry_equiv_pos_site_id
_symmetry_equiv_pos_as_xyz
1 x,y,z
2 -y,x-y,z
3 -x+y,-x,z
4 1/3+x,2/3+y,2/3+z
5 1/3-y,2/3+x-y,2/3+z
6 1/3-x+y,2/3-x,2/3+z
7 2/3+x,1/3+y,1/3+z
8 2/3-y,1/3+x-y,1/3+z
9 2/3-x+y,1/3-x,1/3+z
10 -x,-y,-z
11 y,-x+y,-z
12 x-y,x,-z
13 2/3-x,1/3-y,1/3-z
14 2/3+y,1/3-x+y,1/3-z
15 2/3+x-y,1/3+x,1/3-z
16 1/3-x,2/3-y,2/3-z
17 1/3+y,2/3-x+y,2/3-z
18 1/3+x-y,2/3+x,2/3-z
_cell_length_a                   26.1627(21)
_cell_length_b                   26.1627
_cell_length_c                   6.8422(7)
_cell_angle_alpha                90
_cell_angle_beta                 90
_cell_angle_gamma                120
_cell_volume                     4055.94
_cell_formula_units_Z            9
loop_
_atom_site_label
_atom_site_type_symbol
_atom_site_fract_x
_atom_site_fract_y
_atom_site_fract_z
_atom_site_U_iso_or_equiv
_atom_site_thermal_displace_type
Fe1 Fe 0.3823(5) 0.3510(6) 0.1396(14) 0.0312 Uiso
O1 O 0.3275(7) 0.2949(7) 0.3639(29) 0.0223 Uiso
O2 O 0.2977(10) 0.2198(9) 0.5981(30) 0.0479 Uiso
O3 O 0.3567(8) 0.2747(7) 0.0041(24) 0.0149 Uiso
C1 C 0.3176(8) 0.2450(8) 0.4271(26) 0.0325 Uiso
C2 C 0.3303(10) 0.2057(8) 0.2938(28) 0.0488 Uiso
C3 C 0.3432(7) 0.2224(7) 0.0895(21) 0.0018 Uiso
C4 C 0.3526(8) 0.1806(8) -0.0342(21) 0.0132 Uiso
H1 H 0.3617(11) 0.1907(12) -0.166(4) 0.0066 Uiso
O1L O 0.3392(7) 0.0384(7) -0.0306(29) 0.0223 Uiso
O2L O 0.3690(10) 0.1135(9) -0.2648(30) 0.0479 Uiso
O3L O 0.3100(8) 0.0586(7) 0.3292(24) 0.0149 Uiso
C1L C 0.3491(8) 0.0883(8) -0.0938(26) 0.0325 Uiso
C2L C 0.3364(10) 0.1276(8) 0.0395(28) 0.0488 Uiso
C3L C 0.3235(7) 0.1109(7) 0.2438(21) 0.0018 Uiso
C4L C 0.3141(8) 0.1527(8) 0.3675(21) 0.0132 Uiso
H1L H 0.3050(11) 0.1426(12) 0.499(4) 0.0066 Uiso
Fe1J Fe 0.3510(6) -0.0313(8) -0.1396(14) 0.0312 Uiso
Fe1E Fe 0.3020(8) 0.2844(5) -0.1937(14) 0.0312 Uiso
Fe1E_2 Fe 0.3020(8) 0.2844(5) 0.8063(14) 0.0312 Uiso
Fe1L Fe 0.2844(5) -0.0177(6) 0.1937(14) 0.0312 Uiso
Fe1G Fe 0.3157(6) 0.3646(8) 0.4729(14) 0.0312 Uiso
Fe1Q Fe 0.3646(8) 0.0490(5) -0.4729(14) 0.0312 Uiso
Fe1Q_2 Fe 0.3646(8) 0.0490(5) 0.5271(14) 0.0312 Uiso
O1J O 0.2949(7) -0.0326(10) -0.3639(29) 0.0223 Uiso
O1E O 0.3007(10) 0.3392(7) 0.0306(29) 0.0223 Uiso
O2G O 0.4469(9) 0.4112(13) -0.0686(30) 0.0479 Uiso
O2Q O 0.4112(13) -0.0356(10) 0.0686(30) 0.0479 Uiso
O3J O 0.2747(7) -0.0820(11) -0.0041(24) 0.0149 Uiso
O3G O 0.3920(7) 0.4153(11) 0.3374(24) 0.0149 Uiso
O3Q O 0.4153(11) 0.0234(8) -0.3374(24) 0.0149 Uiso
loop_
_geom_bond_atom_site_label_1
_geom_bond_atom_site_label_2
_geom_bond_site_symmetry_1
_geom_bond_site_symmetry_2
Fe1 O1 1_555 1_555
O1 C1 1_555 1_555
O2 C1 1_555 1_555
O3 Fe1 1_555 1_555
C1 C2 1_555 1_555
C2 C3 1_555 1_555
C3 O3 1_555 1_555
C4 C3 1_555 1_555
H1 C4 1_555 1_555
O1L C1L 1_555 1_555
O2L C1L 1_555 1_555
O3L C3L 1_555 1_555
C1L C2L 1_555 1_555
C2L C4 1_555 1_555
C3L C2L 1_555 1_555
C4L C2 1_555 1_555
H1L C4L 1_555 1_555
Fe1J O1L 1_555 1_555
Fe1E O3 1_555 1_555
Fe1E_2 O2 1_555 1_555
Fe1L O1L 1_555 1_555
Fe1G O1 1_555 1_555
Fe1Q O2L 1_555 1_555
Fe1Q_2 O3L 1_555 1_555
O1J Fe1J 1_555 1_555
O1E Fe1 1_555 1_555
O2G Fe1 1_555 1_555
O2Q Fe1J 1_555 1_555
O3J Fe1J 1_555 1_555
O3G Fe1 1_555 1_555
O3Q Fe1J 1_555 1_555
O3L Fe1L 1_555 1_555
C3L C4L 1_555 1_555
Fe1E O1E 1_555 1_555
Fe1L O3J 1_555 1_555
Fe1G O3G 1_555 1_555
Fe1Q O1J 1_555 1_555
Fe1Q O3Q 1_555 1_555

#END
