
#######################################################################
#
#                 Cambridge Crystallographic Data Centre
#                                CCDC 
#
#######################################################################
#
# If this CIF has been generated from an entry in the Cambridge 
# Structural Database, then it will include bibliographic, chemical, 
# crystal, experimental, refinement or atomic coordinate data resulting 
# from the CCDC's data processing and validation procedures.
#
#######################################################################

data_NOHSOU
_chemical_formula_moiety         
'(C54 H34 Ca1 O14 Zn2)n,1.32(H2 O1),3.81(C4 H8 O1)'
_chemical_name_systematic        
"catena-(bis(\m-4,4',4''-(benzene-1,3,5-triyl)tribenzoato)-diaqua-calcium-di-zinc tetrahydrofuran solvate hydrate)"
_symmetry_cell_setting           trigonal
_symmetry_space_group_name_H-M   'P -3 1 c'
_symmetry_Int_Tables_number      163
_space_group_name_Hall           '-P 3 2c'
loop_
_symmetry_equiv_pos_site_id
_symmetry_equiv_pos_as_xyz
1 x,y,z
2 -y,x-y,z
3 -x+y,-x,z
4 -y,-x,1/2-z
5 -x+y,y,1/2-z
6 x,x-y,1/2-z
7 -x,-y,-z
8 y,-x+y,-z
9 x-y,x,-z
10 y,x,1/2+z
11 x-y,-y,1/2+z
12 -x,-x+y,1/2+z
_cell_length_a                   16.550(2)
_cell_length_b                   16.550(2)
_cell_length_c                   14.748(3)
_cell_angle_alpha                90
_cell_angle_beta                 90
_cell_angle_gamma                120
_cell_volume                     3498.32
_exptl_crystal_colour            colorless
_exptl_crystal_description       'hexagonal plate'
_cell_formula_units_Z            2
_chemical_properties_physical    Moisture-sensitive
loop_
_atom_site_label
_atom_site_type_symbol
_atom_site_fract_x
_atom_site_fract_y
_atom_site_fract_z
O4 O 0.1869(10) 0.5934(5) 0.2500
H6 H 0.1512 0.5559 0.2892
H6E H 0.1512 0.5953 0.2108
Ca1 Ca 0.3333 0.6667 0.7500
Zn1 Zn 0.3333 0.6667 0.50022(4)
O1 O 0.46627(16) 0.74470(17) 0.52074(18)
O2 O 0.45175(16) 0.67857(16) 0.65641(17)
O3 O 0.3333 0.6667 0.3641(4)
C1 C 0.4995(2) 0.7326(2) 0.5943(2)
C2 C 0.6036(2) 0.7882(2) 0.6036(2)
C3 C 0.6508(2) 0.7586(2) 0.6598(2)
H1 H 0.6167 0.7032 0.6945
C4 C 0.7475(2) 0.8091(2) 0.6659(2)
H2 H 0.7791 0.7866 0.7028
C5 C 0.7990(2) 0.8930(2) 0.61818(18)
C6 C 0.7508(2) 0.9234(2) 0.5634(2)
H3 H 0.7842 0.9808 0.5317
C7 C 0.6540(2) 0.8703(2) 0.5547(2)
H4 H 0.6223 0.8905 0.5151
C8 C 0.9023(2) 0.94773(19) 0.62362(17)
C9 C 0.9485(2) 1.0452(2) 0.62407(17)
H5 H 0.9131 1.0761 0.6247
O1A O 1.25530(17) 0.72157(23) 0.52074(18)
O2A O 1.32143(16) 0.77318(23) 0.65641(17)
C1A C 1.2674(2) 0.7669(3) 0.5943(2)
C2A C 1.2118(2) 0.8154(3) 0.6036(2)
C3A C 1.2414(2) 0.8922(3) 0.6598(2)
H1A H 1.2968 0.9135 0.6945
C4A C 1.1909(2) 0.9384(3) 0.6659(2)
H2A H 1.2134 0.9925 0.7028
C5A C 1.1070(2) 0.9060(3) 0.61818(18)
C6A C 1.0766(2) 0.8274(3) 0.5634(2)
H3A H 1.0192 0.8034 0.5317
C7A C 1.1297(2) 0.7837(3) 0.5547(2)
H4A H 1.1095 0.7318 0.5151
C8A C 1.05227(19) 0.95457(28) 0.62362(17)
C9A C 0.9548(2) 0.9033(3) 0.62407(17)
H5A H 0.9239 0.8370 0.6247
O1B O 1.27843(23) 1.53373(16) 0.52074(18)
O2B O 1.22682(23) 1.54825(16) 0.65641(17)
C1B C 1.2331(3) 1.5005(2) 0.5943(2)
C2B C 1.1846(3) 1.3964(2) 0.6036(2)
C3B C 1.1078(3) 1.3492(2) 0.6598(2)
H1B H 1.0865 1.3833 0.6945
C4B C 1.0616(3) 1.2525(2) 0.6659(2)
H2B H 1.0075 1.2209 0.7028
C5B C 1.0940(3) 1.2010(2) 0.61818(18)
C6B C 1.1726(3) 1.2492(2) 0.5634(2)
H3B H 1.1966 1.2158 0.5317
C7B C 1.2163(3) 1.3460(2) 0.5547(2)
H4B H 1.2682 1.3777 0.5151
C8B C 1.04543(28) 1.0977(2) 0.62362(17)
C9B C 1.0967(3) 1.0515(2) 0.62407(17)
H5B H 1.1630 1.0869 0.6247
O1A_2 O 0.25530(17) -0.27843(23) 0.52074(18)
O2A_2 O 0.32143(16) -0.22682(23) 0.65641(17)
C1A_2 C 0.2674(2) -0.2331(3) 0.5943(2)
C2A_2 C 0.2118(2) -0.1846(3) 0.6036(2)
C3A_2 C 0.2414(2) -0.1078(3) 0.6598(2)
H1A_2 H 0.2968 -0.0865 0.6945
C4A_2 C 0.1909(2) -0.0616(3) 0.6659(2)
H2A_2 H 0.2134 -0.0075 0.7028
C5A_2 C 0.1070(2) -0.0940(3) 0.61818(18)
C6A_2 C 0.0766(2) -0.1726(3) 0.5634(2)
H3A_2 H 0.0192 -0.1966 0.5317
C7A_2 C 0.1297(2) -0.2163(3) 0.5547(2)
H4A_2 H 0.1095 -0.2682 0.5151
C8A_2 C 0.05227(19) -0.04543(28) 0.62362(17)
C9A_2 C -0.0452(2) -0.0967(3) 0.62407(17)
H5A_2 H -0.0761 -0.1630 0.6247
O1B_2 O 0.27843(23) 0.53373(16) 0.52074(18)
O2B_2 O 0.22682(23) 0.54825(16) 0.65641(17)
C1B_2 C 0.2331(3) 0.5005(2) 0.5943(2)
C2B_2 C 0.1846(3) 0.3964(2) 0.6036(2)
C3B_2 C 0.1078(3) 0.3492(2) 0.6598(2)
H1B_2 H 0.0865 0.3833 0.6945
C4B_2 C 0.0616(3) 0.2525(2) 0.6659(2)
H2B_2 H 0.0075 0.2209 0.7028
C5B_2 C 0.0940(3) 0.2010(2) 0.61818(18)
C6B_2 C 0.1726(3) 0.2492(2) 0.5634(2)
H3B_2 H 0.1966 0.2158 0.5317
C7B_2 C 0.2163(3) 0.3460(2) 0.5547(2)
H4B_2 H 0.2682 0.3777 0.5151
C8B_2 C 0.04543(28) 0.0977(2) 0.62362(17)
C9B_2 C 0.0967(3) 0.0515(2) 0.62407(17)
H5B_2 H 0.1630 0.0869 0.6247
O1_2 O -0.53373(16) -0.25530(17) 0.52074(18)
O2_2 O -0.54825(16) -0.32143(16) 0.65641(17)
C1_2 C -0.5005(2) -0.2674(2) 0.5943(2)
C2_2 C -0.3964(2) -0.2118(2) 0.6036(2)
C3_2 C -0.3492(2) -0.2414(2) 0.6598(2)
H1_2 H -0.3833 -0.2968 0.6945
C4_2 C -0.2525(2) -0.1909(2) 0.6659(2)
H2_2 H -0.2209 -0.2134 0.7028
C5_2 C -0.2010(2) -0.1070(2) 0.61818(18)
C6_2 C -0.2492(2) -0.0766(2) 0.5634(2)
H3_2 H -0.2158 -0.0192 0.5317
C7_2 C -0.3460(2) -0.1297(2) 0.5547(2)
H4_2 H -0.3777 -0.1095 0.5151
C8_2 C -0.0977(2) -0.05227(19) 0.62362(17)
C9_2 C -0.0515(2) 0.0452(2) 0.62407(17)
H5_2 H -0.0869 0.0761 0.6247
Zn1_2 Zn 1.3333 0.6667 0.50022(4)
O3_2 O 1.3333 0.6667 0.3641(4)
Ca1_2 Ca -0.6667 -0.3333 0.7500
Ca1_3 Ca 0.3333 -0.3333 0.7500
Ca1_4 Ca 1.3333 0.6667 0.7500
Ca1_5 Ca 1.3333 1.6667 0.7500
Zn1_3 Zn -0.6667 -0.3333 0.50022(4)
Zn1_4 Zn 0.3333 -0.3333 0.50022(4)
Zn1_5 Zn 1.3333 1.6667 0.50022(4)
O1_3 O 1.46627(16) 0.74470(17) 0.52074(18)
O1A_3 O 0.25530(17) 0.72157(23) 0.52074(18)
O1B_3 O 1.27843(23) 0.53373(16) 0.52074(18)
O2A_3 O 0.32143(16) 0.77318(23) 0.65641(17)
O2C O 0.32143(16) 0.54825(16) 0.84359(17)
O2D O 0.22682(23) 0.67857(16) 0.84359(17)
O2E O 0.45175(16) 0.77318(23) 0.84359(17)
O5? O 0.5468(8) 0.9534(6) 0.1831(6)
C10? C 0.5475(8) 1.0391(6) 0.1636(6)
H7? H 0.6115 1.0931 0.1695
H8? H 0.5061 1.0477 0.2061
C11? C 0.5125(8) 1.0311(7) 0.0660(6)
H9? H 0.5531 1.0888 0.0317
H10? H 0.4480 1.0201 0.0654
C12? C 0.5158(8) 0.9474(6) 0.0246(5)
H11? H 0.4524 0.8933 0.0160
H12? H 0.5492 0.9639 -0.0341
C13? C 0.5700(8) 0.9279(7) 0.0975(7)
H13? H 0.5516 0.8610 0.0974
H14? H 0.6380 0.9654 0.0861
O6? O 0.5974(15) 0.7542(17) 0.2371(14)
C14? C 0.6081(13) 0.8199(16) 0.1714(10)
H15? H 0.5768 0.7895 0.1138
H16? H 0.6747 0.8650 0.1594
C15? C 0.559(3) 0.867(2) 0.2187(17)
H17? H 0.6001 0.9354 0.2216
H18? H 0.5005 0.8526 0.1868
C16? C 0.538(4) 0.824(5) 0.314(2)
H19? H 0.4729 0.7714 0.3181
H20? H 0.5473 0.8709 0.3604
H21? H 0.2780(12) 0.646(7) 0.3468(4)
loop_
_geom_bond_atom_site_label_1
_geom_bond_atom_site_label_2
_geom_bond_site_symmetry_1
_geom_bond_site_symmetry_2
Ca1 O2 1_555 1_555
Zn1 O1 1_555 1_555
O1 C1 1_555 1_555
O2 C1 1_555 1_555
O3 Zn1 1_555 1_555
C1 C2 1_555 1_555
C2 C3 1_555 1_555
C3 H1 1_555 1_555
C4 C3 1_555 1_555
H2 C4 1_555 1_555
C5 C4 1_555 1_555
C6 C5 1_555 1_555
H3 C6 1_555 1_555
C7 C2 1_555 1_555
H4 C7 1_555 1_555
C8 C5 1_555 1_555
C9 C8 1_555 1_555
H5 C9 1_555 1_555
O4 H6 1_555 1_555
O1A C1A 1_555 1_555
O2A C1A 1_555 1_555
C1A C2A 1_555 1_555
C2A C3A 1_555 1_555
C3A H1A 1_555 1_555
C4A C3A 1_555 1_555
H2A C4A 1_555 1_555
C5A C4A 1_555 1_555
C6A C5A 1_555 1_555
H3A C6A 1_555 1_555
C7A C2A 1_555 1_555
H4A C7A 1_555 1_555
C8A C5A 1_555 1_555
C9A C8 1_555 1_555
H5A C9A 1_555 1_555
O1B C1B 1_555 1_555
O2B C1B 1_555 1_555
C1B C2B 1_555 1_555
C2B C3B 1_555 1_555
C3B H1B 1_555 1_555
C4B C3B 1_555 1_555
H2B C4B 1_555 1_555
C5B C4B 1_555 1_555
C6B C5B 1_555 1_555
H3B C6B 1_555 1_555
C7B C2B 1_555 1_555
H4B C7B 1_555 1_555
C8B C9 1_555 1_555
C9B C8A 1_555 1_555
H5B C9B 1_555 1_555
O1A_2 C1A_2 1_555 1_555
O2A_2 C1A_2 1_555 1_555
C1A_2 C2A_2 1_555 1_555
C2A_2 C3A_2 1_555 1_555
C3A_2 H1A_2 1_555 1_555
C4A_2 C3A_2 1_555 1_555
H2A_2 C4A_2 1_555 1_555
C5A_2 C4A_2 1_555 1_555
C6A_2 C5A_2 1_555 1_555
H3A_2 C6A_2 1_555 1_555
C7A_2 C2A_2 1_555 1_555
H4A_2 C7A_2 1_555 1_555
C8A_2 C5A_2 1_555 1_555
C9A_2 C8A_2 1_555 1_555
H5A_2 C9A_2 1_555 1_555
O1B_2 Zn1 1_555 1_555
O2B_2 Ca1 1_555 1_555
C1B_2 O1B_2 1_555 1_555
C2B_2 C1B_2 1_555 1_555
C3B_2 C2B_2 1_555 1_555
H1B_2 C3B_2 1_555 1_555
C4B_2 C3B_2 1_555 1_555
H2B_2 C4B_2 1_555 1_555
C5B_2 C4B_2 1_555 1_555
C6B_2 C5B_2 1_555 1_555
H3B_2 C6B_2 1_555 1_555
C7B_2 C2B_2 1_555 1_555
H4B_2 C7B_2 1_555 1_555
C8B_2 C5B_2 1_555 1_555
C9B_2 C8A_2 1_555 1_555
H5B_2 C9B_2 1_555 1_555
O1_2 C1_2 1_555 1_555
O2_2 C1_2 1_555 1_555
C1_2 C2_2 1_555 1_555
C2_2 C3_2 1_555 1_555
C3_2 H1_2 1_555 1_555
C4_2 C3_2 1_555 1_555
H2_2 C4_2 1_555 1_555
C5_2 C4_2 1_555 1_555
C6_2 C5_2 1_555 1_555
H3_2 C6_2 1_555 1_555
C7_2 C2_2 1_555 1_555
H4_2 C7_2 1_555 1_555
C8_2 C9A_2 1_555 1_555
C9_2 C8B_2 1_555 1_555
H5_2 C9_2 1_555 1_555
Zn1_2 O1A 1_555 1_555
O3_2 Zn1_2 1_555 1_555
Ca1_2 O2_2 1_555 1_555
Ca1_3 O2A_2 1_555 1_555
Ca1_4 O2A 1_555 1_555
Ca1_5 O2B 1_555 1_555
Zn1_3 O1_2 1_555 1_555
Zn1_4 O1A_2 1_555 1_555
Zn1_5 O1B 1_555 1_555
O1_3 Zn1_2 1_555 1_555
O1A_3 Zn1 1_555 1_555
O1B_3 Zn1_2 1_555 1_555
O2A_3 Ca1 1_555 1_555
O2C Ca1 1_555 1_555
O2D Ca1 1_555 1_555
O2E Ca1 1_555 1_555
H6E O4 1_555 1_555
C6 C7 1_555 1_555
C6A C7A 1_555 1_555
C8A C9A 1_555 1_555
C5B C8B 1_555 1_555
C6B C7B 1_555 1_555
C8B C9B 1_555 1_555
C6A_2 C7A_2 1_555 1_555
O2B_2 C1B_2 1_555 1_555
C6B_2 C7B_2 1_555 1_555
C8B_2 C9B_2 1_555 1_555
C5_2 C8_2 1_555 1_555
C6_2 C7_2 1_555 1_555
C8_2 C9_2 1_555 1_555

#END
