
#######################################################################
#
#                 Cambridge Crystallographic Data Centre
#                                CCDC 
#
#######################################################################
#
# If this CIF has been generated from an entry in the Cambridge 
# Structural Database, then it will include bibliographic, chemical, 
# crystal, experimental, refinement or atomic coordinate data resulting 
# from the CCDC's data processing and validation procedures.
#
#######################################################################

data_UWAGAB01
_chemical_formula_moiety         '(C78 H48 N2 O13 Zn4)n'
_chemical_name_systematic        
catena-(bis(\m~6~-4',4'',4'''-Nitrilotribiphenyl-4-carboxylato)-(\m~4~-oxo)-tetra-zinc)
_symmetry_cell_setting           cubic
_symmetry_space_group_name_H-M   'P a -3'
_symmetry_Int_Tables_number      205
_space_group_name_Hall           '-P 2ac 2ab 3'
loop_
_symmetry_equiv_pos_site_id
_symmetry_equiv_pos_as_xyz
1 x,y,z
2 1/2-x,-y,1/2+z
3 1/2+x,1/2-y,-z
4 -x,1/2+y,1/2-z
5 z,x,y
6 y,z,x
7 1/2-z,-x,1/2+y
8 -y,1/2+z,1/2-x
9 1/2+z,1/2-x,-y
10 1/2-y,-z,1/2+x
11 -z,1/2+x,1/2-y
12 1/2+y,1/2-z,-x
13 -x,-y,-z
14 1/2+x,y,1/2-z
15 1/2-x,1/2+y,z
16 x,1/2-y,1/2+z
17 -z,-x,-y
18 -y,-z,-x
19 1/2+z,x,1/2-y
20 y,1/2-z,1/2+x
21 1/2-z,1/2+x,y
22 1/2+y,z,1/2-x
23 z,1/2-x,1/2+y
24 1/2-y,1/2+z,x
_cell_length_a                   32.407(5)
_cell_length_b                   32.407(5)
_cell_length_c                   32.407(5)
_cell_angle_alpha                90
_cell_angle_beta                 90
_cell_angle_gamma                90
_cell_volume                     34034.3
_exptl_crystal_colour            brown
_exptl_crystal_description       prism
_cell_formula_units_Z            8
loop_
_atom_site_label
_atom_site_type_symbol
_atom_site_fract_x
_atom_site_fract_y
_atom_site_fract_z
Zn1 Zn 0.30032(2) 0.26947(2) 0.22159(2)
Zn2 Zn 0.21686(2) 0.21686(2) 0.21686(2)
N1 N 0.6420(2) 0.1420(2) 0.3580(2)
O1 O 0.35153(18) 0.24935(15) 0.24587(18)
O2 O 0.29660(16) 0.24990(18) 0.16567(16)
O3 O 0.24601(15) 0.20287(15) 0.16573(14)
O4 O 0.32921(18) 0.22007(17) 0.30324(18)
C1 C 0.6021(2) 0.1566(2) 0.3465(2)
C2 C 0.5919(2) 0.1613(2) 0.3053(2)
H1 H 0.6117 0.1565 0.2852
C3 C 0.2880(2) 0.2077(2) 0.1067(2)
C4 C 0.5226(3) 0.1806(2) 0.3220(2)
C5 C 0.2843(2) 0.1622(3) 0.0498(3)
H2 H 0.273 0.1386 0.038
C6 C 0.3568(3) 0.2299(2) 0.2780(3)
C7 C 0.5334(3) 0.1765(2) 0.3634(3)
H3 H 0.5135 0.1820 0.383
C8 C 0.2715(2) 0.1738(2) 0.0880(3)
H4 H 0.2513 0.1586 0.1015
C9 C 0.4729(3) 0.2167(3) 0.2748(3)
H5 H 0.4948 0.2244 0.2579
C10 C 0.4799(3) 0.1937(3) 0.3101(3)
C11 C 0.3132(3) 0.1838(3) 0.0281(3)
C12 C 0.3997(3) 0.2175(2) 0.2895(2)
C13 C 0.4074(3) 0.1954(3) 0.3238(3)
H6 H 0.3855 0.1881 0.3409
C14 C 0.5533(3) 0.1731(3) 0.2940(3)
H7 H 0.5475 0.1761 0.2661
C15 C 0.4327(3) 0.2281(3) 0.2646(3)
H8 H 0.4280 0.243 0.2407
C16 C 0.2750(2) 0.2213(2) 0.1485(2)
C17 C 0.4461(3) 0.1835(3) 0.3340(3)
H9 H 0.4501 0.1680 0.358
C18 C 0.3291(4) 0.2182(3) 0.0458(3)
H10 H 0.348 0.2342 0.0314
C19 C 0.5720(2) 0.1645(2) 0.3763(2)
H11 H 0.5779 0.1618 0.4042
C20 C 0.3174(4) 0.2297(3) 0.0853(3)
H12 H 0.3296 0.2526 0.0975
O5 O 0.25145(13) 0.25145(13) 0.25145(13)
N2 N 0.3684(4) 0.1316(4) -0.1316(4)
C21 C 0.3257(3) 0.1716(3) -0.0145(3)
C22 C 0.3496(3) 0.1481(3) -0.0965(3)
C23 C 0.3331(4) 0.1235(4) -0.0678(3)
H13 H 0.331 0.0957 -0.0745
C24 C 0.3192(4) 0.1345(4) -0.0305(3)
H14 H 0.3043 0.1154 -0.0152
C25 C 0.3489(7) 0.1882(7) -0.0851(5)
H15 H 0.3558 0.2084 -0.1042
C26 C 0.3381(7) 0.1996(7) -0.0453(6)
H16 H 0.3391 0.2275 -0.0385
Zn1H Zn 0.72159(2) 0.19968(2) -0.26947(2)
Zn1I Zn 0.23053(2) -0.22159(2) -0.19968(2)
Zn1E Zn 0.26947(2) 0.22159(2) 0.30032(2)
Zn1D Zn 0.22159(2) 0.30032(2) 0.26947(2)
Zn1J Zn 0.77841(2) -0.19968(2) 0.23053(2)
Zn1C Zn 0.69968(2) -0.23053(2) 0.27841(2)
Zn1K Zn 0.76947(2) 0.27841(2) 0.69968(2)
Zn1H_2 Zn 0.72159(2) 0.19968(2) 0.73053(2)
Zn2B Zn 0.71686(2) 0.28314(2) -0.21686(2)
Zn2A Zn 0.28314(2) -0.21686(2) -0.28314(2)
O1J O 0.75413(18) -0.14847(18) 0.25065(15)
O1K O 0.74935(15) 0.25413(18) 0.64847(18)
O1H O 0.74587(18) 0.14847(18) -0.24935(15)
O1I O 0.25065(15) -0.24587(18) -0.14847(18)
O2H O 0.66567(16) 0.20340(16) -0.24990(18)
O2I O 0.25010(18) -0.16567(16) -0.20340(16)
O3H O 0.66573(14) 0.25399(15) -0.20287(15)
O3I O 0.29713(15) -0.16573(14) -0.25399(15)
O3D O 0.16573(14) 0.24601(15) 0.20287(15)
O3E O 0.20287(15) 0.16573(14) 0.24601(15)
O4J O 0.69676(18) -0.17079(18) 0.27993(17)
O4K O 0.72007(17) 0.19676(18) 0.67079(18)
O4D O 0.30324(18) 0.32921(18) 0.22007(17)
O4K_2 O 0.72007(17) 0.19676(18) -0.32921(18)
O4A O 0.17079(18) -0.22007(17) -0.19676(18)
C1J C 0.6535(2) 0.1021(2) 0.3434(2)
C1K C 0.6566(2) 0.1535(2) 0.3979(2)
C2J C 0.6947(2) 0.0919(2) 0.3387(2)
C2K C 0.6613(2) 0.1947(2) 0.4081(2)
H1J H 0.7148 0.1117 0.3435
H1K H 0.6565 0.2148 0.3883
C3H C 0.6067(2) 0.2120(2) -0.2077(2)
C3I C 0.2923(2) -0.1067(2) -0.2120(2)
C4J C 0.6780(2) 0.0226(3) 0.3194(2)
C4K C 0.6806(2) 0.1780(2) 0.4774(3)
C5H C 0.5498(3) 0.2157(2) -0.1622(3)
C5I C 0.3378(3) -0.0498(3) -0.2157(2)
H2H H 0.538 0.227 -0.1386
H2I H 0.3614 -0.038 -0.227
C6J C 0.7220(3) -0.1432(3) 0.2701(2)
C6K C 0.7299(2) 0.2220(3) 0.6432(3)
C7J C 0.6366(3) 0.0334(3) 0.3235(2)
C7K C 0.6765(2) 0.1366(3) 0.4666(3)
H3J H 0.617 0.0135 0.3180
H3K H 0.6820 0.117 0.4865
C8H C 0.5880(3) 0.2285(2) -0.1738(2)
C8I C 0.3262(2) -0.0880(3) -0.2285(2)
H4H H 0.6015 0.2487 -0.1586
H4I H 0.3414 -0.1015 -0.2487
C9J C 0.7252(3) -0.0271(3) 0.2833(3)
C9K C 0.7167(3) 0.2252(3) 0.5271(3)
H5J H 0.7421 -0.0052 0.2756
H5K H 0.7244 0.2421 0.5052
C10J C 0.6899(3) -0.0201(3) 0.3063(3)
C10K C 0.6937(3) 0.1899(3) 0.5201(3)
C11H C 0.5281(3) 0.1868(3) -0.1838(3)
C11I C 0.3162(3) -0.0281(3) -0.1868(3)
C12J C 0.7105(2) -0.1003(3) 0.2825(2)
C12K C 0.7175(2) 0.2105(2) 0.6003(3)
C13J C 0.6762(3) -0.0926(3) 0.3046(3)
C13K C 0.6954(3) 0.1762(3) 0.5926(3)
H6J H 0.6591 -0.1145 0.3119
H6K H 0.6881 0.1591 0.6145
C14J C 0.7060(3) 0.0533(3) 0.3269(3)
C14K C 0.6731(3) 0.2060(3) 0.4467(3)
H7J H 0.7339 0.0475 0.3239
H7K H 0.6761 0.2339 0.4525
C15J C 0.7354(3) -0.0673(3) 0.2719(3)
C15K C 0.7281(3) 0.2354(3) 0.5673(3)
H8J H 0.7593 -0.0720 0.257
H8K H 0.743 0.2593 0.5720
C16H C 0.6485(2) 0.2250(2) -0.2213(2)
C16I C 0.2787(2) -0.1485(2) -0.2250(2)
C17J C 0.6660(3) -0.0539(3) 0.3165(3)
C17K C 0.6835(3) 0.1660(3) 0.5539(3)
H9J H 0.642 -0.0499 0.3320
H9K H 0.6680 0.142 0.5499
C18H C 0.5458(3) 0.1709(4) -0.2182(3)
C18I C 0.2818(3) -0.0458(3) -0.1709(4)
H10H H 0.5314 0.152 -0.2342
H10I H 0.2658 -0.0314 -0.152
C19J C 0.6237(2) 0.0720(2) 0.3355(2)
C19K C 0.6645(2) 0.1237(2) 0.4280(2)
H11J H 0.5958 0.0779 0.3382
H11K H 0.6618 0.0958 0.4221
C20H C 0.5853(3) 0.1826(4) -0.2297(3)
C20I C 0.2703(3) -0.0853(3) -0.1826(4)
H12H H 0.5975 0.1704 -0.2526
H12I H 0.2474 -0.0975 -0.1704
O5B O 0.75145(13) 0.24855(13) -0.25145(13)
O5A O 0.24855(13) -0.25145(13) -0.24855(13)
C21H C 0.4855(3) 0.1743(3) -0.1716(3)
C21I C 0.3284(3) 0.0145(3) -0.1743(3)
C22H C 0.4035(3) 0.1504(3) -0.1481(3)
C22I C 0.3519(3) 0.0965(3) -0.1504(3)
C23H C 0.4322(3) 0.1669(4) -0.1235(4)
C23I C 0.3765(4) 0.0678(3) -0.1669(4)
H13H H 0.4255 0.169 -0.0957
H13I H 0.4043 0.0745 -0.169
C24H C 0.4695(3) 0.1808(4) -0.1345(4)
C24I C 0.3655(4) 0.0305(3) -0.1808(4)
H14H H 0.4848 0.1957 -0.1154
H14I H 0.3846 0.0152 -0.1957
C25H C 0.4149(5) 0.1511(7) -0.1882(7)
C25I C 0.3118(7) 0.0851(5) -0.1511(7)
H15H H 0.3958 0.1442 -0.2084
H15I H 0.2916 0.1042 -0.1442
C26H C 0.4547(6) 0.1619(7) -0.1996(7)
C26I C 0.3004(7) 0.0453(6) -0.1619(7)
H16H H 0.4615 0.1609 -0.2275
H16I H 0.2725 0.0385 -0.1609
loop_
_geom_bond_atom_site_label_1
_geom_bond_atom_site_label_2
_geom_bond_site_symmetry_1
_geom_bond_site_symmetry_2
Zn1 O1 1_555 1_555
Zn2 O3 1_555 1_555
N1 C1 1_555 1_555
O1 C6 1_555 1_555
O2 Zn1 1_555 1_555
O3 C16 1_555 1_555
O4 C6 1_555 1_555
C1 C2 1_555 1_555
C2 H1 1_555 1_555
C3 C8 1_555 1_555
C4 C7 1_555 1_555
C5 H2 1_555 1_555
C6 C12 1_555 1_555
C7 H3 1_555 1_555
C8 C5 1_555 1_555
H4 C8 1_555 1_555
C9 H5 1_555 1_555
C10 C4 1_555 1_555
C11 C5 1_555 1_555
C12 C13 1_555 1_555
C13 H6 1_555 1_555
C14 C2 1_555 1_555
H7 C14 1_555 1_555
C15 C9 1_555 1_555
H8 C15 1_555 1_555
C16 O2 1_555 1_555
C17 C10 1_555 1_555
H9 C17 1_555 1_555
C18 C11 1_555 1_555
H10 C18 1_555 1_555
C19 C1 1_555 1_555
H11 C19 1_555 1_555
C20 C3 1_555 1_555
H12 C20 1_555 1_555
O5 Zn1 1_555 1_555
N2 C22 1_555 1_555
C21 C11 1_555 1_555
C22 C23 1_555 1_555
C23 H13 1_555 1_555
C24 C21 1_555 1_555
H14 C24 1_555 1_555
C25 C22 1_555 1_555
H15 C25 1_555 1_555
C26 C21 1_555 1_555
H16 C26 1_555 1_555
Zn1H O1H 1_555 1_555
Zn1I O1I 1_555 1_555
Zn1E O4 1_555 1_555
Zn1D O5 1_555 1_555
Zn1J O1J 1_555 1_555
Zn1C O4J 1_555 1_555
Zn1K O1K 1_555 1_555
Zn1H_2 O4K 1_555 1_555
Zn2B O3H 1_555 1_555
Zn2A O3I 1_555 1_555
O1J C6J 1_555 1_555
O1K C6K 1_555 1_555
O2H Zn1H 1_555 1_555
O2I Zn1I 1_555 1_555
O3H C16H 1_555 1_555
O3I C16I 1_555 1_555
O3D Zn2 1_555 1_555
O3E Zn2 1_555 1_555
O4J C6J 1_555 1_555
O4K C6K 1_555 1_555
O4D Zn1 1_555 1_555
O4K_2 Zn1H 1_555 1_555
O4A Zn1I 1_555 1_555
C1J N1 1_555 1_555
C1K N1 1_555 1_555
C2J C1J 1_555 1_555
C2K C1K 1_555 1_555
H1J C2J 1_555 1_555
H1K C2K 1_555 1_555
C3H C8H 1_555 1_555
C3I C8I 1_555 1_555
C4J C7J 1_555 1_555
C4K C7K 1_555 1_555
C5H H2H 1_555 1_555
C5I H2I 1_555 1_555
C6J C12J 1_555 1_555
C6K C12K 1_555 1_555
C7J H3J 1_555 1_555
C7K H3K 1_555 1_555
C8H C5H 1_555 1_555
C8I C5I 1_555 1_555
H4H C8H 1_555 1_555
H4I C8I 1_555 1_555
C9J H5J 1_555 1_555
C9K H5K 1_555 1_555
C10J C4J 1_555 1_555
C10K C4K 1_555 1_555
C11H C5H 1_555 1_555
C11I C5I 1_555 1_555
C12J C13J 1_555 1_555
C12K C13K 1_555 1_555
C13J H6J 1_555 1_555
C13K H6K 1_555 1_555
C14J C2J 1_555 1_555
C14K C2K 1_555 1_555
H7J C14J 1_555 1_555
H7K C14K 1_555 1_555
C15J C9J 1_555 1_555
C15K C9K 1_555 1_555
H8J C15J 1_555 1_555
H8K C15K 1_555 1_555
C16H O2H 1_555 1_555
C16I O2I 1_555 1_555
C17J C10J 1_555 1_555
C17K C10K 1_555 1_555
H9J C17J 1_555 1_555
H9K C17K 1_555 1_555
C18H C11H 1_555 1_555
C18I C11I 1_555 1_555
H10H C18H 1_555 1_555
H10I C18I 1_555 1_555
C19J C1J 1_555 1_555
C19K C1K 1_555 1_555
H11J C19J 1_555 1_555
H11K C19K 1_555 1_555
C20H C3H 1_555 1_555
C20I C3I 1_555 1_555
H12H C20H 1_555 1_555
H12I C20I 1_555 1_555
O5B Zn1H 1_555 1_555
O5A Zn1I 1_555 1_555
C21H C11H 1_555 1_555
C21I C11I 1_555 1_555
C22H N2 1_555 1_555
C22I N2 1_555 1_555
C23H C22H 1_555 1_555
C23I C22I 1_555 1_555
H13H C23H 1_555 1_555
H13I C23I 1_555 1_555
C24H C21H 1_555 1_555
C24I C21I 1_555 1_555
H14H C24H 1_555 1_555
H14I C24I 1_555 1_555
C25H C22H 1_555 1_555
C25I C22I 1_555 1_555
H15H C25H 1_555 1_555
H15I C25I 1_555 1_555
C26H C21H 1_555 1_555
C26I C21I 1_555 1_555
H16H C26H 1_555 1_555
H16I C26I 1_555 1_555
Zn2 O5 1_555 1_555
C3 C16 1_555 1_555
C4 C14 1_555 1_555
C7 C19 1_555 1_555
C9 C10 1_555 1_555
C12 C15 1_555 1_555
C13 C17 1_555 1_555
C18 C20 1_555 1_555
O5 Zn1E 1_555 1_555
C23 C24 1_555 1_555
C25 C26 1_555 1_555
Zn2B O5B 1_555 1_555
Zn2A O5A 1_555 1_555
C3H C16H 1_555 1_555
C3I C16I 1_555 1_555
C4J C14J 1_555 1_555
C4K C14K 1_555 1_555
C7J C19J 1_555 1_555
C7K C19K 1_555 1_555
C9J C10J 1_555 1_555
C9K C10K 1_555 1_555
C12J C15J 1_555 1_555
C12K C15K 1_555 1_555
C13J C17J 1_555 1_555
C13K C17K 1_555 1_555
C18H C20H 1_555 1_555
C18I C20I 1_555 1_555
C23H C24H 1_555 1_555
C23I C24I 1_555 1_555
C25H C26H 1_555 1_555
C25I C26I 1_555 1_555

#END
