
#######################################################################
#
#                 Cambridge Crystallographic Data Centre
#                                CCDC 
#
#######################################################################
#
# If this CIF has been generated from an entry in the Cambridge 
# Structural Database, then it will include bibliographic, chemical, 
# crystal, experimental, refinement or atomic coordinate data resulting 
# from the CCDC's data processing and validation procedures.
#
#######################################################################

data_FIWKUT
_chemical_name_common            FJI-3
_chemical_formula_moiety         '(C54 H28 O44 Zn10)n'
_chemical_name_systematic        
'catena-[bis(\m~6~-Benzene-1,3,5-tricarboxylato)-tetrakis(\m~5~-benzene-1,3,5-tricarboxylato)-(\m~4~-oxo)-(\m~3~-oxo)-(\m~2~-oxo)-penta-aqua-deca-zinc(ii) unknown solvate]'
_symmetry_cell_setting           orthorhombic
_symmetry_space_group_name_H-M   'I b a m'
_symmetry_Int_Tables_number      72
_space_group_name_Hall           '-I 2 2c'
loop_
_symmetry_equiv_pos_site_id
_symmetry_equiv_pos_as_xyz
1 x,y,z
2 -x,-y,z
3 x,-y,1/2-z
4 -x,y,1/2-z
5 1/2+x,1/2+y,1/2+z
6 1/2-x,1/2-y,1/2+z
7 1/2+x,1/2-y,-z
8 1/2-x,1/2+y,-z
9 -x,-y,-z
10 x,y,-z
11 -x,y,1/2+z
12 x,-y,1/2+z
13 1/2-x,1/2-y,1/2-z
14 1/2+x,1/2+y,1/2-z
15 1/2-x,1/2+y,z
16 1/2+x,1/2-y,z
_cell_length_a                   19.7757(2)
_cell_length_b                   44.7064(5)
_cell_length_c                   28.6303(3)
_cell_angle_alpha                90
_cell_angle_beta                 90
_cell_angle_gamma                90
_cell_volume                     25312.1
_exptl_crystal_colour            colorless
_exptl_crystal_description       prism
_cell_formula_units_Z            8
loop_
_atom_site_label
_atom_site_type_symbol
_atom_site_fract_x
_atom_site_fract_y
_atom_site_fract_z
Zn1 Zn 0.57498(3) 0.266622(14) 0.24687(2)
Zn2 Zn 0.0000 0.53286(2) 0.2500
Zn3 Zn 0.70084(5) 0.40744(2) 0.5000
Zn4 Zn 0.34336(5) 0.42527(2) 0.5000
Zn5 Zn 0.24271(4) 0.383818(19) 0.43394(3)
Zn6 Zn 0.86304(7) 0.39708(3) 0.5000
O1 O 0.3903(3) 0.40031(16) 0.4500(3)
O2 O 0.4395(2) 0.29926(10) 0.30064(15)
O3 O 0.9398(2) 0.26423(10) 0.30560(16)
O4 O 0.5530(2) 0.29727(10) 0.29809(15)
O5 O 0.3273(2) 0.36561(10) 0.41520(17)
O6 O 0.7757(3) 0.37897(13) 0.5000
O7 O 0.2775(3) 0.56025(11) 0.4522(2)
O8 O 0.0651(3) 0.52467(11) 0.30203(17)
O9 O 0.2271(2) 0.42370(11) 0.40698(18)
O10 O 0.0777(3) 0.47571(11) 0.29608(17)
O11 O 1.0519(2) 0.26574(9) 0.29322(16)
O12 O 1.1577(2) 0.36272(11) 0.4309(2)
O13 O 0.6345(3) 0.39102(12) 0.4521(2)
O14 O 0.9119(3) 0.37155(12) 0.4489(2)
C1 C 1.0245(3) 0.34443(13) 0.4131(2)
H1 H 1.0301 0.3602 0.4351
C2 C 0.5083(3) 0.37274(15) 0.4227(2)
H2 H 0.5106 0.3874 0.4467
C3 C 1.0066(3) 0.29808(14) 0.3498(2)
C4 C 0.4420(3) 0.34238(13) 0.3702(2)
H3 H 0.3994 0.3360 0.3585
C5 C 0.9598(3) 0.33391(14) 0.4030(2)
C6 C 0.5637(3) 0.33861(16) 0.3701(2)
H4 H 0.6039 0.3295 0.3586
C7 C 0.2231(3) 0.47608(15) 0.4014(2)
C8 C 0.4455(3) 0.36374(14) 0.4053(2)
C9 C 0.5676(3) 0.36030(15) 0.4049(2)
C10 C 0.5018(3) 0.33027(14) 0.3523(2)
C11 C 0.1645(4) 0.52822(17) 0.3687(3)
H5 H 0.1452 0.5461 0.3566
C12 C 0.3834(3) 0.37786(13) 0.4262(2)
C13 C 1.1505(3) 0.34404(19) 0.3989(3)
C14 C 1.0807(3) 0.33212(15) 0.3916(2)
C15 C 0.9983(3) 0.27411(14) 0.3140(2)
C16 C 0.1742(3) 0.47493(15) 0.3661(2)
H6 H 0.1613 0.4563 0.3527
C17 C 1.0710(3) 0.30829(14) 0.3600(2)
H7 H 1.1091 0.2992 0.3455
C18 C 0.9513(3) 0.31109(13) 0.3708(2)
H8 H 0.9070 0.3044 0.3632
C19 C 0.2417(3) 0.50352(16) 0.4201(2)
H9 H 0.2748 0.5045 0.4441
C20 C 0.2107(4) 0.53007(18) 0.4032(3)
C21 C 0.4978(3) 0.30700(14) 0.3136(2)
C22 C 0.2508(3) 0.44767(15) 0.4212(2)
C23 C 0.9005(3) 0.35060(15) 0.4238(2)
C24 C 0.0931(3) 0.50045(15) 0.3128(2)
C25 C 0.1448(4) 0.50148(15) 0.3510(2)
C26 C 0.6350(4) 0.36925(18) 0.4253(2)
C27 C 0.2289(5) 0.5592(2) 0.4270(4)
O15 O 0.2104(3) 0.58481(16) 0.4011(3)
O16 O 0.8440(7) 0.3490(3) 0.4001(5)
O17 O 1.1926(5) 0.3439(2) 0.3654(4)
O18 O 0.6723(3) 0.26788(14) 0.2569(2)
O19 O 0.4242(5) 0.4525(2) 0.5000
O20 O 0.0000 0.57470(18) 0.2500
O21 O 0.9159(10) 0.4309(3) 0.5000
O22 O 0.2555(3) 0.39569(16) 0.5000
O23 O 0.2974(3) 0.45082(13) 0.4513(2)
O24 O 0.6855(3) 0.3576(2) 0.4097(3)
O25 O 0.7442(6) 0.3106(2) 0.5000
Zn7 Zn 0.76466(8) 0.34558(4) 0.53587(6)
Zn1A Zn -0.57498(3) 0.733378(14) 0.24687(2)
Zn5A Zn -0.24271(4) 0.616182(19) 0.43394(3)
O1A O -0.3903(3) 0.59969(16) 0.4500(3)
O2A O -0.4395(2) 0.70074(10) 0.30064(15)
O4A O -0.5530(2) 0.70273(10) 0.29809(15)
O5A O -0.3273(2) 0.63439(10) 0.41520(17)
O7A O -0.2775(3) 0.43975(11) 0.4522(2)
O8A O -0.0651(3) 0.47533(11) 0.30203(17)
O9A O -0.2271(2) 0.57630(11) 0.40698(18)
O10A O -0.0777(3) 0.52429(11) 0.29608(17)
O13A O -0.6345(3) 0.60898(12) 0.4521(2)
C2A C -0.5083(3) 0.62726(15) 0.4227(2)
H2A H -0.5106 0.6126 0.4467
C4A C -0.4420(3) 0.65762(13) 0.3702(2)
H3A H -0.3994 0.6640 0.3585
C6A C -0.5637(3) 0.66139(16) 0.3701(2)
H4A H -0.6039 0.6705 0.3586
C7A C -0.2231(3) 0.52392(15) 0.4014(2)
C8A C -0.4455(3) 0.63626(14) 0.4053(2)
C9A C -0.5676(3) 0.63970(15) 0.4049(2)
C10A C -0.5018(3) 0.66973(14) 0.3523(2)
C11A C -0.1645(4) 0.47178(17) 0.3687(3)
H5A H -0.1452 0.4539 0.3566
C12A C -0.3834(3) 0.62214(13) 0.4262(2)
C16A C -0.1742(3) 0.52507(15) 0.3661(2)
H6A H -0.1613 0.5437 0.3527
C19A C -0.2417(3) 0.49648(16) 0.4201(2)
H9A H -0.2748 0.4955 0.4441
C20A C -0.2107(4) 0.46993(18) 0.4032(3)
C21A C -0.4978(3) 0.69300(14) 0.3136(2)
C22A C -0.2508(3) 0.55233(15) 0.4212(2)
C24A C -0.0931(3) 0.49955(15) 0.3128(2)
C25A C -0.1448(4) 0.49852(15) 0.3510(2)
C26A C -0.6350(4) 0.63075(18) 0.4253(2)
C27A C -0.2289(5) 0.4408(2) 0.4270(4)
O15A O -0.2104(3) 0.41519(16) 0.4011(3)
O18A O -0.6723(3) 0.73212(14) 0.2569(2)
O23A O -0.2974(3) 0.54918(13) 0.4513(2)
O24A O -0.6855(3) 0.6424(2) 0.4097(3)
O3L O 0.5602(2) 0.23577(10) 0.19440(16)
O11L O 0.4481(2) 0.23426(9) 0.20678(16)
O12L O 0.3423(2) 0.13728(11) 0.0691(2)
O14L O 0.5881(3) 0.12845(12) 0.0511(2)
C1L C 0.4755(3) 0.15557(13) 0.0869(2)
H1L H 0.4699 0.1398 0.0649
C3L C 0.4934(3) 0.20192(14) 0.1502(2)
C5L C 0.5402(3) 0.16609(14) 0.0970(2)
C13L C 0.3495(3) 0.15596(19) 0.1011(3)
C14L C 0.4193(3) 0.16788(15) 0.1084(2)
C15L C 0.5017(3) 0.22589(14) 0.1860(2)
C17L C 0.4290(3) 0.19171(14) 0.1400(2)
H7L H 0.3909 0.2008 0.1545
C18L C 0.5487(3) 0.18891(13) 0.1292(2)
H8L H 0.5930 0.1956 0.1368
C23L C 0.5995(3) 0.14940(15) 0.0762(2)
O16L O 0.6560(7) 0.1510(3) 0.0999(5)
O17L O 0.3074(5) 0.1561(2) 0.1346(4)
Zn7I Zn 0.76466(8) 0.34558(4) 0.46413(6)
Zn1B Zn -0.42502(3) 0.733378(14) 0.25313(2)
Zn1C Zn 0.42502(3) 0.266622(14) 0.25313(2)
Zn1L Zn 0.92502(3) 0.233378(14) 0.25313(2)
Zn1O Zn 1.07498(3) 0.233378(14) 0.24687(2)
Zn2A Zn 0.0000 0.46714(2) 0.2500
Zn3_2 Zn -0.29916(5) 0.40744(2) 0.5000
Zn3A Zn -0.70084(5) 0.59256(2) 0.5000
Zn3A_2 Zn 0.29916(5) 0.59256(2) 0.5000
Zn4A Zn -0.34336(5) 0.57473(2) 0.5000
Zn5_2 Zn 1.24271(4) 0.383818(19) 0.43394(3)
Zn5I Zn 0.24271(4) 0.383818(19) 0.56606(3)
Zn5L Zn 0.25729(4) 0.116182(19) 0.06606(3)
Zn6E Zn 0.63696(7) 0.10292(3) 0.0000
O1I O 0.3903(3) 0.40031(16) 0.5500(3)
O2B O -0.5605(2) 0.70074(10) 0.19936(15)
O2C O 0.5605(2) 0.29926(10) 0.19936(15)
O3M O -0.5602(2) 0.76423(10) 0.19440(16)
O7A_2 O 0.7225(3) 0.43975(11) 0.4522(2)
O7H O 0.7225(3) 0.43975(11) 0.5478(2)
O8C O -0.0651(3) 0.52467(11) 0.19797(17)
O10B O 0.0777(3) 0.52429(11) 0.20392(17)
O11N O -0.5519(2) 0.76574(9) 0.29322(16)
O11O O 0.5519(2) 0.23426(9) 0.29322(16)
O12_2 O 0.1577(2) 0.36272(11) 0.4309(2)
O12A O -0.1577(2) 0.63728(11) 0.4309(2)
O13I O 0.6345(3) 0.39102(12) 0.5479(2)
O14I O 0.9119(3) 0.37155(12) 0.5511(2)
O16I O 0.8440(7) 0.3490(3) 0.5999(5)
O22A O -0.2555(3) 0.60431(16) 0.5000
O23I O 0.2974(3) 0.45082(13) 0.5487(2)
O24I O 0.6855(3) 0.3576(2) 0.5903(3)
Zn7E Zn 0.73534(8) 0.15442(4) 0.03587(6)
Zn7H Zn -0.76466(8) 0.65442(4) 0.46413(6)
O26? O 0.1731(9) 0.5747(3) 0.4356(5)
O27? O 1.1992(12) 0.3266(8) 0.3912(15)
O28? O 0.8446(8) 0.3379(5) 0.4220(9)
Zn8? Zn 0.77434(7) 0.37411(3) 0.57258(5)
loop_
_geom_bond_atom_site_label_1
_geom_bond_atom_site_label_2
_geom_bond_site_symmetry_1
_geom_bond_site_symmetry_2
Zn1 O4 1_555 1_555
Zn2 O8 1_555 1_555
Zn3 O6 1_555 1_555
Zn4 O1 1_555 1_555
Zn5 O5 1_555 1_555
Zn6 O6 1_555 1_555
O1 C12 1_555 1_555
O2 C21 1_555 1_555
O3 C15 1_555 1_555
O4 C21 1_555 1_555
O5 C12 1_555 1_555
O6 Zn7 1_555 1_555
O7 C27 1_555 1_555
O8 C24 1_555 1_555
O9 Zn5 1_555 1_555
O10 C24 1_555 1_555
O11 C15 1_555 1_555
O12 C13 1_555 1_555
O13 Zn3 1_555 1_555
O14 Zn6 1_555 1_555
C1 H1 1_555 1_555
C2 H2 1_555 1_555
C3 C15 1_555 1_555
C4 H3 1_555 1_555
C5 C1 1_555 1_555
C6 H4 1_555 1_555
C7 C16 1_555 1_555
C8 C2 1_555 1_555
C9 C2 1_555 1_555
C10 C4 1_555 1_555
C11 H5 1_555 1_555
C12 C8 1_555 1_555
C13 C14 1_555 1_555
C14 C1 1_555 1_555
C16 H6 1_555 1_555
C17 C3 1_555 1_555
H7 C17 1_555 1_555
C18 C3 1_555 1_555
H8 C18 1_555 1_555
C19 C7 1_555 1_555
H9 C19 1_555 1_555
C20 C11 1_555 1_555
C21 C10 1_555 1_555
C22 O9 1_555 1_555
C23 O14 1_555 1_555
C24 C25 1_555 1_555
C25 C11 1_555 1_555
C26 O13 1_555 1_555
C27 C20 1_555 1_555
O15 C27 1_555 1_555
O16 C23 1_555 1_555
O17 C13 1_555 1_555
O18 Zn1 1_555 1_555
O19 Zn4 1_555 1_555
O20 Zn2 1_555 1_555
O21 Zn6 1_555 1_555
O22 Zn4 1_555 1_555
O23 Zn4 1_555 1_555
O24 C26 1_555 1_555
O25 Zn7 1_555 1_555
Zn7 O16I 1_555 1_555
Zn1A O4A 1_555 1_555
Zn5A O5A 1_555 1_555
O1A C12A 1_555 1_555
O2A C21A 1_555 1_555
O4A C21A 1_555 1_555
O5A C12A 1_555 1_555
O7A C27A 1_555 1_555
O8A C24A 1_555 1_555
O9A Zn5A 1_555 1_555
O10A Zn2 1_555 1_555
O13A C26A 1_555 1_555
C2A H2A 1_555 1_555
C4A H3A 1_555 1_555
C6A H4A 1_555 1_555
C7A C16A 1_555 1_555
C8A C2A 1_555 1_555
C9A C2A 1_555 1_555
C10A C4A 1_555 1_555
C11A H5A 1_555 1_555
C12A C8A 1_555 1_555
C16A H6A 1_555 1_555
C19A C7A 1_555 1_555
H9A C19A 1_555 1_555
C20A C11A 1_555 1_555
C21A C10A 1_555 1_555
C22A O9A 1_555 1_555
C24A O10A 1_555 1_555
C25A C11A 1_555 1_555
C26A C9A 1_555 1_555
C27A C20A 1_555 1_555
O15A C27A 1_555 1_555
O18A Zn1A 1_555 1_555
O23A C22A 1_555 1_555
O24A C26A 1_555 1_555
O3L Zn1 1_555 1_555
O11L C15L 1_555 1_555
O12L C13L 1_555 1_555
O14L C23L 1_555 1_555
C1L H1L 1_555 1_555
C3L C15L 1_555 1_555
C5L C1L 1_555 1_555
C13L C14L 1_555 1_555
C14L C1L 1_555 1_555
C15L O3L 1_555 1_555
C17L C3L 1_555 1_555
H7L C17L 1_555 1_555
C18L C3L 1_555 1_555
H8L C18L 1_555 1_555
C23L C5L 1_555 1_555
O16L C23L 1_555 1_555
O17L C13L 1_555 1_555
Zn7I O6 1_555 1_555
Zn1B O2A 1_555 1_555
Zn1C O2 1_555 1_555
Zn1L O3 1_555 1_555
Zn1O O11 1_555 1_555
Zn2A O10 1_555 1_555
Zn3_2 O7A 1_555 1_555
Zn3A O13A 1_555 1_555
Zn3A_2 O7 1_555 1_555
Zn4A O1A 1_555 1_555
Zn5_2 O12 1_555 1_555
Zn5I O22 1_555 1_555
Zn5L O12L 1_555 1_555
Zn6E O14L 1_555 1_555
O1I Zn4 1_555 1_555
O2B Zn1A 1_555 1_555
O2C Zn1 1_555 1_555
O3M Zn1A 1_555 1_555
O7A_2 Zn3 1_555 1_555
O7H Zn3 1_555 1_555
O8C Zn2 1_555 1_555
O10B Zn2 1_555 1_555
O11N Zn1A 1_555 1_555
O11O Zn1 1_555 1_555
O12_2 Zn5 1_555 1_555
O12A Zn5A 1_555 1_555
O13I Zn3 1_555 1_555
O14I Zn6 1_555 1_555
O22A Zn5A 1_555 1_555
O23I Zn4 1_555 1_555
O24I Zn7 1_555 1_555
Zn7E O16L 1_555 1_555
Zn7H O24A 1_555 1_555
Zn5 O22 1_555 1_555
C4 C8 1_555 1_555
C5 C18 1_555 1_555
C5 C23 1_555 1_555
C6 C9 1_555 1_555
C6 C10 1_555 1_555
C7 C22 1_555 1_555
C9 C26 1_555 1_555
C14 C17 1_555 1_555
C16 C25 1_555 1_555
C19 C20 1_555 1_555
C22 O23 1_555 1_555
O16 Zn7I 1_555 1_555
O24 Zn7I 1_555 1_555
O25 Zn7I 1_555 1_555
O8A Zn2A 1_555 1_555
C4A C8A 1_555 1_555
C6A C9A 1_555 1_555
C6A C10A 1_555 1_555
C7A C22A 1_555 1_555
C16A C25A 1_555 1_555
C19A C20A 1_555 1_555
C24A C25A 1_555 1_555
O23A Zn4A 1_555 1_555
O11L Zn1C 1_555 1_555
C5L C18L 1_555 1_555
C14L C17L 1_555 1_555
Zn4A O22A 1_555 1_555

#END
