
#######################################################################
#
#                 Cambridge Crystallographic Data Centre
#                                CCDC 
#
#######################################################################
#
# If this CIF has been generated from an entry in the Cambridge 
# Structural Database, then it will include bibliographic, chemical, 
# crystal, experimental, refinement or atomic coordinate data resulting 
# from the CCDC's data processing and validation procedures.
#
#######################################################################

data_HOMXIR
_chemical_formula_moiety         '(C132 H75 N3 O39 Zn12)n,21n(C1 H1 Cl3)'
_chemical_name_systematic        
"catena-(tetrakis(\m~6~-4,4',4''-benzene-1,3,5-triylbenzoato)-tris(\m~4~-2-aminobenzene-1,4-dicarboxylato)-tris(\m~4~-oxo)-dodeca-zinc(ii) chloroform solvate)"
_symmetry_cell_setting           hexagonal
_symmetry_space_group_name_H-M   'P 63/m'
_symmetry_Int_Tables_number      176
_space_group_name_Hall           '-P 6c'
loop_
_symmetry_equiv_pos_site_id
_symmetry_equiv_pos_as_xyz
1 x,y,z
2 -y,x-y,z
3 -x+y,-x,z
4 -x,-y,1/2+z
5 y,-x+y,1/2+z
6 x-y,x,1/2+z
7 -x,-y,-z
8 y,-x+y,-z
9 x-y,x,-z
10 x,y,1/2-z
11 -y,x-y,1/2-z
12 -x+y,-x,1/2-z
_cell_length_a                   41.2555(8)
_cell_length_b                   41.2555(8)
_cell_length_c                   17.5091(9)
_cell_angle_alpha                90
_cell_angle_beta                 90
_cell_angle_gamma                120
_cell_volume                     25808.2
_exptl_crystal_colour            beige
_exptl_crystal_description       needle
_cell_formula_units_Z            2
loop_
_atom_site_label
_atom_site_type_symbol
_atom_site_fract_x
_atom_site_fract_y
_atom_site_fract_z
Zn1 Zn 0.40079(4) 0.37207(3) 0.16012(5)
Zn2 Zn 0.42452(4) 0.32024(3) 0.2500
Zn3 Zn 0.47725(4) 0.40832(3) 0.2500
O1 O 0.42589(15) 0.36809(14) 0.2500
O2 O 0.40315(19) 0.29294(13) 0.1565(3)
O3 O 0.48775(20) 0.44035(13) 0.1618(3)
O4 O 0.38612(15) 0.32933(15) 0.0945(3)
O5 O 0.43312(21) 0.41597(15) 0.1007(3)
O6 O 0.47552(27) 0.3286(2) 0.2500
O7 O 0.5121(3) 0.3897(2) 0.2500
O8 O 0.37280(23) 0.01659(16) -0.3139(3)
C1 C 0.3922(4) 0.3024(3) 0.1016(6)
C2 C 0.3852(3) 0.2805(2) 0.0264(5)
C3 C 0.3661(4) 0.2854(2) -0.0338(6)
C4 C 0.3639(4) 0.2669(3) -0.1047(5)
C5 C 0.3768(4) 0.2415(3) -0.1071(7)
C6 C 0.3938(4) 0.2342(3) -0.0450(6)
C7 C 0.3966(4) 0.2526(3) 0.0257(6)
C8 C 0.3729(4) 0.2200(3) -0.1794(6)
C9 C 0.3750(5) 0.2398(4) -0.2500
C10 C 0.3709(3) 0.1852(2) -0.1766(5)
C11 C 0.3706(6) 0.1701(5) -0.2500
C12 C 0.3683(6) 0.1317(4) -0.2500
C13 C 0.3683(7) 0.1150(5) -0.3164(10)
C14 C 0.4670(3) 0.4393(4) 0.1115(6)
C15 C 0.4853(2) 0.4719(4) 0.0519(5)
C16 C 0.5224(3) 0.4986(4) 0.0643(6)
C17 C 0.4618(3) 0.4711(4) -0.0061(6)
C18 C 0.5051(6) 0.3561(5) 0.2500
C19 C 0.3702(5) 0.0658(3) -0.2500
C20 C 0.3720(5) 0.0296(3) -0.2500
C21 C 0.5397(6) 0.3536(4) 0.2500
C22 C 0.5743(6) 0.3814(4) 0.2751(10)
C23 C 0.6059(6) 0.3775(4) 0.2778(10)
C24 C 0.6016(6) 0.3434(4) 0.2500
C25 C 0.5688(5) 0.3152(7) 0.2796(11)
C26 C 0.5348(5) 0.3193(7) 0.2784(11)
C27 C 0.6360(6) 0.3382(5) 0.2500
C28 C 0.6297(6) 0.3011(4) 0.2500
C29 C 0.3680(6) 0.0801(4) -0.3160(10)
Zn1I Zn 0.40079(4) 0.37207(3) 0.33988(5)
Zn1I_2 Zn 0.40079(4) 0.37207(3) -0.66012(5)
Zn1_2 Zn 0.40079(4) 0.37207(3) 1.16012(5)
Zn1D Zn 0.37207(3) -0.02872(5) -0.33988(5)
Zn1G Zn 0.37207(3) -0.02872(5) -0.16012(5)
Zn1F Zn 0.59921(4) 0.62793(3) -0.16012(5)
Zn1G_2 Zn 0.37207(3) -0.02872(5) 0.83988(5)
Zn1D_2 Zn 0.37207(3) -0.02872(5) 0.66012(5)
Zn1E Zn 0.02872(5) 0.40079(4) 0.66012(5)
Zn1H Zn 0.02872(5) 0.40079(4) -0.16012(5)
Zn1C Zn 0.59921(4) 0.62793(3) 0.66012(5)
Zn1_3 Zn 0.40079(4) 0.37207(3) -0.83988(5)
Zn1I_3 Zn 0.40079(4) 0.37207(3) 1.33988(5)
Zn1A Zn 0.62793(3) 0.02872(5) 0.16012(5)
Zn2_2 Zn 0.42452(4) 0.32024(3) -0.7500
Zn2_3 Zn 0.42452(4) 0.32024(3) 1.2500
Zn2A Zn 0.67976(3) 0.10428(5) 0.2500
Zn2B Zn 0.89572(5) 0.57548(4) 0.2500
Zn2E Zn 0.10428(5) 0.42452(4) 0.7500
Zn2E_2 Zn 0.10428(5) 0.42452(4) -0.2500
Zn3A Zn 0.59168(3) 0.06893(5) 0.2500
Zn3B Zn 0.93107(5) 0.52275(4) 0.2500
Zn3C Zn 0.52275(4) 0.59168(3) -0.2500
Zn3C_2 Zn 0.52275(4) 0.59168(3) 0.7500
Zn3_2 Zn 0.47725(4) 0.40832(3) -0.7500
Zn3_3 Zn 0.47725(4) 0.40832(3) 1.2500
Zn3D Zn 0.40832(3) -0.06893(5) -0.2500
O1_2 O 0.42589(15) 0.36809(14) -0.7500
O1_3 O 0.42589(15) 0.36809(14) 1.2500
O1A O 0.63191(14) 0.05780(21) 0.2500
O1B O 0.94220(21) 0.57411(15) 0.2500
O1D O 0.36809(14) -0.05780(21) -0.2500
O2I O 0.40315(19) 0.29294(13) -0.6565(3)
O2I_2 O 0.40315(19) 0.29294(13) 0.3435(3)
O2_2 O 0.40315(19) 0.29294(13) 1.1565(3)
O2E O 0.11021(23) 0.40315(19) 0.6565(3)
O2H O 0.11021(23) 0.40315(19) -0.1565(3)
O2_3 O 0.40315(19) 0.29294(13) -0.8435(3)
O2I_3 O 0.40315(19) 0.29294(13) 1.3435(3)
O3F O 0.51225(20) 0.55965(13) -0.1618(3)
O3I O 0.48775(20) 0.44035(13) 0.3382(3)
O3C O 0.51225(20) 0.55965(13) 0.6618(3)
O3A O 0.55965(13) 0.04740(24) 0.1618(3)
O3G O 0.44035(13) -0.04740(24) -0.1618(3)
O3J O 0.55965(13) 0.04740(24) 0.3382(3)
O3B O 0.95260(24) 0.51225(20) 0.1618(3)
O3K O 0.95260(24) 0.51225(20) 0.3382(3)
O4I O 0.38612(15) 0.32933(15) -0.5945(3)
O4I_2 O 0.38612(15) 0.32933(15) 0.4055(3)
O4_2 O 0.38612(15) 0.32933(15) 1.0945(3)
O4E O 0.05679(21) 0.38612(15) 0.5945(3)
O4H O 0.05679(21) 0.38612(15) -0.0945(3)
O4D O 0.32933(15) -0.05679(21) -0.4055(3)
O4G O 0.32933(15) -0.05679(21) -0.0945(3)
O5F O 0.56688(21) 0.58403(15) -0.1007(3)
O5I O 0.43312(21) 0.41597(15) 0.3993(3)
O5C O 0.56688(21) 0.58403(15) 0.6007(3)
O5A O 0.58403(15) 0.01715(26) 0.1007(3)
O5G O 0.41597(15) -0.01715(26) -0.1007(3)
O5I_2 O 0.43312(21) 0.41597(15) -0.6007(3)
O5_2 O 0.43312(21) 0.41597(15) 1.1007(3)
O5D O 0.41597(15) -0.01715(26) -0.3993(3)
O6A O 0.6714(2) 0.14692(34) 0.2500
O6B O 0.85308(34) 0.52448(27) 0.2500
O6_2 O 0.47552(27) 0.3286(2) -0.7500
O6_3 O 0.47552(27) 0.3286(2) 1.2500
O7A O 0.6103(2) 0.1224(4) 0.2500
O7B O 0.8776(4) 0.4879(3) 0.2500
O8I O 0.37280(23) 0.01659(16) -0.1861(3)
O8I_2 O 0.37280(23) 0.01659(16) 0.8139(3)
O8_2 O 0.37280(23) 0.01659(16) 0.6861(3)
O8E O 0.35621(28) 0.37280(23) 0.1861(3)
O8H O 0.35621(28) 0.37280(23) 0.3139(3)
O8H_2 O 0.35621(28) 0.37280(23) -0.6861(3)
O8E_2 O 0.35621(28) 0.37280(23) 1.1861(3)
C1I C 0.3922(4) 0.3024(3) -0.6016(6)
C1I_2 C 0.3922(4) 0.3024(3) 0.3984(6)
C1_2 C 0.3922(4) 0.3024(3) 1.1016(6)
C1E C 0.0898(5) 0.3922(4) 0.6016(6)
C1H C 0.0898(5) 0.3922(4) -0.1016(6)
C2I C 0.3852(3) 0.2805(2) -0.5264(5)
C2I_2 C 0.3852(3) 0.2805(2) 0.4736(5)
C2_2 C 0.3852(3) 0.2805(2) 1.0264(5)
C2E C 0.1047(4) 0.3852(3) 0.5264(5)
C2H C 0.1047(4) 0.3852(3) -0.0264(5)
C3I C 0.3661(4) 0.2854(2) -0.4662(6)
C3I_2 C 0.3661(4) 0.2854(2) 0.5338(6)
C3_2 C 0.3661(4) 0.2854(2) 0.9662(6)
C3E C 0.0807(4) 0.3661(4) 0.4662(6)
C3H C 0.0807(4) 0.3661(4) 0.0338(6)
C4I C 0.3639(4) 0.2669(3) -0.3953(5)
C4I_2 C 0.3639(4) 0.2669(3) 0.6047(5)
C4_2 C 0.3639(4) 0.2669(3) 0.8953(5)
C4E C 0.0970(5) 0.3639(4) 0.3953(5)
C4H C 0.0970(5) 0.3639(4) 0.1047(5)
C5I C 0.3768(4) 0.2415(3) -0.3929(7)
C5I_2 C 0.3768(4) 0.2415(3) 0.6071(7)
C5_2 C 0.3768(4) 0.2415(3) 0.8929(7)
C5E C 0.1353(5) 0.3768(4) 0.3929(7)
C5H C 0.1353(5) 0.3768(4) 0.1071(7)
C6I C 0.3938(4) 0.2342(3) -0.4550(6)
C6I_2 C 0.3938(4) 0.2342(3) 0.5450(6)
C6_2 C 0.3938(4) 0.2342(3) 0.9550(6)
C6E C 0.1596(5) 0.3938(4) 0.4550(6)
C6H C 0.1596(5) 0.3938(4) 0.0450(6)
C7I C 0.3966(4) 0.2526(3) -0.5257(6)
C7I_2 C 0.3966(4) 0.2526(3) 0.4743(6)
C7_2 C 0.3966(4) 0.2526(3) 1.0257(6)
C7E C 0.1440(5) 0.3966(4) 0.5257(6)
C7H C 0.1440(5) 0.3966(4) -0.0257(6)
C8I C 0.3729(4) 0.2200(3) -0.3206(6)
C8I_2 C 0.3729(4) 0.2200(3) 0.6794(6)
C8_2 C 0.3729(4) 0.2200(3) 0.8206(6)
C8E C 0.1529(5) 0.3729(4) 0.3206(6)
C8H C 0.1529(5) 0.3729(4) 0.1794(6)
C9_2 C 0.3750(5) 0.2398(4) 0.7500
C9E C 0.1352(6) 0.3750(5) 0.2500
C10I C 0.3709(3) 0.1852(2) -0.3234(5)
C10I_2 C 0.3709(3) 0.1852(2) 0.6766(5)
C10_2 C 0.3709(3) 0.1852(2) 0.8234(5)
C10E C 0.1857(4) 0.3709(3) 0.3234(5)
C10H C 0.1857(4) 0.3709(3) 0.1766(5)
C11_2 C 0.3706(6) 0.1701(5) 0.7500
C11E C 0.2005(8) 0.3706(6) 0.2500
C12_2 C 0.3683(6) 0.1317(4) 0.7500
C12E C 0.2366(7) 0.3683(6) 0.2500
C13I C 0.3683(7) 0.1150(5) -0.1836(10)
C13I_2 C 0.3683(7) 0.1150(5) 0.8164(10)
C13_2 C 0.3683(7) 0.1150(5) 0.6836(10)
C13E C 0.2533(9) 0.3683(7) 0.1836(10)
C13H C 0.2533(9) 0.3683(7) 0.3164(10)
C14F C 0.5330(3) 0.5607(4) -0.1115(6)
C14I C 0.4670(3) 0.4393(4) 0.3885(6)
C14C C 0.5330(3) 0.5607(4) 0.6115(6)
C14A C 0.5607(4) 0.0277(5) 0.1115(6)
C14G C 0.4393(4) -0.0277(5) -0.1115(6)
C15F C 0.5147(2) 0.5281(4) -0.0519(5)
C15I C 0.4853(2) 0.4719(4) 0.4481(5)
C15C C 0.5147(2) 0.5281(4) 0.5519(5)
C15A C 0.5281(4) 0.0134(4) 0.0519(5)
C15G C 0.4719(4) -0.0134(4) -0.0519(5)
C16F C 0.4776(3) 0.5014(4) -0.0643(6)
C16I C 0.5224(3) 0.4986(4) 0.4357(6)
C16C C 0.4776(3) 0.5014(4) 0.5643(6)
C16A C 0.5014(4) 0.0238(5) 0.0643(6)
C16G C 0.4986(4) -0.0238(5) -0.0643(6)
C17F C 0.5382(3) 0.5289(4) 0.0061(6)
C17I C 0.4618(3) 0.4711(4) 0.5061(6)
C17C C 0.5382(3) 0.5289(4) 0.4939(6)
C17A C 0.5289(4) -0.0093(5) -0.0061(6)
C17G C 0.4711(4) 0.0093(5) 0.0061(6)
C18A C 0.6439(5) 0.1490(8) 0.2500
C18B C 0.8510(8) 0.4949(6) 0.2500
C19_2 C 0.3702(5) 0.0658(3) 0.7500
C19E C 0.3044(6) 0.3702(5) 0.2500
C20_2 C 0.3720(5) 0.0296(3) 0.7500
C20E C 0.3424(6) 0.3720(5) 0.2500
C21A C 0.6464(4) 0.1861(7) 0.2500
C21B C 0.8139(7) 0.4603(6) 0.2500
C22I C 0.5743(6) 0.3814(4) 0.2249(10)
C22A C 0.6186(4) 0.1929(7) 0.2751(10)
C22J C 0.6186(4) 0.1929(7) 0.2249(10)
C22B C 0.8071(7) 0.4257(6) 0.2751(10)
C22K C 0.8071(7) 0.4257(6) 0.2249(10)
C23I C 0.6059(6) 0.3775(4) 0.2222(10)
C23A C 0.6225(4) 0.2284(7) 0.2778(10)
C23J C 0.6225(4) 0.2284(7) 0.2222(10)
C23B C 0.7716(7) 0.3941(6) 0.2778(10)
C23K C 0.7716(7) 0.3941(6) 0.2222(10)
C24A C 0.6566(4) 0.2582(7) 0.2500
C24B C 0.7418(7) 0.3984(6) 0.2500
C25A C 0.6848(7) 0.2536(9) 0.2796(11)
C25J C 0.6848(7) 0.2536(9) 0.2204(11)
C25B C 0.7464(9) 0.4312(5) 0.2796(11)
C25K C 0.7464(9) 0.4312(5) 0.2204(11)
C25I C 0.5688(5) 0.3152(7) 0.2204(11)
C26A C 0.6807(7) 0.2155(9) 0.2784(11)
C26J C 0.6807(7) 0.2155(9) 0.2216(11)
C26B C 0.7845(9) 0.4652(5) 0.2784(11)
C26K C 0.7845(9) 0.4652(5) 0.2216(11)
C26I C 0.5348(5) 0.3193(7) 0.2216(11)
C27A C 0.6618(5) 0.2978(8) 0.2500
C27B C 0.7022(8) 0.3640(6) 0.2500
C28A C 0.6989(4) 0.3286(7) 0.2500
C28B C 0.6714(7) 0.3703(6) 0.2500
C29I C 0.3680(6) 0.0801(4) -0.1840(10)
C29I_2 C 0.3680(6) 0.0801(4) 0.8160(10)
C29_2 C 0.3680(6) 0.0801(4) 0.6840(10)
C29E C 0.2879(7) 0.3680(6) 0.1840(10)
C29H C 0.2879(7) 0.3680(6) 0.3160(10)
loop_
_geom_bond_atom_site_label_1
_geom_bond_atom_site_label_2
_geom_bond_site_symmetry_1
_geom_bond_site_symmetry_2
Zn1 O1 1_555 1_555
Zn2 O1 1_555 1_555
Zn3 O1 1_555 1_555
O1 Zn1I 1_555 1_555
O2 Zn2 1_555 1_555
O3 Zn3 1_555 1_555
O4 Zn1 1_555 1_555
O5 Zn1 1_555 1_555
O6 Zn2 1_555 1_555
O7 Zn3 1_555 1_555
O8 C20 1_555 1_555
C1 O2 1_555 1_555
C2 C1 1_555 1_555
C3 C2 1_555 1_555
C4 C3 1_555 1_555
C5 C4 1_555 1_555
C6 C5 1_555 1_555
C7 C2 1_555 1_555
C8 C5 1_555 1_555
C9 C8 1_555 1_555
C10 C8 1_555 1_555
C11 C10 1_555 1_555
C12 C11 1_555 1_555
C13 C12 1_555 1_555
C14 O3 1_555 1_555
C15 C14 1_555 1_555
C16 C15 1_555 1_555
C17 C15 1_555 1_555
C18 O6 1_555 1_555
C19 C20 1_555 1_555
C20 O8I 1_555 1_555
C21 C18 1_555 1_555
C22 C21 1_555 1_555
C23 C22 1_555 1_555
C24 C23 1_555 1_555
C25 C24 1_555 1_555
C26 C21 1_555 1_555
C27 C24 1_555 1_555
C28 C27 1_555 1_555
C29 C13 1_555 1_555
Zn1I O4I_2 1_555 1_555
Zn1I_2 O1_2 1_555 1_555
Zn1_2 O1_3 1_555 1_555
Zn1D O8 1_555 1_555
Zn1G O1D 1_555 1_555
Zn1F O5F 1_555 1_555
Zn1G_2 O8I_2 1_555 1_555
Zn1D_2 O8_2 1_555 1_555
Zn1E O4E 1_555 1_555
Zn1H O4H 1_555 1_555
Zn1C O5C 1_555 1_555
Zn1_3 O1_2 1_555 1_555
Zn1I_3 O1_3 1_555 1_555
Zn1A O1A 1_555 1_555
Zn2_2 O1_2 1_555 1_555
Zn2_3 O1_3 1_555 1_555
Zn2A O1A 1_555 1_555
Zn2B O1B 1_555 1_555
Zn2E O2E 1_555 1_555
Zn2E_2 O2H 1_555 1_555
Zn3A O1A 1_555 1_555
Zn3B O1B 1_555 1_555
Zn3C O3F 1_555 1_555
Zn3C_2 O3C 1_555 1_555
Zn3_2 O1_2 1_555 1_555
Zn3_3 O1_3 1_555 1_555
Zn3D O1D 1_555 1_555
O1D Zn1D 1_555 1_555
O2I Zn2_2 1_555 1_555
O2I_2 Zn2 1_555 1_555
O2_2 Zn2_3 1_555 1_555
O2E C1E 1_555 1_555
O2H C1H 1_555 1_555
O2_3 Zn2_2 1_555 1_555
O2I_3 Zn2_3 1_555 1_555
O3F C14F 1_555 1_555
O3I Zn3 1_555 1_555
O3C C14C 1_555 1_555
O3A Zn3A 1_555 1_555
O3G Zn3D 1_555 1_555
O3J Zn3A 1_555 1_555
O3B Zn3B 1_555 1_555
O3K Zn3B 1_555 1_555
O4I Zn1I_2 1_555 1_555
O4I_2 C1I_2 1_555 1_555
O4_2 Zn1_2 1_555 1_555
O4E C1E 1_555 1_555
O4H C1H 1_555 1_555
O4D Zn1D 1_555 1_555
O4G Zn1G 1_555 1_555
O5F C14F 1_555 1_555
O5I Zn1I 1_555 1_555
O5C C14C 1_555 1_555
O5A Zn1A 1_555 1_555
O5G Zn1G 1_555 1_555
O5I_2 Zn1I_2 1_555 1_555
O5_2 Zn1_2 1_555 1_555
O5D Zn1D 1_555 1_555
O6A Zn2A 1_555 1_555
O6B Zn2B 1_555 1_555
O6_2 Zn2_2 1_555 1_555
O6_3 Zn2_3 1_555 1_555
O7A Zn3A 1_555 1_555
O7B Zn3B 1_555 1_555
O8I Zn1G 1_555 1_555
O8I_2 C20_2 1_555 1_555
O8_2 C20_2 1_555 1_555
O8E Zn1 1_555 1_555
O8H Zn1I 1_555 1_555
O8H_2 Zn1I_2 1_555 1_555
O8E_2 Zn1_2 1_555 1_555
C1I O2I 1_555 1_555
C1I_2 O2I_2 1_555 1_555
C1_2 O2_2 1_555 1_555
C1E C2E 1_555 1_555
C1H C2H 1_555 1_555
C2I C1I 1_555 1_555
C2I_2 C1I_2 1_555 1_555
C2_2 C1_2 1_555 1_555
C2E C3E 1_555 1_555
C2H C3H 1_555 1_555
C3I C2I 1_555 1_555
C3I_2 C2I_2 1_555 1_555
C3_2 C2_2 1_555 1_555
C3E C4E 1_555 1_555
C3H C4H 1_555 1_555
C4I C3I 1_555 1_555
C4I_2 C3I_2 1_555 1_555
C4_2 C3_2 1_555 1_555
C4E C5E 1_555 1_555
C4H C5H 1_555 1_555
C5I C4I 1_555 1_555
C5I_2 C4I_2 1_555 1_555
C5_2 C4_2 1_555 1_555
C5E C6E 1_555 1_555
C5H C6H 1_555 1_555
C6I C5I 1_555 1_555
C6I_2 C5I_2 1_555 1_555
C6_2 C5_2 1_555 1_555
C6E C7E 1_555 1_555
C6H C7H 1_555 1_555
C7I C2I 1_555 1_555
C7I_2 C2I_2 1_555 1_555
C7_2 C2_2 1_555 1_555
C7E C2E 1_555 1_555
C7H C2H 1_555 1_555
C8I C9 1_555 1_555
C8I_2 C5I_2 1_555 1_555
C8_2 C5_2 1_555 1_555
C8E C5E 1_555 1_555
C8H C5H 1_555 1_555
C9_2 C8I_2 1_555 1_555
C9E C8E 1_555 1_555
C10I C11 1_555 1_555
C10I_2 C8I_2 1_555 1_555
C10_2 C8_2 1_555 1_555
C10E C8E 1_555 1_555
C10H C8H 1_555 1_555
C11_2 C10I_2 1_555 1_555
C11E C10E 1_555 1_555
C12_2 C11_2 1_555 1_555
C12E C11E 1_555 1_555
C13I C12 1_555 1_555
C13I_2 C12_2 1_555 1_555
C13_2 C12_2 1_555 1_555
C13E C12E 1_555 1_555
C13H C12E 1_555 1_555
C14F C15F 1_555 1_555
C14I O3I 1_555 1_555
C14C C15C 1_555 1_555
C14A O3A 1_555 1_555
C14G O3G 1_555 1_555
C15F C16F 1_555 1_555
C15I C14I 1_555 1_555
C15C C16C 1_555 1_555
C15A C14A 1_555 1_555
C15G C14G 1_555 1_555
C16F C17 1_555 1_555
C16I C15I 1_555 1_555
C16C C17I 1_555 1_555
C16A C15A 1_555 1_555
C16G C15G 1_555 1_555
C17F C16 1_555 1_555
C17I C15I 1_555 1_555
C17C C15C 1_555 1_555
C17A C15A 1_555 1_555
C17G C15G 1_555 1_555
C18A O6A 1_555 1_555
C18B O6B 1_555 1_555
C19_2 C20_2 1_555 1_555
C19E C20E 1_555 1_555
C20E O8E 1_555 1_555
C21A C18A 1_555 1_555
C21B C18B 1_555 1_555
C22I C21 1_555 1_555
C22A C21A 1_555 1_555
C22J C21A 1_555 1_555
C22B C21B 1_555 1_555
C22K C21B 1_555 1_555
C23I C22 1_555 1_555
C23A C22A 1_555 1_555
C23J C22A 1_555 1_555
C23B C22B 1_555 1_555
C23K C22B 1_555 1_555
C24A C23A 1_555 1_555
C24B C23B 1_555 1_555
C25A C24A 1_555 1_555
C25J C24A 1_555 1_555
C25B C24B 1_555 1_555
C25K C24B 1_555 1_555
C25I C24 1_555 1_555
C26A C21A 1_555 1_555
C26J C21A 1_555 1_555
C26B C21B 1_555 1_555
C26K C21B 1_555 1_555
C26I C21 1_555 1_555
C27A C28 1_555 1_555
C27B C24B 1_555 1_555
C28A C27A 1_555 1_555
C28B C27 1_555 1_555
C29I C19 1_555 1_555
C29I_2 C13I_2 1_555 1_555
C29_2 C13_2 1_555 1_555
C29E C13E 1_555 1_555
C29H C13H 1_555 1_555
O4 C1 1_555 1_555
O5 C14 1_555 1_555
O7 C18 1_555 1_555
C6 C7 1_555 1_555
C19 C29 1_555 1_555
C22 C22I 1_555 1_555
C23 C22I 1_555 1_555
C23 C23I 1_555 1_555
C24 C23I 1_555 1_555
C25 C26 1_555 1_555
C25 C25I 1_555 1_555
C26 C26I 1_555 1_555
O4I C1I 1_555 1_555
O4_2 C1_2 1_555 1_555
O5I C14I 1_555 1_555
O5A C14A 1_555 1_555
O5G C14G 1_555 1_555
O7A C18A 1_555 1_555
O7B C18B 1_555 1_555
O8H C20E 1_555 1_555
C5I C8I 1_555 1_555
C6I C7I 1_555 1_555
C6I_2 C7I_2 1_555 1_555
C6_2 C7_2 1_555 1_555
C8I C10I 1_555 1_555
C8_2 C9_2 1_555 1_555
C8H C9E 1_555 1_555
C10_2 C11_2 1_555 1_555
C10H C11E 1_555 1_555
C13I C29I 1_555 1_555
C15F C17F 1_555 1_555
C16I C17C 1_555 1_555
C16A C17G 1_555 1_555
C16G C17A 1_555 1_555
C19_2 C29I_2 1_555 1_555
C19_2 C29_2 1_555 1_555
C19E C29E 1_555 1_555
C19E C29H 1_555 1_555
C22I C23I 1_555 1_555
C22A C22J 1_555 1_555
C22J C23A 1_555 1_555
C22J C23J 1_555 1_555
C22B C22K 1_555 1_555
C22K C23B 1_555 1_555
C22K C23K 1_555 1_555
C23A C23J 1_555 1_555
C23J C24A 1_555 1_555
C23B C23K 1_555 1_555
C23K C24B 1_555 1_555
C24A C27A 1_555 1_555
C25A C25J 1_555 1_555
C25A C26A 1_555 1_555
C25J C26J 1_555 1_555
C25B C25K 1_555 1_555
C25B C26B 1_555 1_555
C25K C26K 1_555 1_555
C25I C26I 1_555 1_555
C26A C26J 1_555 1_555
C26B C26K 1_555 1_555
C27B C28A 1_555 1_555
C27B C28B 1_555 1_555

#END
