
#######################################################################
#
#                 Cambridge Crystallographic Data Centre
#                                CCDC 
#
#######################################################################
#
# If this CIF has been generated from an entry in the Cambridge 
# Structural Database, then it will include bibliographic, chemical, 
# crystal, experimental, refinement or atomic coordinate data resulting 
# from the CCDC's data processing and validation procedures.
#
#######################################################################

data_HOMXOX
_chemical_formula_moiety         '(C150 H105 N3 O42 Zn12)n,33n(C1 H1 Cl3)'
_chemical_name_systematic        
"catena-(tetrakis(\m~6~-4,4',4''-benzene-1,3,5-triylbenzoato)-tris(\m~4~-2-(hexanoylamino)benzene-1,4-dicarboxylato)-tris(\m~4~-oxo)-dodeca-zinc(ii) chloroform solvate)"
_symmetry_cell_setting           hexagonal
_symmetry_space_group_name_H-M   'P 63/m'
_symmetry_Int_Tables_number      176
_space_group_name_Hall           '-P 6c'
loop_
_symmetry_equiv_pos_site_id
_symmetry_equiv_pos_as_xyz
1 x,y,z
2 -y,x-y,z
3 -x+y,-x,z
4 -x,-y,1/2+z
5 y,-x+y,1/2+z
6 x-y,x,1/2+z
7 -x,-y,-z
8 y,-x+y,-z
9 x-y,x,-z
10 x,y,1/2-z
11 -y,x-y,1/2-z
12 -x+y,-x,1/2-z
_cell_length_a                   41.2685(10)
_cell_length_b                   41.2685(10)
_cell_length_c                   17.5342(11)
_cell_angle_alpha                90
_cell_angle_beta                 90
_cell_angle_gamma                120
_cell_volume                     25861.5
_exptl_crystal_colour            beige
_exptl_crystal_description       needle
_cell_formula_units_Z            2
loop_
_atom_site_label
_atom_site_type_symbol
_atom_site_fract_x
_atom_site_fract_y
_atom_site_fract_z
Zn1 Zn 0.628420(19) 0.599183(14) 0.16015(3)
Zn2 Zn 0.679652(28) 0.57479(2) 0.2500
Zn3 Zn 0.59202(2) 0.52242(2) 0.2500
O1 O 0.63206(9) 0.57348(9) 0.2500
O2 O 0.70632(12) 0.59631(9) 0.34304(17)
O3 O 0.67033(9) 0.61307(8) 0.40680(16)
O4 O 0.98361(8) 0.62690(11) 0.68689(17)
O5 O 0.58393(13) 0.56663(9) 0.10214(19)
O6 O 0.55986(13) 0.51188(9) 0.1626(2)
O7 O 0.61013(16) 0.48747(11) 0.2500
O8 O 0.67064(16) 0.52462(12) 0.2500
C1 C 0.96976(23) 0.62769(17) 0.7500
C2 C 0.93444(26) 0.6291(2) 0.7500
C3 C 0.9166(4) 0.6268(3) 0.8157(6)
C4 C 0.8873(4) 0.6342(3) 0.8165(6)
C5 C 0.86728(27) 0.6298(2) 0.7500
C6 C 0.8305(3) 0.6278(2) 0.7500
C7 C 0.81397(20) 0.62833(15) 0.6792(3)
C8 C 0.69785(18) 0.60774(13) 0.4017(3)
C9 C 0.72004(22) 0.61447(16) 0.4732(3)
C10 C 0.74671(25) 0.60219(19) 0.4735(3)
C11 C 0.76528(26) 0.6058(2) 0.5423(3)
C12 C 0.75925(23) 0.62208(18) 0.6065(3)
C13 C 0.77857(23) 0.62537(18) 0.6802(3)
C14 C 0.7612(4) 0.6244(3) 0.7500
C15 C 0.73326(26) 0.6348(2) 0.6032(3)
C16 C 0.71404(24) 0.63135(19) 0.5361(3)
C17 C 0.56043(13) 0.53326(21) 0.1103(3)
C18 C 0.52857(15) 0.51611(23) 0.0516(3)
C19 C 0.52866(18) 0.53943(26) -0.0072(3)
C20 C 0.50162(17) 0.47842(25) 0.0618(4)
C21 C 0.64289(24) 0.49406(18) 0.2500
C22 C 0.64687(25) 0.45953(17) 0.2500
C23 C 0.6781(3) 0.4623(2) 0.2862(6)
C24 C 0.6832(3) 0.4317(2) 0.2885(7)
C25 C 0.65652(25) 0.39728(18) 0.2500
C26 C 0.66172(26) 0.36349(19) 0.2500
C27 C 0.6307(3) 0.3284(2) 0.2500
C28 C 0.6243(3) 0.3947(2) 0.2215(7)
C29 C 0.6192(3) 0.4262(2) 0.2189(6)
Zn1I Zn 0.628420(19) 0.599183(14) 0.33985(3)
Zn1_2 Zn 0.628420(19) 0.599183(14) 1.16015(3)
Zn1I_2 Zn 0.628420(19) 0.599183(14) -0.66015(3)
Zn1E Zn 1.029237(24) 0.628420(19) 0.66015(3)
Zn1H Zn 1.029237(24) 0.628420(19) 0.83985(3)
Zn1F Zn 0.371580(19) 0.400817(14) -0.16015(3)
Zn1H_2 Zn 1.029237(24) 0.628420(19) -0.16015(3)
Zn1E_2 Zn 1.029237(24) 0.628420(19) -0.33985(3)
Zn1G Zn 0.599183(14) 0.970763(24) -0.16015(3)
Zn1D Zn 0.599183(14) 0.970763(24) 0.66015(3)
Zn1C Zn 0.371580(19) 0.400817(14) 0.66015(3)
Zn1I_3 Zn 0.628420(19) 0.599183(14) 1.33985(3)
Zn1_3 Zn 0.628420(19) 0.599183(14) -0.83985(3)
Zn1J Zn 0.400817(14) 0.029237(24) 0.33985(3)
Zn1D_2 Zn 0.599183(14) -0.029237(24) 0.66015(3)
Zn2_2 Zn 0.679652(28) 0.57479(2) 1.2500
Zn2_3 Zn 0.679652(28) 0.57479(2) -0.7500
Zn2A Zn 0.42521(2) 0.104862(34) 0.2500
Zn2B Zn 0.895138(34) 0.320348(28) 0.2500
Zn2D Zn 0.57479(2) 0.895138(34) -0.2500
Zn2D_2 Zn 0.57479(2) 0.895138(34) 0.7500
Zn3A Zn 0.47758(2) 0.06960(3) 0.2500
Zn3B Zn 0.93040(3) 0.40798(2) 0.2500
Zn3C Zn 0.40798(2) 0.47758(2) -0.2500
Zn3C_2 Zn 0.40798(2) 0.47758(2) 0.7500
Zn3_2 Zn 0.59202(2) 0.52242(2) 1.2500
Zn3_3 Zn 0.59202(2) 0.52242(2) -0.7500
Zn3D Zn 0.52242(2) -0.06960(3) 0.7500
O1_2 O 0.63206(9) 0.57348(9) 1.2500
O1_3 O 0.63206(9) 0.57348(9) -0.7500
O1A O 0.42652(9) 0.05858(13) 0.2500
O1B O 0.94142(13) 0.36794(9) 0.2500
O1E O 1.05858(13) 0.63206(9) 0.7500
O2I O 0.70632(12) 0.59631(9) 1.15696(17)
O2I_2 O 0.70632(12) 0.59631(9) 0.15696(17)
O2_2 O 0.70632(12) 0.59631(9) -0.65696(17)
O2D O 0.59631(9) 0.88999(15) -0.15696(17)
O2G O 0.59631(9) 0.88999(15) 0.65696(17)
O2_3 O 0.70632(12) 0.59631(9) 1.34304(17)
O2I_3 O 0.70632(12) 0.59631(9) -0.84304(17)
O3I O 0.67033(9) 0.61307(8) 1.09320(16)
O3I_2 O 0.67033(9) 0.61307(8) 0.09320(16)
O3_2 O 0.67033(9) 0.61307(8) -0.59320(16)
O3D O 0.61307(8) 0.94274(12) -0.09320(16)
O3G O 0.61307(8) 0.94274(12) 0.59320(16)
O3H O 1.05726(12) 0.67033(9) 0.59320(16)
O3E O 1.05726(12) 0.67033(9) 0.90680(16)
O4I O 0.98361(8) 0.62690(11) 0.81311(17)
O4I_2 O 0.98361(8) 0.62690(11) -0.18689(17)
O4_2 O 0.98361(8) 0.62690(11) -0.31311(17)
O4D O 0.62690(11) 0.64329(14) 0.18689(17)
O4G O 0.62690(11) 0.64329(14) 0.31311(17)
O4D_2 O 0.62690(11) 0.64329(14) 1.18689(17)
O4G_2 O 0.62690(11) 0.64329(14) -0.68689(17)
O5F O 0.41607(13) 0.43337(9) -0.10214(19)
O5I O 0.58393(13) 0.56663(9) 0.39786(19)
O5C O 0.41607(13) 0.43337(9) 0.60214(19)
O5J O 0.43337(9) 0.01730(16) 0.39786(19)
O5D O 0.56663(9) -0.01730(16) 0.60214(19)
O5_2 O 0.58393(13) 0.56663(9) 1.10214(19)
O5I_2 O 0.58393(13) 0.56663(9) -0.60214(19)
O5E O 1.01730(16) 0.58393(13) 0.60214(19)
O5H O 1.01730(16) 0.58393(13) 0.89786(19)
O6F O 0.44014(13) 0.48812(9) -0.1626(2)
O6I O 0.55986(13) 0.51188(9) 0.3374(2)
O6C O 0.44014(13) 0.48812(9) 0.6626(2)
O6J O 0.48812(9) 0.04798(16) 0.3374(2)
O6D O 0.51188(9) -0.04798(16) 0.6626(2)
O6A O 0.48812(9) 0.04798(16) 0.1626(2)
O6K O 0.95202(16) 0.44014(13) 0.3374(2)
O6B O 0.95202(16) 0.44014(13) 0.1626(2)
O7A O 0.51253(11) 0.12266(19) 0.2500
O7B O 0.87734(19) 0.38987(16) 0.2500
O8A O 0.47538(12) 0.14602(20) 0.2500
O8B O 0.85398(20) 0.32936(16) 0.2500
O8_2 O 0.67064(16) 0.52462(12) 1.2500
O8_3 O 0.67064(16) 0.52462(12) -0.7500
C1_2 C 0.96976(23) 0.62769(17) -0.2500
C1D C 0.62769(17) 0.65793(29) 0.2500
C2_2 C 0.93444(26) 0.6291(2) -0.2500
C2D C 0.6291(2) 0.69466(33) 0.2500
C3I C 0.9166(4) 0.6268(3) 0.6843(6)
C3I_2 C 0.9166(4) 0.6268(3) -0.3157(6)
C3_2 C 0.9166(4) 0.6268(3) -0.1843(6)
C3D C 0.6268(3) 0.7102(5) 0.3157(6)
C3G C 0.6268(3) 0.7102(5) 0.1843(6)
C4I C 0.8873(4) 0.6342(3) 0.6835(6)
C4I_2 C 0.8873(4) 0.6342(3) -0.3165(6)
C4_2 C 0.8873(4) 0.6342(3) -0.1835(6)
C4D C 0.6342(3) 0.7469(5) 0.3165(6)
C4G C 0.6342(3) 0.7469(5) 0.1835(6)
C5_2 C 0.86728(27) 0.6298(2) -0.2500
C5D C 0.6298(2) 0.76252(34) 0.2500
C6_2 C 0.8305(3) 0.6278(2) -0.2500
C6D C 0.6278(2) 0.7973(4) 0.2500
C7I C 0.81397(20) 0.62833(15) 0.8208(3)
C7I_2 C 0.81397(20) 0.62833(15) -0.1792(3)
C7_2 C 0.81397(20) 0.62833(15) -0.3208(3)
C7D C 0.62833(15) 0.81436(25) 0.1792(3)
C7G C 0.62833(15) 0.81436(25) 0.3208(3)
C8I C 0.69785(18) 0.60774(13) 1.0983(3)
C8I_2 C 0.69785(18) 0.60774(13) 0.0983(3)
C8_2 C 0.69785(18) 0.60774(13) -0.5983(3)
C8D C 0.60774(13) 0.90989(22) -0.0983(3)
C8G C 0.60774(13) 0.90989(22) 0.5983(3)
C9I C 0.72004(22) 0.61447(16) 1.0268(3)
C9I_2 C 0.72004(22) 0.61447(16) 0.0268(3)
C9_2 C 0.72004(22) 0.61447(16) -0.5268(3)
C9D C 0.61447(16) 0.89443(27) -0.0268(3)
C9G C 0.61447(16) 0.89443(27) 0.5268(3)
C10I C 0.74671(25) 0.60219(19) 1.0265(3)
C10I_2 C 0.74671(25) 0.60219(19) 0.0265(3)
C10_2 C 0.74671(25) 0.60219(19) -0.5265(3)
C10D C 0.60219(19) 0.85548(31) -0.0265(3)
C10G C 0.60219(19) 0.85548(31) 0.5265(3)
C11I C 0.76528(26) 0.6058(2) 0.9577(3)
C11I_2 C 0.76528(26) 0.6058(2) -0.0423(3)
C11_2 C 0.76528(26) 0.6058(2) -0.4577(3)
C11D C 0.6058(2) 0.84052(33) 0.0423(3)
C11G C 0.6058(2) 0.84052(33) 0.4577(3)
C12I C 0.75925(23) 0.62208(18) 0.8935(3)
C12I_2 C 0.75925(23) 0.62208(18) -0.1065(3)
C12_2 C 0.75925(23) 0.62208(18) -0.3935(3)
C12D C 0.62208(18) 0.86283(29) 0.1065(3)
C12G C 0.62208(18) 0.86283(29) 0.3935(3)
C13I C 0.77857(23) 0.62537(18) 0.8198(3)
C13I_2 C 0.77857(23) 0.62537(18) -0.1802(3)
C13_2 C 0.77857(23) 0.62537(18) -0.3198(3)
C13D C 0.62537(18) 0.84680(29) 0.1802(3)
C13G C 0.62537(18) 0.84680(29) 0.3198(3)
C14_2 C 0.7612(4) 0.6244(3) -0.2500
C14D C 0.6244(3) 0.8632(5) 0.2500
C15I C 0.73326(26) 0.6348(2) 0.8968(3)
C15I_2 C 0.73326(26) 0.6348(2) -0.1032(3)
C15_2 C 0.73326(26) 0.6348(2) -0.3968(3)
C15D C 0.6348(2) 0.90154(33) 0.1032(3)
C15G C 0.6348(2) 0.90154(33) 0.3968(3)
C16I C 0.71404(24) 0.63135(19) 0.9639(3)
C16I_2 C 0.71404(24) 0.63135(19) -0.0361(3)
C16_2 C 0.71404(24) 0.63135(19) -0.4639(3)
C16D C 0.63135(19) 0.91731(31) 0.0361(3)
C16G C 0.63135(19) 0.91731(31) 0.4639(3)
C17F C 0.43957(13) 0.46674(21) -0.1103(3)
C17I C 0.56043(13) 0.53326(21) 0.3897(3)
C17C C 0.43957(13) 0.46674(21) 0.6103(3)
C17J C 0.46674(21) 0.02717(25) 0.3897(3)
C17D C 0.53326(21) -0.02717(25) 0.6103(3)
C18F C 0.47143(15) 0.48389(23) -0.0516(3)
C18I C 0.52857(15) 0.51611(23) 0.4484(3)
C18C C 0.47143(15) 0.48389(23) 0.5516(3)
C18J C 0.48389(23) 0.01246(27) 0.4484(3)
C18D C 0.51611(23) -0.01246(27) 0.5516(3)
C19F C 0.47134(18) 0.46057(26) 0.0072(3)
C19I C 0.52866(18) 0.53943(26) 0.5072(3)
C19C C 0.47134(18) 0.46057(26) 0.4928(3)
C19J C 0.46057(26) -0.01077(32) 0.5072(3)
C19D C 0.53943(26) 0.01077(32) 0.4928(3)
C20F C 0.49838(17) 0.52158(25) -0.0618(4)
C20I C 0.50162(17) 0.47842(25) 0.4382(4)
C20C C 0.49838(17) 0.52158(25) 0.5618(4)
C20J C 0.52158(25) 0.02320(30) 0.4382(4)
C20D C 0.47842(25) -0.02320(30) 0.5618(4)
C21A C 0.50594(18) 0.14883(30) 0.2500
C21B C 0.85117(30) 0.35711(24) 0.2500
C22A C 0.54047(17) 0.18734(30) 0.2500
C22B C 0.81266(30) 0.35313(25) 0.2500
C23I C 0.6781(3) 0.4623(2) 0.2138(6)
C23A C 0.5377(2) 0.2158(4) 0.2862(6)
C23J C 0.5377(2) 0.2158(4) 0.2138(6)
C23B C 0.7842(4) 0.3219(3) 0.2862(6)
C23K C 0.7842(4) 0.3219(3) 0.2138(6)
C24I C 0.6832(3) 0.4317(2) 0.2115(7)
C24A C 0.5683(2) 0.2515(4) 0.2885(7)
C24J C 0.5683(2) 0.2515(4) 0.2115(7)
C24B C 0.7485(4) 0.3168(3) 0.2885(7)
C24K C 0.7485(4) 0.3168(3) 0.2115(7)
C25A C 0.60272(18) 0.25924(31) 0.2500
C25B C 0.74076(31) 0.34348(25) 0.2500
C26A C 0.63651(19) 0.29823(32) 0.2500
C26B C 0.70177(32) 0.33828(26) 0.2500
C27A C 0.6716(2) 0.3023(4) 0.2500
C27B C 0.6977(4) 0.3693(3) 0.2500
C28A C 0.6053(2) 0.2296(4) 0.2215(7)
C28J C 0.6053(2) 0.2296(4) 0.2785(7)
C28B C 0.7704(4) 0.3757(3) 0.2215(7)
C28K C 0.7704(4) 0.3757(3) 0.2785(7)
C28I C 0.6243(3) 0.3947(2) 0.2785(7)
C29A C 0.5738(2) 0.1930(4) 0.2189(6)
C29J C 0.5738(2) 0.1930(4) 0.2811(6)
C29B C 0.8070(4) 0.3808(3) 0.2189(6)
C29K C 0.8070(4) 0.3808(3) 0.2811(6)
C29I C 0.6192(3) 0.4262(2) 0.2811(6)
loop_
_geom_bond_atom_site_label_1
_geom_bond_atom_site_label_2
_geom_bond_site_symmetry_1
_geom_bond_site_symmetry_2
Zn1 O1 1_555 1_555
Zn2 O1 1_555 1_555
Zn3 O1 1_555 1_555
O1 Zn1I 1_555 1_555
O2 Zn2 1_555 1_555
O3 C8 1_555 1_555
O4 C1 1_555 1_555
O5 Zn1 1_555 1_555
O6 Zn3 1_555 1_555
O7 Zn3 1_555 1_555
O8 Zn2 1_555 1_555
C1 C2 1_555 1_555
C2 C3 1_555 1_555
C3 C4 1_555 1_555
C4 C5 1_555 1_555
C5 C6 1_555 1_555
C6 C7 1_555 1_555
C7 C13 1_555 1_555
C8 O2 1_555 1_555
C9 C8 1_555 1_555
C10 C9 1_555 1_555
C11 C10 1_555 1_555
C12 C11 1_555 1_555
C13 C12 1_555 1_555
C14 C13 1_555 1_555
C15 C12 1_555 1_555
C16 C9 1_555 1_555
C17 O5 1_555 1_555
C18 C17 1_555 1_555
C19 C18 1_555 1_555
C20 C18 1_555 1_555
C21 O7 1_555 1_555
C22 C21 1_555 1_555
C23 C22 1_555 1_555
C24 C23 1_555 1_555
C25 C24 1_555 1_555
C26 C25 1_555 1_555
C27 C26 1_555 1_555
C28 C25 1_555 1_555
C29 C22 1_555 1_555
Zn1I O3 1_555 1_555
Zn1_2 O1_2 1_555 1_555
Zn1I_2 O1_3 1_555 1_555
Zn1E O4 1_555 1_555
Zn1H O1E 1_555 1_555
Zn1F O5F 1_555 1_555
Zn1H_2 O4I_2 1_555 1_555
Zn1E_2 O4_2 1_555 1_555
Zn1G O3D 1_555 1_555
Zn1D O3G 1_555 1_555
Zn1C O5C 1_555 1_555
Zn1I_3 O1_2 1_555 1_555
Zn1_3 O1_3 1_555 1_555
Zn1J O1A 1_555 1_555
Zn1D_2 O5D 1_555 1_555
Zn2_2 O1_2 1_555 1_555
Zn2_3 O1_3 1_555 1_555
Zn2A O1A 1_555 1_555
Zn2B O1B 1_555 1_555
Zn2D O2D 1_555 1_555
Zn2D_2 O2G 1_555 1_555
Zn3A O1A 1_555 1_555
Zn3B O1B 1_555 1_555
Zn3C O6F 1_555 1_555
Zn3C_2 O6C 1_555 1_555
Zn3_2 O1_2 1_555 1_555
Zn3_3 O1_3 1_555 1_555
Zn3D O6D 1_555 1_555
O1E Zn1E 1_555 1_555
O2I Zn2_2 1_555 1_555
O2I_2 Zn2 1_555 1_555
O2_2 Zn2_3 1_555 1_555
O2D C8D 1_555 1_555
O2G C8G 1_555 1_555
O2_3 Zn2_2 1_555 1_555
O2I_3 Zn2_3 1_555 1_555
O3I Zn1_2 1_555 1_555
O3I_2 Zn1 1_555 1_555
O3_2 Zn1I_2 1_555 1_555
O3D C8D 1_555 1_555
O3G C8G 1_555 1_555
O3H Zn1E 1_555 1_555
O3E Zn1H 1_555 1_555
O4I C1 1_555 1_555
O4I_2 C1_2 1_555 1_555
O4_2 C1_2 1_555 1_555
O4D Zn1 1_555 1_555
O4G Zn1I 1_555 1_555
O4D_2 Zn1_2 1_555 1_555
O4G_2 Zn1I_2 1_555 1_555
O5F C17F 1_555 1_555
O5I Zn1I 1_555 1_555
O5C C17C 1_555 1_555
O5J Zn1J 1_555 1_555
O5D C17D 1_555 1_555
O5_2 Zn1_2 1_555 1_555
O5I_2 Zn1I_2 1_555 1_555
O5E Zn1E 1_555 1_555
O5H Zn1H 1_555 1_555
O6F C17F 1_555 1_555
O6I Zn3 1_555 1_555
O6C C17C 1_555 1_555
O6J Zn3A 1_555 1_555
O6D C17D 1_555 1_555
O6A Zn3A 1_555 1_555
O6K Zn3B 1_555 1_555
O6B Zn3B 1_555 1_555
O7A Zn3A 1_555 1_555
O7B Zn3B 1_555 1_555
O8A Zn2A 1_555 1_555
O8B Zn2B 1_555 1_555
O8_2 Zn2_2 1_555 1_555
O8_3 Zn2_3 1_555 1_555
C1_2 C2_2 1_555 1_555
C1D O4D 1_555 1_555
C2_2 C3I_2 1_555 1_555
C2D C1D 1_555 1_555
C3I C2 1_555 1_555
C3I_2 C4I_2 1_555 1_555
C3_2 C2_2 1_555 1_555
C3D C2D 1_555 1_555
C3G C2D 1_555 1_555
C4I C5 1_555 1_555
C4I_2 C5_2 1_555 1_555
C4_2 C3_2 1_555 1_555
C4D C3D 1_555 1_555
C4G C3G 1_555 1_555
C5_2 C4_2 1_555 1_555
C5D C4D 1_555 1_555
C6_2 C5_2 1_555 1_555
C6D C5D 1_555 1_555
C7I C6 1_555 1_555
C7I_2 C6_2 1_555 1_555
C7_2 C6_2 1_555 1_555
C7D C6D 1_555 1_555
C7G C6D 1_555 1_555
C8I O2I 1_555 1_555
C8I_2 O2I_2 1_555 1_555
C8_2 O2_2 1_555 1_555
C8D C9D 1_555 1_555
C8G C9G 1_555 1_555
C9I C8I 1_555 1_555
C9I_2 C8I_2 1_555 1_555
C9_2 C8_2 1_555 1_555
C9D C10D 1_555 1_555
C9G C10G 1_555 1_555
C10I C9I 1_555 1_555
C10I_2 C9I_2 1_555 1_555
C10_2 C9_2 1_555 1_555
C10D C11D 1_555 1_555
C10G C11G 1_555 1_555
C11I C10I 1_555 1_555
C11I_2 C10I_2 1_555 1_555
C11_2 C10_2 1_555 1_555
C11D C12D 1_555 1_555
C11G C12G 1_555 1_555
C12I C11I 1_555 1_555
C12I_2 C11I_2 1_555 1_555
C12_2 C11_2 1_555 1_555
C12D C13D 1_555 1_555
C12G C13G 1_555 1_555
C13I C14 1_555 1_555
C13I_2 C7I_2 1_555 1_555
C13_2 C7_2 1_555 1_555
C13D C7D 1_555 1_555
C13G C7G 1_555 1_555
C14_2 C13I_2 1_555 1_555
C14D C13D 1_555 1_555
C15I C12I 1_555 1_555
C15I_2 C12I_2 1_555 1_555
C15_2 C12_2 1_555 1_555
C15D C12D 1_555 1_555
C15G C12G 1_555 1_555
C16I C9I 1_555 1_555
C16I_2 C9I_2 1_555 1_555
C16_2 C9_2 1_555 1_555
C16D C9D 1_555 1_555
C16G C9G 1_555 1_555
C17F C18F 1_555 1_555
C17I O5I 1_555 1_555
C17C C18C 1_555 1_555
C17J O5J 1_555 1_555
C17D C18D 1_555 1_555
C18F C19F 1_555 1_555
C18I C17I 1_555 1_555
C18C C19C 1_555 1_555
C18J C17J 1_555 1_555
C18D C19D 1_555 1_555
C19F C20 1_555 1_555
C19I C18I 1_555 1_555
C19C C20I 1_555 1_555
C19J C18J 1_555 1_555
C19D C20J 1_555 1_555
C20F C19 1_555 1_555
C20I C18I 1_555 1_555
C20C C18C 1_555 1_555
C20J C18J 1_555 1_555
C20D C18D 1_555 1_555
C21A O7A 1_555 1_555
C21B O7B 1_555 1_555
C22A C21A 1_555 1_555
C22B C21B 1_555 1_555
C23I C22 1_555 1_555
C23A C22A 1_555 1_555
C23J C22A 1_555 1_555
C23B C22B 1_555 1_555
C23K C22B 1_555 1_555
C24I C24 1_555 1_555
C24A C23A 1_555 1_555
C24J C23J 1_555 1_555
C24B C23B 1_555 1_555
C24K C23K 1_555 1_555
C25A C24A 1_555 1_555
C25B C24B 1_555 1_555
C26A C27 1_555 1_555
C26B C25B 1_555 1_555
C27A C26A 1_555 1_555
C27B C26 1_555 1_555
C28A C25A 1_555 1_555
C28J C25A 1_555 1_555
C28B C25B 1_555 1_555
C28K C25B 1_555 1_555
C28I C25 1_555 1_555
C29A C22A 1_555 1_555
C29J C22A 1_555 1_555
C29B C22B 1_555 1_555
C29K C22B 1_555 1_555
C29I C22 1_555 1_555
O6 C17 1_555 1_555
O8 C21 1_555 1_555
C15 C16 1_555 1_555
C23 C23I 1_555 1_555
C25 C24I 1_555 1_555
C28 C29 1_555 1_555
C28 C28I 1_555 1_555
C29 C29I 1_555 1_555
Zn1H O4I 1_555 1_555
O3I C8I 1_555 1_555
O3I_2 C8I_2 1_555 1_555
O3_2 C8_2 1_555 1_555
O4G C1D 1_555 1_555
O6I C17I 1_555 1_555
O6J C17J 1_555 1_555
O8A C21A 1_555 1_555
O8B C21B 1_555 1_555
C3I C4I 1_555 1_555
C4G C5D 1_555 1_555
C7I C13I 1_555 1_555
C12I C13I 1_555 1_555
C12I_2 C13I_2 1_555 1_555
C12_2 C13_2 1_555 1_555
C13_2 C14_2 1_555 1_555
C13G C14D 1_555 1_555
C15I C16I 1_555 1_555
C15I_2 C16I_2 1_555 1_555
C15_2 C16_2 1_555 1_555
C15D C16D 1_555 1_555
C15G C16G 1_555 1_555
C18F C20F 1_555 1_555
C19I C20C 1_555 1_555
C19J C20D 1_555 1_555
C23I C24I 1_555 1_555
C23A C23J 1_555 1_555
C23B C23K 1_555 1_555
C24A C24J 1_555 1_555
C24J C25A 1_555 1_555
C24B C24K 1_555 1_555
C24K C25B 1_555 1_555
C25A C26A 1_555 1_555
C26B C27A 1_555 1_555
C26B C27B 1_555 1_555
C28A C28J 1_555 1_555
C28A C29A 1_555 1_555
C28J C29J 1_555 1_555
C28B C28K 1_555 1_555
C28B C29B 1_555 1_555
C28K C29K 1_555 1_555
C28I C29I 1_555 1_555
C29A C29J 1_555 1_555
C29B C29K 1_555 1_555

#END
