
#######################################################################
#
#                 Cambridge Crystallographic Data Centre
#                                CCDC 
#
#######################################################################
#
# If this CIF has been generated from an entry in the Cambridge 
# Structural Database, then it will include bibliographic, chemical, 
# crystal, experimental, refinement or atomic coordinate data resulting 
# from the CCDC's data processing and validation procedures.
#
#######################################################################

data_QUFKEJ
_chemical_formula_moiety         '(C78 H48 Co3 N10 O16)n,8(H2 O1)'
_chemical_name_systematic        
'catena-[(\m-dihydrogen 1,2,4,5-tetrakis(4-carboxylatophenyl)benzene)-(\m-1,2,4,5-tetrakis(4-carboxylatophenyl)benzene)-bis(\m-7H-purin-6-amine)-tri-cobalt octahydrate]'
_symmetry_cell_setting           monoclinic
_symmetry_space_group_name_H-M   'P 21/n'
_symmetry_Int_Tables_number      14
_space_group_name_Hall           '-P 2yn'
loop_
_symmetry_equiv_pos_site_id
_symmetry_equiv_pos_as_xyz
1 x,y,z
2 1/2-x,1/2+y,1/2-z
3 -x,-y,-z
4 1/2+x,1/2-y,1/2+z
_cell_length_a                   9.770
_cell_length_b                   17.330
_cell_length_c                   22.710
_cell_angle_alpha                90
_cell_angle_beta                 100.90
_cell_angle_gamma                90
_cell_volume                     3775.75
_exptl_crystal_colour            purple
_exptl_crystal_description       prism
_cell_formula_units_Z            2
loop_
_atom_site_label
_atom_site_type_symbol
_atom_site_fract_x
_atom_site_fract_y
_atom_site_fract_z
Co1 Co 1.0000 0.0000 0.0000
Co2 Co 0.59406(19) -0.48770(6) 0.35284(6)
O1 O 0.9627(8) -0.0531(3) 0.0769(2)
O2 O 0.9872(10) -0.1012(3) 0.1648(3)
O3 O 0.7264(15) -0.5221(9) 0.3117(6)
O4 O 0.5875(5) -0.4465(2) 0.26281(15)
O5 O 0.8442(9) 0.1028(4) 0.1121(3)
O6 O 0.9061(8) 0.1023(4) 0.0225(3)
O7 O 0.1620(13) 0.2521(5) 0.2256(5)
H1 H 0.1191 0.2415 0.2534
O8 O 0.1799(6) 0.3640(4) 0.2727(2)
N1 N 1.1898 0.0305 0.0544
N2 N 1.1076 0.0563 0.1486
N3 N 1.2999(10) 0.1053(4) 0.1941(5)
H2 H 1.3620 0.1289 0.2213
N4 N 1.5580(12) 0.1148(6) 0.1315(5)
H3 H 1.5825 0.1411 0.1650
H4 H 1.6183 0.1075 0.1078
N5 N 1.4304 0.0682 0.0615
C1 C 1.1989 0.0539 0.1084
C2 C 1.1843 0.0878 0.2026
H5 H 1.1512 0.0941 0.2391
C3 C 1.3263 0.0844 0.1362
C4 C 1.4200 0.0841 0.1157
C5 C 1.3107 0.0370 0.0308
H6 H 1.3093 0.0187 -0.0087
C6 C 0.9741(7) -0.1145(2) 0.1107(2)
C7 C 0.9832(5) -0.1936(2) 0.08806(17)
C8 C 1.0462(4) -0.2514(2) 0.12624(15)
H7 H 1.0879 -0.2389 0.1664
C9 C 0.9238(5) -0.2124(3) 0.02891(17)
H8 H 0.8819 -0.1733 0.0021
C10 C 1.0489(4) -0.32682(19) 0.10662(16)
H9 H 1.0914 -0.3658 0.1334
C11 C 0.9261(5) -0.2881(3) 0.00934(16)
H10 H 0.8838 -0.3007 -0.0307
C12 C 0.9895(3) -0.34571(19) 0.04770(15)
C13 C 0.9911(3) -0.42558(19) 0.02458(15)
C14 C 0.9530(3) -0.49059(19) 0.05456(16)
C15 C 0.8924(3) -0.48581(18) 0.10984(15)
C16 C 0.7765(3) -0.4392(2) 0.11128(14)
H11 H 0.7403 -0.4073 0.0780
C17 C 0.9456(5) -0.5298(3) 0.16017(19)
H12 H 1.0261 -0.5605 0.1601
C18 C 0.8852(5) -0.5300(3) 0.20994(19)
H13 H 0.9229 -0.5615 0.2433
C19 C 0.7140(4) -0.4396(2) 0.16133(16)
H14 H 0.6332 -0.4092 0.1614
C20 C 0.7688(4) -0.4843(2) 0.21173(16)
C21 C 0.7012(7) -0.4838(2) 0.2643(2)
C22 C 0.9648(3) -0.5632(2) 0.03003(16)
H15 H 0.9420 -0.6072 0.0512
C23 C 0.5946(3) 0.47064(19) -0.03120(16)
H16 H 0.6608 0.4505 -0.0529
C24 C 0.5589(3) 0.42611(17) 0.01456(15)
C25 C 0.6292(3) 0.34956(19) 0.02664(16)
C26 C 0.6901(4) 0.32678(19) 0.08452(15)
H17 H 0.6852 0.3599 0.1174
C27 C 0.6450(5) 0.3020(2) -0.02072(18)
H18 H 0.6082 0.3179 -0.0606
C28 C 0.7141(7) 0.2312(3) -0.0110(2)
H19 H 0.7235 0.1993 -0.0440
C29 C 0.7584(4) 0.2559(2) 0.09478(17)
H20 H 0.7978 0.2404 0.1345
C30 C 0.7683(6) 0.2080(2) 0.0465(2)
C31 C 0.8489(10) 0.1323(4) 0.0600(3)
C32 C 0.4624(3) 0.45581(18) 0.04701(14)
C33 C 0.4093(3) 0.4156(2) 0.09639(16)
C34 C 0.3688(4) 0.3391(2) 0.09281(19)
H21 H 0.3848 0.3082 0.0602
C35 C 0.3912(4) 0.4582(3) 0.14723(18)
H22 H 0.4230 0.5100 0.1515
C36 C 0.3047(5) 0.3072(3) 0.1368(3)
H23 H 0.2745 0.2551 0.1333
C37 C 0.3284(5) 0.4262(3) 0.1908(2)
H24 H 0.3156 0.4561 0.2244
C38 C 0.2843(4) 0.3509(3) 0.1857(2)
C39 C 0.2044(6) 0.3207(4) 0.2312(3)
O1B O 1.0373(8) -0.9469(3) -0.0769(2)
O2B O 1.0128(10) -0.8988(3) -0.1648(3)
O3B O 1.2736(15) -0.4779(9) -0.3117(6)
O4B O 1.4125(5) -0.5535(2) -0.26281(15)
C6B C 1.0259(7) -0.8855(2) -0.1107(2)
C7B C 1.0168(5) -0.8064(2) -0.08806(17)
C8B C 0.9538(4) -0.7486(2) -0.12624(15)
H7B H 0.9121 -0.7611 -0.1664
C9B C 1.0762(5) -0.7876(3) -0.02891(17)
H8B H 1.1181 -0.8267 -0.0021
C10B C 0.9511(4) -0.67318(19) -0.10662(16)
H9B H 0.9086 -0.6342 -0.1334
C11B C 1.0739(5) -0.7119(3) -0.00934(16)
H10B H 1.1162 -0.6993 0.0307
C12B C 1.0105(3) -0.65429(19) -0.04770(15)
C13B C 1.0089(3) -0.57442(19) -0.02458(15)
C14B C 1.0470(3) -0.50941(19) -0.05456(16)
C15B C 1.1076(3) -0.51419(18) -0.10984(15)
C16B C 1.2235(3) -0.5608(2) -0.11128(14)
H11B H 1.2597 -0.5927 -0.0780
C17B C 1.0544(5) -0.4702(3) -0.16017(19)
H12B H 0.9739 -0.4395 -0.1601
C18B C 1.1148(5) -0.4700(3) -0.20994(19)
H13B H 1.0771 -0.4385 -0.2433
C19B C 1.2860(4) -0.5604(2) -0.16133(16)
H14B H 1.3668 -0.5908 -0.1614
C20B C 1.2312(4) -0.5157(2) -0.21173(16)
C21B C 1.2988(7) -0.5162(2) -0.2643(2)
C22B C 1.0352(3) -0.4368(2) -0.03003(16)
H15B H 1.0580 -0.3928 -0.0512
O5B O 0.1558(9) 0.8972(4) -0.1121(3)
O6B O 0.0939(8) 0.8977(4) -0.0225(3)
O7B O 0.8380(13) 0.7479(5) -0.2256(5)
H1B H 0.8809 0.7585 -0.2534
O8B O 0.8201(6) 0.6360(4) -0.2727(2)
C23B C 0.4054(3) 0.52936(19) 0.03120(16)
H16B H 0.3392 0.5495 0.0529
C24B C 0.4411(3) 0.57389(17) -0.01456(15)
C25B C 0.3708(3) 0.65044(19) -0.02664(16)
C26B C 0.3099(4) 0.67322(19) -0.08452(15)
H17B H 0.3148 0.6401 -0.1174
C27B C 0.3550(5) 0.6980(2) 0.02072(18)
H18B H 0.3918 0.6821 0.0606
C28B C 0.2859(7) 0.7688(3) 0.0110(2)
H19B H 0.2765 0.8007 0.0440
C29B C 0.2416(4) 0.7441(2) -0.09478(17)
H20B H 0.2022 0.7596 -0.1345
C30B C 0.2317(6) 0.7920(2) -0.0465(2)
C31B C 0.1511(10) 0.8677(4) -0.0600(3)
C32B C 0.5376(3) 0.54419(18) -0.04701(14)
C33B C 0.5907(3) 0.5844(2) -0.09639(16)
C34B C 0.6312(4) 0.6609(2) -0.09281(19)
H21B H 0.6152 0.6918 -0.0602
C35B C 0.6088(4) 0.5418(3) -0.14723(18)
H22B H 0.5770 0.4900 -0.1515
C36B C 0.6953(5) 0.6928(3) -0.1368(3)
H23B H 0.7255 0.7449 -0.1333
C37B C 0.6716(5) 0.5738(3) -0.1908(2)
H24B H 0.6844 0.5439 -0.2244
C38B C 0.7157(4) 0.6491(3) -0.1857(2)
C39B C 0.7956(6) 0.6793(4) -0.2312(3)
N1B N 0.8102 -0.0305 -0.0544
N2B N 0.8924 -0.0563 -0.1486
N3B N 0.7001(10) -0.1053(4) -0.1941(5)
H2B H 0.6380 -0.1289 -0.2213
N4B N 0.4420(12) -0.1148(6) -0.1315(5)
H3B H 0.4175 -0.1411 -0.1650
H4B H 0.3817 -0.1075 -0.1078
N5B N 0.5696 -0.0682 -0.0615
C1B C 0.8011 -0.0539 -0.1084
C2B C 0.8157 -0.0878 -0.2026
H5B H 0.8488 -0.0941 -0.2391
C3B C 0.6737 -0.0844 -0.1362
C4B C 0.5800 -0.0841 -0.1157
C5B C 0.6893 -0.0370 -0.0308
H6B H 0.6907 -0.0187 0.0087
Co2A Co 0.90594(19) 0.01230(6) 0.14716(6)
Co1_2 Co 0.0000 1.0000 0.0000
Co1_3 Co 1.0000 -1.0000 0.0000
Co2B Co 1.40594(19) -0.51230(6) -0.35284(6)
Co2C Co 0.09406(19) 0.98770(6) -0.14716(6)
Co2C_2 Co 1.09406(19) -1.01230(6) -0.14716(6)
Co2C_3 Co 1.09406(19) -0.01230(6) -0.14716(6)
O1A O 0.5373(8) -0.5531(3) 0.4231(2)
O1B_2 O 1.0373(8) 0.0531(3) -0.0769(2)
O2A O 0.5128(10) -0.6012(3) 0.3352(3)
O3A O 0.7736(15) -0.0221(9) 0.1883(6)
O4A O 0.9125(5) 0.0535(2) 0.23719(15)
O5A O 0.6558(9) -0.3972(4) 0.3879(3)
O6B_2 O 1.0939(8) -0.1023(4) -0.0225(3)
N2A N 0.3924 -0.4437 0.3514
O14 O 0.8480(10) -0.1869(5) 0.2465(5)
O15 O 1.5525(10) 0.1750(5) 0.2547(3)
O16 O -0.049(2) 0.2035(8) 0.2734(10)
O17 O 1.4237(16) 0.0995(9) -0.0936(4)
Co3? Co 0.52801(17) -0.47851(7) 0.34185(6)
O9? O 0.9016(10) -0.0652(5) 0.0683(5)
O10? O 1.044(3) -0.099(2) 0.1677(16)
O11? O 0.7749(16) -0.5226(9) 0.3089(7)
O12? O 0.7618(13) 0.0891(5) 0.0955(5)
O13? O 0.8515(18) 0.0897(12) 0.0150(9)
C40? C 0.7858(14) 0.1211(10) 0.0490(8)
loop_
_geom_bond_atom_site_label_1
_geom_bond_atom_site_label_2
_geom_bond_site_symmetry_1
_geom_bond_site_symmetry_2
Co1 O1 1_555 1_555
Co2 O3 1_555 1_555
O1 C6 1_555 1_555
O2 C6 1_555 1_555
O3 C21 1_555 1_555
O4 Co2 1_555 1_555
O5 C31 1_555 1_555
O6 Co1 1_555 1_555
O7 H1 1_555 1_555
O8 C39 1_555 1_555
N1 Co1 1_555 1_555
N2 C1 1_555 1_555
N3 H2 1_555 1_555
N4 H3 1_555 1_555
H4 N4 1_555 1_555
N5 C4 1_555 1_555
C1 N1 1_555 1_555
C2 N2 1_555 1_555
H5 C2 1_555 1_555
C3 N3 1_555 1_555
C4 N4 1_555 1_555
C5 N1 1_555 1_555
H6 C5 1_555 1_555
C6 C7 1_555 1_555
C7 C8 1_555 1_555
C8 H7 1_555 1_555
C9 C7 1_555 1_555
H8 C9 1_555 1_555
C10 C8 1_555 1_555
H9 C10 1_555 1_555
C11 C9 1_555 1_555
H10 C11 1_555 1_555
C12 C10 1_555 1_555
C13 C12 1_555 1_555
C14 C13 1_555 1_555
C15 C14 1_555 1_555
C16 C15 1_555 1_555
H11 C16 1_555 1_555
C17 C15 1_555 1_555
H12 C17 1_555 1_555
C18 C17 1_555 1_555
H13 C18 1_555 1_555
C19 C16 1_555 1_555
H14 C19 1_555 1_555
C20 C18 1_555 1_555
C21 O4 1_555 1_555
C22 C14 1_555 1_555
H15 C22 1_555 1_555
C23 H16 1_555 1_555
C24 C23 1_555 1_555
C25 C24 1_555 1_555
C26 C25 1_555 1_555
H17 C26 1_555 1_555
C27 C25 1_555 1_555
H18 C27 1_555 1_555
C28 C27 1_555 1_555
H19 C28 1_555 1_555
C29 C26 1_555 1_555
H20 C29 1_555 1_555
C30 C28 1_555 1_555
C31 O6 1_555 1_555
C32 C24 1_555 1_555
C33 C32 1_555 1_555
C34 C33 1_555 1_555
H21 C34 1_555 1_555
C35 C33 1_555 1_555
H22 C35 1_555 1_555
C36 C34 1_555 1_555
H23 C36 1_555 1_555
C37 C35 1_555 1_555
H24 C37 1_555 1_555
C38 C36 1_555 1_555
C39 O7 1_555 1_555
O1B C6B 1_555 1_555
O2B C6B 1_555 1_555
O3B C21B 1_555 1_555
O4B C21B 1_555 1_555
C6B C7B 1_555 1_555
C7B C8B 1_555 1_555
C8B H7B 1_555 1_555
C9B C7B 1_555 1_555
H8B C9B 1_555 1_555
C10B C8B 1_555 1_555
H9B C10B 1_555 1_555
C11B C9B 1_555 1_555
H10B C11B 1_555 1_555
C12B C10B 1_555 1_555
C13B C22 1_555 1_555
C14B C13B 1_555 1_555
C15B C14B 1_555 1_555
C16B C15B 1_555 1_555
H11B C16B 1_555 1_555
C17B C15B 1_555 1_555
H12B C17B 1_555 1_555
C18B C17B 1_555 1_555
H13B C18B 1_555 1_555
C19B C16B 1_555 1_555
H14B C19B 1_555 1_555
C20B C18B 1_555 1_555
C21B C20B 1_555 1_555
C22B C13 1_555 1_555
H15B C22B 1_555 1_555
O5B C31B 1_555 1_555
O6B C31B 1_555 1_555
O7B H1B 1_555 1_555
O8B C39B 1_555 1_555
C23B C32 1_555 1_555
H16B C23B 1_555 1_555
C24B C23B 1_555 1_555
C25B C24B 1_555 1_555
C26B C25B 1_555 1_555
H17B C26B 1_555 1_555
C27B C25B 1_555 1_555
H18B C27B 1_555 1_555
C28B C27B 1_555 1_555
H19B C28B 1_555 1_555
C29B C26B 1_555 1_555
H20B C29B 1_555 1_555
C30B C28B 1_555 1_555
C31B C30B 1_555 1_555
C32B C23 1_555 1_555
C33B C32B 1_555 1_555
C34B C33B 1_555 1_555
H21B C34B 1_555 1_555
C35B C33B 1_555 1_555
H22B C35B 1_555 1_555
C36B C34B 1_555 1_555
H23B C36B 1_555 1_555
C37B C35B 1_555 1_555
H24B C37B 1_555 1_555
C38B C36B 1_555 1_555
C39B O7B 1_555 1_555
N1B Co1 1_555 1_555
N2B C1B 1_555 1_555
N3B H2B 1_555 1_555
N4B H3B 1_555 1_555
H4B N4B 1_555 1_555
N5B C4B 1_555 1_555
C1B N1B 1_555 1_555
C2B N2B 1_555 1_555
H5B C2B 1_555 1_555
C3B N3B 1_555 1_555
C4B N4B 1_555 1_555
C5B N1B 1_555 1_555
H6B C5B 1_555 1_555
Co2A O1 1_555 1_555
Co1_2 O6B 1_555 1_555
Co1_3 O1B 1_555 1_555
Co2B O3B 1_555 1_555
Co2C O5B 1_555 1_555
Co2C_2 O1B 1_555 1_555
Co2C_3 N2B 1_555 1_555
O1A Co2 1_555 1_555
O1B_2 Co1 1_555 1_555
O2A Co2 1_555 1_555
O3A Co2A 1_555 1_555
O4A Co2A 1_555 1_555
O5A Co2 1_555 1_555
O6B_2 Co1 1_555 1_555
N2A Co2 1_555 1_555
O2 Co2A 1_555 1_555
O5 Co2A 1_555 1_555
N2 Co2A 1_555 1_555
N3 C2 1_555 1_555
N5 C5 1_555 1_555
C1 C3 1_555 1_555
C3 C4 1_555 1_555
C11 C12 1_555 1_555
C19 C20 1_555 1_555
C20 C21 1_555 1_555
C29 C30 1_555 1_555
C30 C31 1_555 1_555
C37 C38 1_555 1_555
C38 C39 1_555 1_555
O2B Co2C_2 1_555 1_555
O4B Co2B 1_555 1_555
C11B C12B 1_555 1_555
C12B C13B 1_555 1_555
C14B C22B 1_555 1_555
C19B C20B 1_555 1_555
C24B C32B 1_555 1_555
C29B C30B 1_555 1_555
C37B C38B 1_555 1_555
C38B C39B 1_555 1_555
N3B C2B 1_555 1_555
N5B C5B 1_555 1_555
C1B C3B 1_555 1_555
C3B C4B 1_555 1_555
Co2C_3 O1B_2 1_555 1_555

#END
