
#######################################################################
#
#                 Cambridge Crystallographic Data Centre
#                                CCDC 
#
#######################################################################
#
# If this CIF has been generated from an entry in the Cambridge 
# Structural Database, then it will include bibliographic, chemical, 
# crystal, experimental, refinement or atomic coordinate data resulting 
# from the CCDC's data processing and validation procedures.
#
#######################################################################

data_RAYLIO
_chemical_formula_moiety         '(C32 H21 N5 O8 Zn1)n'
_chemical_name_systematic        
catena-[(\m~2~-N,N'-Di(pyridin-4-yl)biphenyl-4,4'-dicarboxamido)-(\m~2~-5-nitroisophthalato)-zinc]
_symmetry_cell_setting           hexagonal
_symmetry_space_group_name_H-M   'P 64 2 2'
_symmetry_Int_Tables_number      181
_space_group_name_Hall           'P 64 2 (0 0 2)'
loop_
_symmetry_equiv_pos_site_id
_symmetry_equiv_pos_as_xyz
1 x,y,z
2 -y,x-y,1/3+z
3 -x+y,-x,2/3+z
4 -x,-y,z
5 y,-x+y,1/3+z
6 x-y,x,2/3+z
7 y,x,1/3-z
8 x-y,-y,-z
9 -x,-x+y,2/3-z
10 -y,-x,1/3-z
11 -x+y,y,-z
12 x,x-y,2/3-z
_cell_length_a                   16.5597(12)
_cell_length_b                   16.5597(12)
_cell_length_c                   25.787(4)
_cell_angle_alpha                90
_cell_angle_beta                 90
_cell_angle_gamma                120
_cell_volume                     6124.02
_exptl_crystal_colour            colorless
_exptl_crystal_description       block
_cell_formula_units_Z            6
loop_
_atom_site_label
_atom_site_type_symbol
_atom_site_fract_x
_atom_site_fract_y
_atom_site_fract_z
_atom_site_U_iso_or_equiv
_atom_site_thermal_displace_type
C1 C 0.73791(5) 0.32533(5) 0.06989(3) 0.0419 Uani
C2 C 0.74564(5) 0.28390(5) 0.12046(3) 0.0498 Uani
C3 C 0.70720(4) 0.29280(4) 0.1667 0.0403 Uani
H1 H 0.6748 0.3252 0.1667 0.0480 Uiso
C4 C 0.79303(8) 0.23579(8) 0.12190(5) 0.1276 Uani
H2 H 0.8204 0.2275 0.0924 0.1530 Uiso
C5 C 0.79766(4) 0.20234(4) 0.1667 0.1971 Uani
C6 C 0.64332(7) 0.56166(7) -0.01576(4) 0.0759 Uani
H3 H 0.6529 0.5543 -0.0506 0.0910 Uiso
C7 C 0.60747(7) 0.61972(6) -0.00238(4) 0.0791 Uani
H4 H 0.5907 0.6474 -0.0284 0.0950 Uiso
C8 C 0.59697(5) 0.63598(5) 0.04806(3) 0.0445 Uani
C9 C 0.61934(7) 0.58866(6) 0.08306(4) 0.0745 Uani
H5 H 0.6118 0.5949 0.1183 0.0890 Uiso
C10 C 0.65293(6) 0.53181(6) 0.06686(3) 0.0606 Uani
H6 H 0.6687 0.5019 0.0921 0.0730 Uiso
C11 C 0.56306(6) 0.73237(6) 0.10757(4) 0.0657 Uani
C12 C 0.53819(6) 0.80834(5) 0.10889(3) 0.0474 Uani
C13 C 0.55038(7) 0.85537(6) 0.15421(4) 0.0870 Uani
H7 H 0.5665 0.8353 0.1841 0.1040 Uiso
C14 C 0.53902(7) 0.93280(6) 0.15628(4) 0.0819 Uani
H8 H 0.5541 0.9678 0.1866 0.0980 Uiso
C15 C 0.50657(6) 0.95846(5) 0.11523(3) 0.0509 Uani
C16 C 0.48121(7) 0.90240(6) 0.07335(4) 0.0819 Uani
H9 H 0.4513 0.9136 0.0461 0.0980 Uiso
C17 C 0.49838(7) 0.82735(6) 0.06940(4) 0.0695 Uani
H10 H 0.4820 0.7913 0.0394 0.0830 Uiso
N1 N 0.84868(6) 0.15132(6) 0.1667 0.5981 Uani
N2 N 0.66377(4) 0.51752(4) 0.01932(2) 0.0423 Uani
N3 N 0.56790(5) 0.69885(5) 0.06025(3) 0.0558 Uani
H11 H 0.5506 0.7195 0.0344 0.0670 Uiso
O1 O 0.70734(4) 0.38100(4) 0.07119(2) 0.0530 Uani
O2 O 0.76432(4) 0.30400(4) 0.03057(2) 0.0630 Uani
O3 O 0.93479(9) 0.19876(11) 0.13803(8) 0.3474 Uani
O4 O 0.57917(6) 0.70321(5) 0.14618(3) 0.1531 Uani
Zn1 Zn 0.715394(5) 0.430788(10) 0.0000 0.0361 Uani
C1I C 0.67467(5) 0.26209(5) 0.26344(3) 0.0419 Uani
C2I C 0.71610(5) 0.25436(5) 0.21287(3) 0.0498 Uani
C4I C 0.76421(8) 0.20697(8) 0.21143(5) 0.1276 Uani
H2I H 0.7725 0.1796 0.2409 0.1530 Uiso
C6C C 0.35668(7) 1.43834(7) -0.01576(4) 0.0759 Uani
H3C H 0.3471 1.4457 -0.0506 0.0910 Uiso
C7C C 0.39253(7) 1.38028(6) -0.00238(4) 0.0791 Uani
H4C H 0.4093 1.3526 -0.0284 0.0950 Uiso
C8C C 0.40303(5) 1.36402(5) 0.04806(3) 0.0445 Uani
C9C C 0.38066(7) 1.41134(6) 0.08306(4) 0.0745 Uani
H5C H 0.3882 1.4051 0.1183 0.0890 Uiso
C10C C 0.34707(6) 1.46819(6) 0.06686(3) 0.0606 Uani
H6C H 0.3313 1.4981 0.0921 0.0730 Uiso
C11C C 0.43694(6) 1.26763(6) 0.10757(4) 0.0657 Uani
C12C C 0.46181(6) 1.19166(5) 0.10889(3) 0.0474 Uani
C13C C 0.44962(7) 1.14463(6) 0.15421(4) 0.0870 Uani
H7C H 0.4335 1.1647 0.1841 0.1040 Uiso
C14C C 0.46098(7) 1.06720(6) 0.15628(4) 0.0819 Uani
H8C H 0.4459 1.0322 0.1866 0.0980 Uiso
C15C C 0.49343(6) 1.04154(5) 0.11523(3) 0.0509 Uani
C16C C 0.51879(7) 1.09760(6) 0.07335(4) 0.0819 Uani
H9C H 0.5487 1.0864 0.0461 0.0980 Uiso
C17C C 0.50162(7) 1.17265(6) 0.06940(4) 0.0695 Uani
H10C H 0.5180 1.2087 0.0394 0.0830 Uiso
N2C N 0.33623(4) 1.48248(4) 0.01932(2) 0.0423 Uani
N2J N 0.85375(6) 0.51752(4) -0.01932(2) 0.0423 Uani
N3C N 0.43210(5) 1.30115(5) 0.06025(3) 0.0558 Uani
H11C H 0.4494 1.2805 0.0344 0.0670 Uiso
O1I O 0.61900(4) 0.29266(4) 0.26214(2) 0.0530 Uani
O1J O 0.67366(6) 0.38100(4) -0.07119(2) 0.0530 Uani
O2I O 0.69600(4) 0.23568(4) 0.30276(2) 0.0630 Uani
O3I O 0.80124(11) 0.06521(9) 0.19530(8) 0.3474 Uani
O4C O 0.42083(6) 1.29679(5) 0.14618(3) 0.1531 Uani
Zn1A Zn 0.569212(10) 0.284606(11) 0.3333 0.0361 Uani
Zn1C Zn 0.284606(5) 1.569212(10) 0.0000 0.0361 Uani
loop_
_atom_site_aniso_label
_atom_site_aniso_U_11
_atom_site_aniso_U_22
_atom_site_aniso_U_33
_atom_site_aniso_U_23
_atom_site_aniso_U_13
_atom_site_aniso_U_12
C1 0.0415(4) 0.0532(4) 0.0265(4) 0.0038(3) 0.0045(3) 0.0202(3)
C2 0.0650(4) 0.0626(4) 0.0384(5) 0.0103(4) 0.0149(3) 0.0444(3)
C3 0.0486(3) 0.0486(3) 0.0342(5) 0.0078(5) 0.0078(5) 0.0322(3)
C4 0.2205(6) 0.2113(6) 0.0632(7) 0.0559(5) 0.0682(5) 0.1920(3)
C5 0.3664(5) 0.3664(5) 0.0792(12) 0.0748(17) 0.0748(17) 0.3487(5)
C6 0.1376(5) 0.0959(5) 0.0375(5) 0.0012(4) -0.0020(4) 0.0908(3)
C7 0.1447(5) 0.1080(4) 0.0363(5) -0.0026(5) -0.0105(5) 0.1019(3)
C8 0.0646(4) 0.0494(4) 0.0314(5) -0.0016(3) -0.0068(4) 0.0375(3)
C9 0.1455(6) 0.0920(4) 0.0315(5) -0.0071(4) -0.0077(4) 0.0935(3)
C10 0.1089(5) 0.0775(4) 0.0282(5) -0.0069(4) -0.0122(4) 0.0712(3)
C11 0.1132(5) 0.0826(4) 0.0395(5) -0.0100(4) -0.0138(4) 0.0776(3)
C12 0.0733(4) 0.0527(3) 0.0355(5) -0.0032(3) -0.0068(4) 0.0459(3)
C13 0.1717(6) 0.0957(4) 0.0489(6) -0.0088(4) -0.0194(5) 0.1084(3)
C14 0.1478(6) 0.0895(5) 0.0453(6) -0.0172(4) -0.0079(5) 0.0869(3)
C15 0.0771(4) 0.0503(4) 0.0417(5) -0.0038(4) -0.0076(4) 0.0442(3)
C16 0.1404(6) 0.0823(4) 0.0640(7) -0.0141(5) -0.0282(5) 0.0864(3)
C17 0.1194(5) 0.0656(4) 0.0532(5) -0.0122(4) -0.0269(5) 0.0686(3)
N1 0.806(4) 0.806(4) 0.221(2) 0.295(2) 0.295(2) 0.432(5)
N2 0.0492(3) 0.0493(3) 0.0349(4) 0.0009(3) -0.0016(3) 0.0294(2)
N3 0.0903(4) 0.0665(3) 0.0353(4) -0.0057(3) -0.0141(3) 0.0578(2)
O1 0.0709(3) 0.0661(3) 0.0348(3) 0.0128(2) 0.0058(3) 0.0438(2)
O2 0.0811(3) 0.0757(3) 0.0323(3) 0.0041(3) 0.0202(3) 0.0392(2)
O3 0.3928(10) 0.4112(10) 0.419(3) 0.0585(12) -0.0633(11) 0.3367(6)
O4 0.3723(5) 0.2083(3) 0.0329(4) -0.0084(3) -0.0219(4) 0.2608(2)
Zn1 0.03996(5) 0.04434(8) 0.02543(5) 0.000 0.00180(5) 0.02217(4)
C1I 0.0532 0.0415 0.0265 0.0045 0.0038 0.0202
C2I 0.0626 0.065 0.0384 0.0149 0.0103 0.0444
C4I 0.2113 0.2205 0.0632 0.0682 0.0559 0.192
C6C 0.1376 0.0959 0.0375 -0.0012 0.002 0.0908
C7C 0.1447 0.108 0.0363 0.0026 0.0105 0.1019
C8C 0.0646 0.0494 0.0314 0.0016 0.0068 0.0375
C9C 0.1455 0.092 0.0315 0.0071 0.0077 0.0935
C10C 0.1089 0.0775 0.0282 0.0069 0.0122 0.0712
C11C 0.1132 0.0826 0.0395 0.01 0.0138 0.0776
C12C 0.0733 0.0527 0.0355 0.0032 0.0068 0.0459
C13C 0.1717 0.0957 0.0489 0.0088 0.0194 0.1084
C14C 0.1478 0.0895 0.0453 0.0172 0.0079 0.0869
C15C 0.0771 0.0503 0.0417 0.0038 0.0076 0.0442
C16C 0.1404 0.0823 0.064 0.0141 0.0282 0.0864
C17C 0.1194 0.0656 0.0532 0.0122 0.0269 0.0686
N2C 0.0492 0.0493 0.0349 -0.0009 0.0016 0.0294
N2J 0.0397 0.0493 0.0349 -0.0009 -0.0025 0.0199
N3C 0.0903 0.0665 0.0353 0.0057 0.0141 0.0578
O1I 0.0661 0.0709 0.0348 0.0058 0.0128 0.0438
O1J 0.0494 0.0661 0.0348 -0.0128 -0.007 0.0223
O2I 0.0757 0.0811 0.0323 0.0202 0.0041 0.0392
O3I 0.4112 0.3928 0.419 -0.0633 0.0585 0.3367
O4C 0.3723 0.2083 0.0329 0.0084 0.0219 0.2608
Zn1A 0.04434 0.03996 0.02543 0.0018 0 0.02217
Zn1C 0.03996 0.04434 0.02543 0 -0.0018 0.02217
loop_
_geom_bond_atom_site_label_1
_geom_bond_atom_site_label_2
_geom_bond_site_symmetry_1
_geom_bond_site_symmetry_2
C1 C2 1_555 1_555
C2 C3 1_555 1_555
C3 H1 1_555 1_555
C4 C2 1_555 1_555
H2 C4 1_555 1_555
C5 C4 1_555 1_555
C6 H3 1_555 1_555
C7 C6 1_555 1_555
H4 C7 1_555 1_555
C8 C7 1_555 1_555
C9 C8 1_555 1_555
H5 C9 1_555 1_555
C10 C9 1_555 1_555
H6 C10 1_555 1_555
C11 C12 1_555 1_555
C12 C13 1_555 1_555
C13 H7 1_555 1_555
C14 C13 1_555 1_555
H8 C14 1_555 1_555
C15 C14 1_555 1_555
C16 C15 1_555 1_555
H9 C16 1_555 1_555
C17 C12 1_555 1_555
H10 C17 1_555 1_555
N1 C5 1_555 1_555
N2 C6 1_555 1_555
N3 C8 1_555 1_555
H11 N3 1_555 1_555
O1 C1 1_555 1_555
O2 C1 1_555 1_555
O3 N1 1_555 1_555
O4 C11 1_555 1_555
Zn1 N2 1_555 1_555
C1I C2I 1_555 1_555
C2I C3 1_555 1_555
C4I C5 1_555 1_555
H2I C4I 1_555 1_555
C6C H3C 1_555 1_555
C7C C6C 1_555 1_555
H4C C7C 1_555 1_555
C8C C7C 1_555 1_555
C9C C8C 1_555 1_555
H5C C9C 1_555 1_555
C10C C9C 1_555 1_555
H6C C10C 1_555 1_555
C11C C12C 1_555 1_555
C12C C13C 1_555 1_555
C13C H7C 1_555 1_555
C14C C13C 1_555 1_555
H8C C14C 1_555 1_555
C15C C15 1_555 1_555
C16C C15C 1_555 1_555
H9C C16C 1_555 1_555
C17C C12C 1_555 1_555
H10C C17C 1_555 1_555
N2C C6C 1_555 1_555
N2J Zn1 1_555 1_555
N3C C8C 1_555 1_555
H11C N3C 1_555 1_555
O1I C1I 1_555 1_555
O1J Zn1 1_555 1_555
O2I C1I 1_555 1_555
O3I N1 1_555 1_555
O4C C11C 1_555 1_555
Zn1A O1I 1_555 1_555
Zn1C N2C 1_555 1_555
C10 N2 1_555 1_555
C11 N3 1_555 1_555
C16 C17 1_555 1_555
O1 Zn1 1_555 1_555
C2I C4I 1_555 1_555
C10C N2C 1_555 1_555
C11C N3C 1_555 1_555
C14C C15C 1_555 1_555
C16C C17C 1_555 1_555

#END
