
#######################################################################
#
#                 Cambridge Crystallographic Data Centre
#                                CCDC 
#
#######################################################################
#
# If this CIF has been generated from an entry in the Cambridge 
# Structural Database, then it will include bibliographic, chemical, 
# crystal, experimental, refinement or atomic coordinate data resulting 
# from the CCDC's data processing and validation procedures.
#
#######################################################################

data_GAZZIS05
_chemical_formula_moiety         '(C40 H22 In1 O8 1-)1.75n,1.75n(C2 H8 N1 1+)'
_chemical_name_systematic        
"catena-(dimethylammonium (\m~4~-biphenyl-3,3',5,5'-tetrakis(4-carboxyphenyl))-tetra-indium)"
_symmetry_cell_setting           monoclinic
_symmetry_space_group_name_H-M   'C 2/c'
_symmetry_Int_Tables_number      15
_space_group_name_Hall           '-C 2yc'
loop_
_symmetry_equiv_pos_site_id
_symmetry_equiv_pos_as_xyz
1 x,y,z
2 -x,y,1/2-z
3 1/2+x,1/2+y,z
4 1/2-x,1/2+y,1/2-z
5 -x,-y,-z
6 x,-y,1/2+z
7 1/2-x,1/2-y,-z
8 1/2+x,1/2-y,1/2+z
_cell_length_a                   19.523(7)
_cell_length_b                   28.812(10)
_cell_length_c                   27.015(10)
_cell_angle_alpha                90
_cell_angle_beta                 94.929(6)
_cell_angle_gamma                90
_cell_volume                     15139.7
_exptl_crystal_colour            colorless
_exptl_crystal_description       tablet
_cell_formula_units_Z            4
loop_
_atom_site_label
_atom_site_type_symbol
_atom_site_fract_x
_atom_site_fract_y
_atom_site_fract_z
In1 In 0.886358(15) 0.258731(13) 1.116357(11)
O1 O 0.98417(16) 0.21934(12) 1.11656(11)
O2 O 0.9388(2) 0.24512(15) 1.04473(14)
O3 O 1.4046(2) 0.24028(16) 0.69704(14)
O4 O 1.2988(3) 0.2236(2) 0.67504(16)
O5 O 1.83087(18) 0.18552(14) 1.12121(16)
O6 O 1.79181(18) 0.24035(14) 1.06955(13)
O7 O 1.35068(19) -0.16992(13) 1.09097(16)
O8 O 1.4574(2) -0.17563(15) 1.12012(19)
C1 C 1.0505(2) 0.21072(19) 1.04745(17)
C2 C 1.0510(4) 0.2101(4) 0.9959(3)
H1 H 1.0113 0.2182 0.9762
C3 C 1.1094(5) 0.1977(4) 0.9735(4)
H2 H 1.1087 0.1956 0.9391
C4 C 1.1709(4) 0.1876(3) 1.0559(3)
H3 H 1.2107 0.1795 1.0755
C5 C 1.1121(4) 0.1988(3) 1.0771(3)
H4 H 1.1121 0.1987 1.1115
C6 C 1.1702(2) 0.18840(19) 1.00394(16)
C7 C 1.3357(3) 0.2206(2) 0.76130(19)
C8 C 1.3897(3) 0.2203(2) 0.79787(19)
H5 H 1.4334 0.2283 0.7895
C9 C 1.3809(3) 0.2088(2) 0.84574(19)
H6 H 1.4187 0.2081 0.8692
C10 C 1.3155(3) 0.1978(2) 0.86014(18)
C11 C 1.2607(3) 0.1994(3) 0.8237(2)
H7 H 1.2166 0.1935 0.8327
C12 C 1.2695(3) 0.2094(3) 0.7749(2)
H8 H 1.2321 0.2088 0.7511
C13 C 1.7195(3) 0.17399(19) 1.0761(2)
C14 C 1.7020(3) 0.1367(2) 1.1055(2)
H9 H 1.7325 0.1267 1.1317
C15 C 1.6398(3) 0.1147(2) 1.0959(2)
H10 H 1.6286 0.0896 1.1152
C16 C 1.5937(3) 0.13028(17) 1.0572(2)
C17 C 1.6133(3) 0.16658(19) 1.02805(18)
H11 H 1.5839 0.1758 1.0009
C18 C 1.6736(3) 0.18901(18) 1.03764(19)
H12 H 1.6842 0.2144 1.0185
C19 C 1.4174(3) -0.10129(18) 1.0905(2)
C20 C 1.4368(2) -0.00717(17) 1.06683(18)
C21 C 1.3707(4) -0.0784(3) 1.0575(4)
H13 H 1.3316 -0.0937 1.0439
C22 C 1.3824(4) -0.0327(3) 1.0449(3)
H14 H 1.3526 -0.0186 1.0208
C23 C 1.4829(5) -0.0316(4) 1.0968(4)
H15 H 1.5227 -0.0165 1.1096
C24 C 1.4744(5) -0.0786(3) 1.1100(4)
H16 H 1.5070 -0.0937 1.1314
C25 C 1.3070(2) 0.1830(2) 0.91252(17)
C26 C 1.3583(3) 0.1588(2) 0.94010(18)
H17 H 1.3999 0.1535 0.9268
C27 C 1.3485(2) 0.14194(19) 0.98797(17)
C28 C 1.2867(3) 0.15090(18) 1.00760(18)
H18 H 1.2794 0.1393 1.0388
C29 C 1.2362(2) 0.17626(18) 0.98227(17)
C30 C 1.2463(2) 0.19296(19) 0.93402(17)
H19 H 1.2123 0.2106 0.9167
C31 C 1.4475(2) 0.04186(18) 1.05333(18)
C32 C 1.3943(2) 0.06907(18) 1.03092(19)
H20 H 1.3502 0.0567 1.0268
C33 C 1.4053(2) 0.11363(18) 1.01473(17)
C34 C 1.4696(2) 0.13320(17) 1.02347(18)
H21 H 1.4764 0.1636 1.0134
C35 C 1.5245(2) 0.10888(18) 1.04683(18)
C36 C 1.5121(2) 0.06279(18) 1.0607(2)
H22 H 1.5486 0.0455 1.0754
C37 C 0.9879(2) 0.22575(19) 1.07108(17)
C38 C 1.3462(4) 0.2279(2) 0.7076(2)
C39 C 1.7853(3) 0.2015(2) 1.0905(2)
C40 C 1.4087(3) -0.15157(19) 1.10142(18)
In1G In 1.386358(15) 0.241269(13) 0.616357(11)
In1_2 In 1.886358(15) 0.258731(13) 1.116357(11)
In1B In 1.386358(15) -0.241269(13) 1.116357(11)
O3G O 0.9046(2) 0.25972(16) 1.19704(14)
O4G O 0.7988(3) 0.2764(2) 1.17504(16)
O5_2 O 0.83087(18) 0.18552(14) 1.12121(16)
O6_2 O 0.79181(18) 0.24035(14) 1.06955(13)
O7B O 0.85068(19) 0.33008(13) 1.09097(16)
O8B O 0.9574(2) 0.32437(15) 1.12012(19)
C38G C 0.8462(4) 0.2721(2) 1.2076(2)
C40B C 0.9087(3) 0.34843(19) 1.10142(18)
N1 N 0.6907(6) 0.3180(4) 1.0948(5)
H23 H 0.6927 0.3436 1.1140
H24 H 0.7317 0.3035 1.0988
C41 C 0.6739(6) 0.3313(5) 1.0400(5)
H25 H 0.7120 0.3479 1.0283
H26 H 0.6337 0.3506 1.0369
H27 H 0.6655 0.3037 1.0205
C42 C 0.6334(11) 0.2854(8) 1.1098(9)
H28 H 0.6451 0.2739 1.1428
H29 H 0.6285 0.2599 1.0870
H30 H 0.5908 0.3022 1.1090
C43? C 0.3614(9) -0.0709(6) 1.0868(7)
C44? C 0.3712(8) -0.0244(6) 1.0759(7)
C45? C 0.4915(7) -0.0379(5) 1.0729(6)
C46? C 0.4829(8) -0.0844(6) 1.0868(7)
C47? C 0.0609(8) 0.2315(7) 1.0005(5)
C48? C 0.1213(7) 0.2189(6) 0.9807(5)
C49? C 0.1516(9) 0.1678(7) 1.0483(6)
C50? C 0.0959(9) 0.1817(7) 1.0717(6)
H31? H 0.3176 -0.0818 1.0917
H32? H 0.3340 -0.0042 1.0745
H33? H 0.5353 -0.0274 1.0676
H34? H 0.5209 -0.1035 1.0933
H35? H 0.0294 0.2520 0.9846
H36? H 0.1300 0.2313 0.9501
H37? H 0.1785 0.1437 1.0621
H38? H 0.0895 0.1714 1.1036
loop_
_geom_bond_atom_site_label_1
_geom_bond_atom_site_label_2
_geom_bond_site_symmetry_1
_geom_bond_site_symmetry_2
In1 O1 1_555 1_555
O1 C37 1_555 1_555
O2 In1 1_555 1_555
O3 C38 1_555 1_555
O4 C38 1_555 1_555
O5 C39 1_555 1_555
O6 C39 1_555 1_555
O7 C40 1_555 1_555
O8 C40 1_555 1_555
C1 C2 1_555 1_555
C2 H1 1_555 1_555
C3 C2 1_555 1_555
H2 C3 1_555 1_555
C4 H3 1_555 1_555
C5 C1 1_555 1_555
H4 C5 1_555 1_555
C6 C3 1_555 1_555
C7 C8 1_555 1_555
C8 H5 1_555 1_555
C9 C8 1_555 1_555
H6 C9 1_555 1_555
C10 C9 1_555 1_555
C11 C10 1_555 1_555
H7 C11 1_555 1_555
C12 C7 1_555 1_555
H8 C12 1_555 1_555
C13 C14 1_555 1_555
C14 H9 1_555 1_555
C15 C14 1_555 1_555
H10 C15 1_555 1_555
C16 C15 1_555 1_555
C17 C16 1_555 1_555
H11 C17 1_555 1_555
C18 C13 1_555 1_555
H12 C18 1_555 1_555
C19 C21 1_555 1_555
C20 C22 1_555 1_555
C21 H13 1_555 1_555
C22 C21 1_555 1_555
H14 C22 1_555 1_555
C23 C20 1_555 1_555
H15 C23 1_555 1_555
C24 C19 1_555 1_555
H16 C24 1_555 1_555
C25 C10 1_555 1_555
C26 C25 1_555 1_555
H17 C26 1_555 1_555
C27 C26 1_555 1_555
C28 C27 1_555 1_555
H18 C28 1_555 1_555
C29 C6 1_555 1_555
C30 C25 1_555 1_555
H19 C30 1_555 1_555
C31 C20 1_555 1_555
C32 C31 1_555 1_555
H20 C32 1_555 1_555
C33 C27 1_555 1_555
C34 C33 1_555 1_555
H21 C34 1_555 1_555
C35 C16 1_555 1_555
C36 C31 1_555 1_555
H22 C36 1_555 1_555
C37 O2 1_555 1_555
C38 C7 1_555 1_555
C39 C13 1_555 1_555
C40 C19 1_555 1_555
N1 H23 1_555 1_555
H24 N1 1_555 1_555
C41 N1 1_555 1_555
H25 C41 1_555 1_555
H26 C41 1_555 1_555
H27 C41 1_555 1_555
C42 N1 1_555 1_555
H28 C42 1_555 1_555
H29 C42 1_555 1_555
H30 C42 1_555 1_555
In1G O3 1_555 1_555
In1_2 O5 1_555 1_555
In1B O7 1_555 1_555
O3G In1 1_555 1_555
O4G In1 1_555 1_555
O5_2 In1 1_555 1_555
O6_2 In1 1_555 1_555
O7B In1 1_555 1_555
O8B In1 1_555 1_555
C38G O3G 1_555 1_555
C40B O7B 1_555 1_555
O4 In1G 1_555 1_555
O6 In1_2 1_555 1_555
O8 In1B 1_555 1_555
C1 C37 1_555 1_555
C4 C5 1_555 1_555
C4 C6 1_555 1_555
C11 C12 1_555 1_555
C17 C18 1_555 1_555
C23 C24 1_555 1_555
C28 C29 1_555 1_555
C29 C30 1_555 1_555
C32 C33 1_555 1_555
C34 C35 1_555 1_555
C35 C36 1_555 1_555
O4G C38G 1_555 1_555
O8B C40B 1_555 1_555

#END
