
#######################################################################
#
#                 Cambridge Crystallographic Data Centre
#                                CCDC 
#
#######################################################################
#
# If this CIF has been generated from an entry in the Cambridge 
# Structural Database, then it will include bibliographic, chemical, 
# crystal, experimental, refinement or atomic coordinate data resulting 
# from the CCDC's data processing and validation procedures.
#
#######################################################################

data_GEZRAG
_chemical_name_common            TAF-1
_chemical_formula_moiety         '(C45 H70 Co10 N4 O28)n,8n(C1 H4 O1)'
_chemical_name_systematic        
'catena-(tris(\m~7~-4-(tris(oxymethyl)methyl)pyridine)-(\m~6~-4-(tris(oxymethyl)methyl)pyridine)-(\m~6~-oxo)-tris(\m~2~-acetato)-tris(methoxy)-hexaaqua-deca-cobalt(ii) methanol solvate)'
_symmetry_cell_setting           cubic
_symmetry_space_group_name_H-M   'P a -3'
_symmetry_Int_Tables_number      205
_space_group_name_Hall           '-P 2ac 2ab 3'
loop_
_symmetry_equiv_pos_site_id
_symmetry_equiv_pos_as_xyz
1 x,y,z
2 1/2-x,-y,1/2+z
3 -x,1/2+y,1/2-z
4 1/2+x,1/2-y,-z
5 z,x,y
6 y,z,x
7 -z,1/2+x,1/2-y
8 -y,1/2+z,1/2-x
9 1/2-z,-x,1/2+y
10 1/2-y,-z,1/2+x
11 1/2+z,1/2-x,-y
12 1/2+y,1/2-z,-x
13 -x,-y,-z
14 1/2+x,y,1/2-z
15 x,1/2-y,1/2+z
16 1/2-x,1/2+y,z
17 -z,-x,-y
18 -y,-z,-x
19 z,1/2-x,1/2+y
20 y,1/2-z,1/2+x
21 1/2+z,x,1/2-y
22 1/2+y,z,1/2-x
23 1/2-z,1/2+x,y
24 1/2-y,1/2+z,x
_cell_length_a                   26.4529(18)
_cell_length_b                   26.4529(18)
_cell_length_c                   26.4529(18)
_cell_angle_alpha                90
_cell_angle_beta                 90
_cell_angle_gamma                90
_cell_volume                     18510.6
_exptl_crystal_colour            red
_exptl_crystal_description       Block
_cell_formula_units_Z            8
loop_
_atom_site_label
_atom_site_type_symbol
_atom_site_fract_x
_atom_site_fract_y
_atom_site_fract_z
_atom_site_U_iso_or_equiv
_atom_site_thermal_displace_type
Co1 Co 0.16149(4) 0.13200(4) 0.22476(4) 0.0352 Uani
Co2 Co 0.17535(4) 0.23982(4) 0.26793(4) 0.0354 Uani
Co3 Co 0.21052(4) 0.14369(4) 0.33164(4) 0.0382 Uani
Co4 Co 0.11777(5) 0.11777(5) 0.11777(5) 0.0813 Uani
O1 O 0.20004(18) 0.20004(18) 0.20004(18) 0.0360 Uani
O2 O 0.11389(17) 0.25905(17) 0.22575(18) 0.0330 Uani
O3 O 0.14426(17) 0.17188(18) 0.28942(18) 0.0337 Uani
O4 O 0.10155(18) 0.15833(18) 0.18654(18) 0.0363 Uani
O5 O 0.23807(18) 0.21326(18) 0.30168(18) 0.0347 Uani
O6 O 0.1485(2) 0.2858(2) 0.3264(2) 0.0503 Uani
N1 N -0.0945(2) 0.1981(3) 0.3287(3) 0.0437 Uani
C1 C -0.0553(3) 0.2209(4) 0.3493(3) 0.0587 Uani
H1 H -0.0604 0.2389 0.3791 0.0710 Uiso
C2 C -0.0072(3) 0.2197(4) 0.3293(3) 0.0597 Uani
H2 H 0.0188 0.2369 0.3455 0.0710 Uiso
C3 C -0.0851(3) 0.1710(3) 0.2881(3) 0.0520 Uani
H3 H -0.1117 0.1532 0.2736 0.0630 Uiso
C4 C -0.0378(3) 0.1673(3) 0.2653(3) 0.0503 Uani
H4 H -0.0336 0.1473 0.2367 0.0600 Uiso
C5 C 0.0030(3) 0.1932(3) 0.2852(3) 0.0390 Uani
C6 C 0.0564(3) 0.1936(3) 0.2616(3) 0.0353 Uani
C7 C 0.0653(3) 0.2500(3) 0.2473(3) 0.0370 Uani
H5 H 0.0396 0.2604 0.2233 0.0440 Uiso
H6 H 0.0616 0.2706 0.2773 0.0440 Uiso
O7 O 0.1226(2) 0.3539(2) 0.2829(2) 0.0513 Uani
C8 C 0.0925(3) 0.1725(3) 0.3034(3) 0.0387 Uani
H7 H 0.0886 0.1929 0.3336 0.0470 Uiso
H8 H 0.0821 0.1383 0.3117 0.0470 Uiso
C9 C 0.0552(3) 0.1597(3) 0.2134(3) 0.0370 Uani
H9 H 0.0463 0.1255 0.2233 0.0450 Uiso
H10 H 0.0289 0.1719 0.1910 0.0450 Uiso
C10 C 0.2696(3) 0.2490(3) 0.3263(3) 0.0463 Uani
H11 H 0.2978 0.2313 0.3417 0.0550 Uiso
H12 H 0.2506 0.2650 0.3532 0.0550 Uiso
C11 C 0.2908(2) 0.2908(2) 0.2908(2) 0.0440 Uani
C12 C 0.3247(3) 0.3247(3) 0.3247(3) 0.0790 Uani
C13 C 0.3294(14) 0.3186(12) 0.3766(5) 0.0897 Uani
H13 H 0.3106 0.2918 0.3922 0.1080 Uiso
C14 C 0.3596(13) 0.3486(11) 0.4070(10) 0.0987 Uani
H14 H 0.3610 0.3429 0.4428 0.1190 Uiso
N2 N 0.3860(4) 0.3860(4) 0.3860(4) 0.1040 Uani
C15 C 0.3819(15) 0.3922(14) 0.3357(5) 0.0960 Uani
H15 H 0.4016 0.4189 0.3209 0.1150 Uiso
C16 C 0.3524(14) 0.3639(11) 0.3030(9) 0.0867 Uani
H16 H 0.3503 0.3714 0.2675 0.1040 Uiso
C17 C 0.1303(3) 0.3300(4) 0.3228(4) 0.0533 Uani
C18 C 0.134(3) 0.3595(13) 0.3735(11) 0.0787 Uani
H17 H 0.1162 0.3411 0.3994 0.1180 Uiso
H18 H 0.1186 0.3922 0.3695 0.1180 Uiso
H19 H 0.1686 0.3633 0.3829 0.1180 Uiso
O8 O 0.1729(3) 0.0765(2) 0.3477(3) 0.0807 Uani
H20 H 0.1589 0.0633 0.3721 0.1210 Uiso
H21 H 0.1600 0.0690 0.3205 0.1210 Uiso
O9 O 0.1305(19) 0.0706(15) 0.2575(19) 0.0720 Uani
O10 O 0.0825(8) 0.0550(7) 0.1315(8) 0.1143 Uani
C19 C 0.1015(12) 0.0278(11) 0.2359(14) 0.1200 Uani
O5D O 0.30168(18) 0.23807(18) 0.21326(18) 0.0347 Uani
C10D C 0.3263(3) 0.2696(3) 0.2490(3) 0.0463 Uani
H11D H 0.3417 0.2978 0.2313 0.0550 Uiso
H12D H 0.3532 0.2506 0.2650 0.0550 Uiso
C13D C 0.3766(5) 0.3294(14) 0.3186(12) 0.0897 Uani
H13D H 0.3922 0.3106 0.2918 0.1080 Uiso
C14D C 0.4070(10) 0.3596(13) 0.3486(11) 0.0987 Uani
H14D H 0.4428 0.3610 0.3429 0.1190 Uiso
C15D C 0.3357(5) 0.3819(15) 0.3922(14) 0.0960 Uani
H15D H 0.3209 0.4016 0.4189 0.1150 Uiso
C16D C 0.3030(9) 0.3524(14) 0.3639(11) 0.0867 Uani
H16D H 0.2675 0.3503 0.3714 0.1040 Uiso
O5E O 0.21326(18) 0.30168(18) 0.23807(18) 0.0347 Uani
C10E C 0.2490(3) 0.3263(3) 0.2696(3) 0.0463 Uani
H11E H 0.2313 0.3417 0.2978 0.0550 Uiso
H12E H 0.2650 0.3532 0.2506 0.0550 Uiso
C13E C 0.3186(12) 0.3766(5) 0.3294(14) 0.0897 Uani
H13E H 0.2918 0.3922 0.3106 0.1080 Uiso
C14E C 0.3486(11) 0.4070(10) 0.3596(13) 0.0987 Uani
H14E H 0.3429 0.4428 0.3610 0.1190 Uiso
C15E C 0.3922(14) 0.3357(5) 0.3819(15) 0.0960 Uani
H15E H 0.4189 0.3209 0.4016 0.1150 Uiso
C16E C 0.3639(11) 0.3030(9) 0.3524(14) 0.0867 Uani
H16E H 0.3714 0.2675 0.3503 0.1040 Uiso
Co1D Co 0.22476(4) 0.16149(4) 0.13200(4) 0.0352 Uani
Co2D Co 0.26793(4) 0.17535(4) 0.23982(4) 0.0354 Uani
Co3D Co 0.33164(4) 0.21052(4) 0.14369(4) 0.0382 Uani
O2D O 0.22575(18) 0.11389(17) 0.25905(17) 0.0330 Uani
O3D O 0.28942(18) 0.14426(17) 0.17188(18) 0.0337 Uani
O4D O 0.18654(18) 0.10155(18) 0.15833(18) 0.0363 Uani
O6D O 0.3264(2) 0.1485(2) 0.2858(2) 0.0503 Uani
N1D N 0.3287(3) -0.0945(2) 0.1981(3) 0.0437 Uani
C1D C 0.3493(3) -0.0553(3) 0.2209(4) 0.0587 Uani
H1D H 0.3791 -0.0604 0.2389 0.0710 Uiso
C2D C 0.3293(3) -0.0072(3) 0.2197(4) 0.0597 Uani
H2D H 0.3455 0.0188 0.2369 0.0710 Uiso
C3D C 0.2881(3) -0.0851(3) 0.1710(3) 0.0520 Uani
H3D H 0.2736 -0.1117 0.1532 0.0630 Uiso
C4D C 0.2653(3) -0.0378(3) 0.1673(3) 0.0503 Uani
H4D H 0.2367 -0.0336 0.1473 0.0600 Uiso
C5D C 0.2852(3) 0.0030(3) 0.1932(3) 0.0390 Uani
C6D C 0.2616(3) 0.0564(3) 0.1936(3) 0.0353 Uani
C7D C 0.2473(3) 0.0653(3) 0.2500(3) 0.0370 Uani
H5D H 0.2233 0.0396 0.2604 0.0440 Uiso
H6D H 0.2773 0.0616 0.2706 0.0440 Uiso
O7D O 0.2829(2) 0.1226(2) 0.3539(2) 0.0513 Uani
C8D C 0.3034(3) 0.0925(3) 0.1725(3) 0.0387 Uani
H7D H 0.3336 0.0886 0.1929 0.0470 Uiso
H8D H 0.3117 0.0821 0.1383 0.0470 Uiso
C9D C 0.2134(3) 0.0552(3) 0.1597(3) 0.0370 Uani
H9D H 0.2233 0.0463 0.1255 0.0450 Uiso
H10D H 0.1910 0.0289 0.1719 0.0450 Uiso
C17D C 0.3228(4) 0.1303(3) 0.3300(4) 0.0533 Uani
C18D C 0.3735(11) 0.134(3) 0.3595(13) 0.0787 Uani
H17D H 0.3994 0.1162 0.3411 0.1180 Uiso
H18D H 0.3695 0.1186 0.3922 0.1180 Uiso
H19D H 0.3829 0.1686 0.3633 0.1180 Uiso
O8D O 0.3477(3) 0.1729(3) 0.0765(2) 0.0807 Uani
H20D H 0.3721 0.1589 0.0633 0.1210 Uiso
H21D H 0.3205 0.1600 0.0690 0.1210 Uiso
O9D O 0.2575(19) 0.1305(19) 0.0706(15) 0.0720 Uani
O10D O 0.1315(8) 0.0825(8) 0.0550(7) 0.1143 Uani
C19D C 0.2359(14) 0.1015(12) 0.0278(11) 0.1200 Uani
Co1E Co 0.13200(4) 0.22476(4) 0.16149(4) 0.0352 Uani
Co2E Co 0.23982(4) 0.26793(4) 0.17535(4) 0.0354 Uani
Co3E Co 0.14369(4) 0.33164(4) 0.21052(4) 0.0382 Uani
O2E O 0.25905(17) 0.22575(18) 0.11389(17) 0.0330 Uani
O3E O 0.17188(18) 0.28942(18) 0.14426(17) 0.0337 Uani
O4E O 0.15833(18) 0.18654(18) 0.10155(18) 0.0363 Uani
O6E O 0.2858(2) 0.3264(2) 0.1485(2) 0.0503 Uani
N1E N 0.1981(3) 0.3287(3) -0.0945(2) 0.0437 Uani
C1E C 0.2209(4) 0.3493(3) -0.0553(3) 0.0587 Uani
H1E H 0.2389 0.3791 -0.0604 0.0710 Uiso
C2E C 0.2197(4) 0.3293(3) -0.0072(3) 0.0597 Uani
H2E H 0.2369 0.3455 0.0188 0.0710 Uiso
C3E C 0.1710(3) 0.2881(3) -0.0851(3) 0.0520 Uani
H3E H 0.1532 0.2736 -0.1117 0.0630 Uiso
C4E C 0.1673(3) 0.2653(3) -0.0378(3) 0.0503 Uani
H4E H 0.1473 0.2367 -0.0336 0.0600 Uiso
C5E C 0.1932(3) 0.2852(3) 0.0030(3) 0.0390 Uani
C6E C 0.1936(3) 0.2616(3) 0.0564(3) 0.0353 Uani
C7E C 0.2500(3) 0.2473(3) 0.0653(3) 0.0370 Uani
H5E H 0.2604 0.2233 0.0396 0.0440 Uiso
H6E H 0.2706 0.2773 0.0616 0.0440 Uiso
O7E O 0.3539(2) 0.2829(2) 0.1226(2) 0.0513 Uani
C8E C 0.1725(3) 0.3034(3) 0.0925(3) 0.0387 Uani
H7E H 0.1929 0.3336 0.0886 0.0470 Uiso
H8E H 0.1383 0.3117 0.0821 0.0470 Uiso
C9E C 0.1597(3) 0.2134(3) 0.0552(3) 0.0370 Uani
H9E H 0.1255 0.2233 0.0463 0.0450 Uiso
H10E H 0.1719 0.1910 0.0289 0.0450 Uiso
C17E C 0.3300(4) 0.3228(4) 0.1303(3) 0.0533 Uani
C18E C 0.3595(13) 0.3735(11) 0.134(3) 0.0787 Uani
H17E H 0.3411 0.3994 0.1162 0.1180 Uiso
H18E H 0.3922 0.3695 0.1186 0.1180 Uiso
H19E H 0.3633 0.3829 0.1686 0.1180 Uiso
O8E O 0.0765(2) 0.3477(3) 0.1729(3) 0.0807 Uani
H20E H 0.0633 0.3721 0.1589 0.1210 Uiso
H21E H 0.0690 0.3205 0.1600 0.1210 Uiso
O9E O 0.0706(15) 0.2575(19) 0.1305(19) 0.0720 Uani
O10E O 0.0550(7) 0.1315(8) 0.0825(8) 0.1143 Uani
C19E C 0.0278(11) 0.2359(14) 0.1015(12) 0.1200 Uani
Co3N Co 0.21052(4) 0.35631(4) -0.16836(4) 0.0382 Uani
Co3T Co -0.16836(4) 0.21052(4) 0.35631(4) 0.0382 Uani
Co3W Co 0.35631(4) -0.16836(4) 0.21052(4) 0.0382 Uani
N1M N 0.4055(2) 0.1981(3) 0.1713(3) 0.0437 Uani
N1S N 0.1981(3) 0.1713(3) 0.4055(2) 0.0437 Uani
N1V N 0.1713(3) 0.4055(2) 0.1981(3) 0.0437 Uani
C20? C 0.1066(18) 0.3517(9) 0.3705(8) 0.0687 Uani
H22? H 0.1025 0.3876 0.3667 0.1030 Uiso
H23? H 0.1282 0.3450 0.3989 0.1030 Uiso
H24? H 0.0742 0.3363 0.3760 0.1030 Uiso
O11? O 0.1242(18) 0.0608(14) 0.2476(18) 0.0743 Uani
O12? O 0.0910(8) 0.0464(8) 0.1741(11) 0.1297 Uani
C21? C 0.0809(11) 0.0082(11) 0.2144(10) 0.1117 Uani
loop_
_atom_site_aniso_label
_atom_site_aniso_U_11
_atom_site_aniso_U_22
_atom_site_aniso_U_33
_atom_site_aniso_U_23
_atom_site_aniso_U_13
_atom_site_aniso_U_12
Co1 0.0347(6) 0.0367(6) 0.0343(6) -0.0013(5) 0.0010(5) 0.0031(5)
Co2 0.0343(6) 0.0344(6) 0.0376(6) 0.0002(5) 0.0002(5) 0.0003(5)
Co3 0.0459(6) 0.0396(6) 0.0292(6) -0.0007(5) -0.0003(5) 0.0005(5)
Co4 0.0813(8) 0.0813(8) 0.0813(8) -0.0207(8) -0.0207(8) -0.0207(8)
O1 0.036(2) 0.036(2) 0.036(2) 0.000(2) 0.000(2) 0.000(2)
O2 0.030(3) 0.033(3) 0.036(3) 0.000(2) 0.004(2) -0.002(2)
O3 0.029(3) 0.037(3) 0.035(3) -0.002(2) -0.001(2) 0.000(2)
O4 0.031(3) 0.041(3) 0.037(3) -0.003(2) 0.000(2) 0.000(2)
O5 0.035(3) 0.036(3) 0.033(3) -0.005(2) -0.005(2) -0.004(2)
O6 0.060(4) 0.048(4) 0.043(3) 0.000(3) 0.001(3) 0.003(3)
N1 0.031(4) 0.053(4) 0.047(4) -0.003(3) 0.003(3) 0.001(3)
C1 0.041(5) 0.084(7) 0.051(5) -0.019(5) 0.006(4) 0.000(5)
C2 0.041(5) 0.086(7) 0.052(5) -0.023(5) 0.000(4) -0.007(5)
C3 0.039(5) 0.057(6) 0.060(6) -0.007(5) 0.001(4) -0.011(4)
C4 0.035(5) 0.059(6) 0.057(6) -0.008(5) 0.004(4) -0.003(4)
C5 0.030(4) 0.045(5) 0.042(5) -0.001(4) -0.002(4) -0.004(4)
C6 0.025(4) 0.045(4) 0.036(4) -0.002(4) 0.001(3) -0.004(3)
C7 0.032(4) 0.032(4) 0.047(5) -0.005(4) 0.010(4) -0.002(3)
O7 0.061(4) 0.038(3) 0.055(4) -0.001(3) 0.005(3) 0.004(3)
C8 0.029(4) 0.048(5) 0.039(4) 0.004(4) 0.004(3) 0.001(4)
C9 0.027(4) 0.045(5) 0.039(4) -0.006(4) 0.005(3) -0.007(3)
C10 0.048(5) 0.053(5) 0.038(4) -0.006(4) -0.010(4) -0.004(4)
C11 0.044(3) 0.044(3) 0.044(3) -0.009(4) -0.009(4) -0.009(4)
C12 0.079(4) 0.079(4) 0.079(4) -0.023(4) -0.023(4) -0.023(4)
C13 0.095(9) 0.090(9) 0.084(8) -0.023(8) -0.028(8) -0.026(8)
C14 0.104(9) 0.099(9) 0.093(9) -0.022(8) -0.028(8) -0.028(8)
N2 0.104(5) 0.104(5) 0.104(5) -0.030(5) -0.030(5) -0.030(5)
C15 0.095(9) 0.093(9) 0.100(9) -0.026(8) -0.021(8) -0.032(8)
C16 0.088(8) 0.082(8) 0.090(9) -0.024(8) -0.019(8) -0.032(8)
C17 0.057(6) 0.050(6) 0.053(6) -0.011(5) 0.003(5) -0.002(5)
C18 0.084(15) 0.080(14) 0.072(13) -0.015(9) 0.002(9) 0.003(9)
O8 0.111(6) 0.056(4) 0.075(5) 0.001(4) 0.026(4) -0.020(4)
O9 0.060(11) 0.048(13) 0.108(16) -0.031(10) 0.014(10) -0.029(9)
O10 0.144(13) 0.082(10) 0.117(13) 0.006(10) -0.017(12) -0.074(9)
C19 0.098(15) 0.089(15) 0.173(18) -0.039(15) 0.009(15) -0.029(13)
O5D 0.033 0.035 0.036 -0.004 -0.005 -0.005
C10D 0.038 0.048 0.053 -0.004 -0.006 -0.01
C13D 0.084 0.095 0.09 -0.026 -0.023 -0.028
C14D 0.093 0.104 0.099 -0.028 -0.022 -0.028
C15D 0.1 0.095 0.093 -0.032 -0.026 -0.021
C16D 0.09 0.088 0.082 -0.032 -0.024 -0.019
O5E 0.036 0.033 0.035 -0.005 -0.004 -0.005
C10E 0.053 0.038 0.048 -0.01 -0.004 -0.006
C13E 0.09 0.084 0.095 -0.028 -0.026 -0.023
C14E 0.099 0.093 0.104 -0.028 -0.028 -0.022
C15E 0.093 0.1 0.095 -0.021 -0.032 -0.026
C16E 0.082 0.09 0.088 -0.019 -0.032 -0.024
Co1D 0.0343 0.0347 0.0367 0.0031 -0.0013 0.001
Co2D 0.0376 0.0343 0.0344 0.0003 0.0002 0.0002
Co3D 0.0292 0.0459 0.0396 0.0005 -0.0007 -0.0003
O2D 0.036 0.03 0.033 -0.002 0 0.004
O3D 0.035 0.029 0.037 0 -0.002 -0.001
O4D 0.037 0.031 0.041 0 -0.003 0
O6D 0.043 0.06 0.048 0.003 0 0.001
N1D 0.047 0.031 0.053 0.001 -0.003 0.003
C1D 0.051 0.041 0.084 0 -0.019 0.006
C2D 0.052 0.041 0.086 -0.007 -0.023 0
C3D 0.06 0.039 0.057 -0.011 -0.007 0.001
C4D 0.057 0.035 0.059 -0.003 -0.008 0.004
C5D 0.042 0.03 0.045 -0.004 -0.001 -0.002
C6D 0.036 0.025 0.045 -0.004 -0.002 0.001
C7D 0.047 0.032 0.032 -0.002 -0.005 0.01
O7D 0.055 0.061 0.038 0.004 -0.001 0.005
C8D 0.039 0.029 0.048 0.001 0.004 0.004
C9D 0.039 0.027 0.045 -0.007 -0.006 0.005
C17D 0.053 0.057 0.05 -0.002 -0.011 0.003
C18D 0.072 0.084 0.08 0.003 -0.015 0.002
O8D 0.075 0.111 0.056 -0.02 0.001 0.026
O9D 0.108 0.06 0.048 -0.029 -0.031 0.014
O10D 0.117 0.144 0.082 -0.074 0.006 -0.017
C19D 0.173 0.098 0.089 -0.029 -0.039 0.009
Co1E 0.0367 0.0343 0.0347 0.001 0.0031 -0.0013
Co2E 0.0344 0.0376 0.0343 0.0002 0.0003 0.0002
Co3E 0.0396 0.0292 0.0459 -0.0003 0.0005 -0.0007
O2E 0.033 0.036 0.03 0.004 -0.002 0
O3E 0.037 0.035 0.029 -0.001 0 -0.002
O4E 0.041 0.037 0.031 0 0 -0.003
O6E 0.048 0.043 0.06 0.001 0.003 0
N1E 0.053 0.047 0.031 0.003 0.001 -0.003
C1E 0.084 0.051 0.041 0.006 0 -0.019
C2E 0.086 0.052 0.041 0 -0.007 -0.023
C3E 0.057 0.06 0.039 0.001 -0.011 -0.007
C4E 0.059 0.057 0.035 0.004 -0.003 -0.008
C5E 0.045 0.042 0.03 -0.002 -0.004 -0.001
C6E 0.045 0.036 0.025 0.001 -0.004 -0.002
C7E 0.032 0.047 0.032 0.01 -0.002 -0.005
O7E 0.038 0.055 0.061 0.005 0.004 -0.001
C8E 0.048 0.039 0.029 0.004 0.001 0.004
C9E 0.045 0.039 0.027 0.005 -0.007 -0.006
C17E 0.05 0.053 0.057 0.003 -0.002 -0.011
C18E 0.08 0.072 0.084 0.002 0.003 -0.015
O8E 0.056 0.075 0.111 0.026 -0.02 0.001
O9E 0.048 0.108 0.06 0.014 -0.029 -0.031
O10E 0.082 0.117 0.144 -0.017 -0.074 0.006
C19E 0.089 0.173 0.098 0.009 -0.029 -0.039
Co3N 0.0459 0.0396 0.0292 0.0007 -0.0003 -0.0005
Co3T 0.0292 0.0459 0.0396 -0.0005 0.0007 -0.0003
Co3W 0.0396 0.0292 0.0459 -0.0003 -0.0005 0.0007
N1M 0.031 0.053 0.047 0.003 -0.003 0.001
N1S 0.053 0.047 0.031 -0.003 0.001 0.003
N1V 0.047 0.031 0.053 0.001 0.003 -0.003
C20? 0.078(13) 0.072(11) 0.056(10) -0.015(7) 0.008(8) 0.004(8)
O11? 0.060(14) 0.042(14) 0.121(18) -0.015(12) 0.019(12) -0.010(11)
O12? 0.100(12) 0.093(12) 0.196(17) -0.041(13) 0.024(14) -0.019(10)
C21? 0.110(14) 0.116(15) 0.109(16) -0.033(13) -0.022(13) -0.070(12)
loop_
_geom_bond_atom_site_label_1
_geom_bond_atom_site_label_2
_geom_bond_site_symmetry_1
_geom_bond_site_symmetry_2
Co1 Co2 1_555 1_555
Co2 O1 1_555 1_555
Co3 O3 1_555 1_555
Co4 Co1 1_555 1_555
O1 Co1 1_555 1_555
O2 Co2 1_555 1_555
O3 Co1 1_555 1_555
O4 Co1 1_555 1_555
O5 Co2 1_555 1_555
O6 Co2 1_555 1_555
N1 C1 1_555 1_555
C1 H1 1_555 1_555
C2 C1 1_555 1_555
H2 C2 1_555 1_555
C3 N1 1_555 1_555
H3 C3 1_555 1_555
C4 C3 1_555 1_555
H4 C4 1_555 1_555
C5 C2 1_555 1_555
C6 C5 1_555 1_555
C7 O2 1_555 1_555
H5 C7 1_555 1_555
H6 C7 1_555 1_555
O7 C17 1_555 1_555
C8 O3 1_555 1_555
H7 C8 1_555 1_555
H8 C8 1_555 1_555
C9 O4 1_555 1_555
H9 C9 1_555 1_555
H10 C9 1_555 1_555
C10 O5 1_555 1_555
H11 C10 1_555 1_555
H12 C10 1_555 1_555
C11 C10 1_555 1_555
C12 C11 1_555 1_555
C13 C12 1_555 1_555
H13 C13 1_555 1_555
C14 C13 1_555 1_555
H14 C14 1_555 1_555
N2 C14 1_555 1_555
C15 N2 1_555 1_555
H15 C15 1_555 1_555
C16 C12 1_555 1_555
H16 C16 1_555 1_555
C17 O6 1_555 1_555
C18 C17 1_555 1_555
H17 C18 1_555 1_555
H18 C18 1_555 1_555
H19 C18 1_555 1_555
O8 Co3 1_555 1_555
H20 O8 1_555 1_555
H21 O8 1_555 1_555
O9 Co1 1_555 1_555
O10 Co4 1_555 1_555
C19 O9 1_555 1_555
O5D C10D 1_555 1_555
C10D C11 1_555 1_555
H11D C10D 1_555 1_555
H12D C10D 1_555 1_555
C13D C12 1_555 1_555
H13D C13D 1_555 1_555
C14D N2 1_555 1_555
H14D C14D 1_555 1_555
C15D C14 1_555 1_555
H15D C15D 1_555 1_555
C16D C12 1_555 1_555
H16D C16D 1_555 1_555
O5E Co2 1_555 1_555
C10E C11 1_555 1_555
H11E C10E 1_555 1_555
H12E C10E 1_555 1_555
C13E C12 1_555 1_555
H13E C13E 1_555 1_555
C14E N2 1_555 1_555
H14E C14E 1_555 1_555
C15E C14 1_555 1_555
H15E C15E 1_555 1_555
C16E C12 1_555 1_555
H16E C16E 1_555 1_555
Co1D Co1 1_555 1_555
Co2D Co1 1_555 1_555
Co3D O5D 1_555 1_555
O2D Co1 1_555 1_555
O3D Co1D 1_555 1_555
O4D Co1 1_555 1_555
O6D Co2D 1_555 1_555
N1D C1D 1_555 1_555
C1D H1D 1_555 1_555
C2D C1D 1_555 1_555
H2D C2D 1_555 1_555
C3D N1D 1_555 1_555
H3D C3D 1_555 1_555
C4D C3D 1_555 1_555
H4D C4D 1_555 1_555
C5D C2D 1_555 1_555
C6D C5D 1_555 1_555
C7D O2D 1_555 1_555
H5D C7D 1_555 1_555
H6D C7D 1_555 1_555
O7D Co3 1_555 1_555
C8D O3D 1_555 1_555
H7D C8D 1_555 1_555
H8D C8D 1_555 1_555
C9D O4D 1_555 1_555
H9D C9D 1_555 1_555
H10D C9D 1_555 1_555
C17D O6D 1_555 1_555
C18D C17D 1_555 1_555
H17D C18D 1_555 1_555
H18D C18D 1_555 1_555
H19D C18D 1_555 1_555
O8D Co3D 1_555 1_555
H20D O8D 1_555 1_555
H21D O8D 1_555 1_555
O9D Co1D 1_555 1_555
O10D Co4 1_555 1_555
C19D O9D 1_555 1_555
Co1E Co1 1_555 1_555
Co2E Co2 1_555 1_555
Co3E Co2 1_555 1_555
O2E Co1D 1_555 1_555
O3E Co1E 1_555 1_555
O4E Co4 1_555 1_555
O6E Co2E 1_555 1_555
N1E C1E 1_555 1_555
C1E H1E 1_555 1_555
C2E C1E 1_555 1_555
H2E C2E 1_555 1_555
C3E N1E 1_555 1_555
H3E C3E 1_555 1_555
C4E C3E 1_555 1_555
H4E C4E 1_555 1_555
C5E C2E 1_555 1_555
C6E C5E 1_555 1_555
C7E O2E 1_555 1_555
H5E C7E 1_555 1_555
H6E C7E 1_555 1_555
O7E Co3D 1_555 1_555
C8E O3E 1_555 1_555
H7E C8E 1_555 1_555
H8E C8E 1_555 1_555
C9E O4E 1_555 1_555
H9E C9E 1_555 1_555
H10E C9E 1_555 1_555
C17E O6E 1_555 1_555
C18E C17E 1_555 1_555
H17E C18E 1_555 1_555
H18E C18E 1_555 1_555
H19E C18E 1_555 1_555
O8E Co3E 1_555 1_555
H20E O8E 1_555 1_555
H21E O8E 1_555 1_555
O9E Co1E 1_555 1_555
O10E Co4 1_555 1_555
C19E O9E 1_555 1_555
Co3N N1E 1_555 1_555
Co3T N1 1_555 1_555
Co3W N1D 1_555 1_555
N1M Co3D 1_555 1_555
N1S Co3 1_555 1_555
N1V Co3E 1_555 1_555
Co2 O3 1_555 1_555
Co2 Co2D 1_555 1_555
Co2 Co1E 1_555 1_555
Co3 O5 1_555 1_555
Co3 Co2D 1_555 1_555
Co3 O2D 1_555 1_555
Co4 O4 1_555 1_555
Co4 Co1D 1_555 1_555
Co4 O4D 1_555 1_555
Co4 Co1E 1_555 1_555
O1 Co1D 1_555 1_555
O1 Co2D 1_555 1_555
O1 Co1E 1_555 1_555
O1 Co2E 1_555 1_555
O2 Co1E 1_555 1_555
O2 Co3E 1_555 1_555
O4 Co1E 1_555 1_555
O5 Co2D 1_555 1_555
C4 C5 1_555 1_555
C6 C7 1_555 1_555
C6 C8 1_555 1_555
C6 C9 1_555 1_555
O7 Co3E 1_555 1_555
C13 C16D 1_555 1_555
C13 C16E 1_555 1_555
N2 C15D 1_555 1_555
N2 C15E 1_555 1_555
C15 C16 1_555 1_555
C15 C14D 1_555 1_555
C15 C14E 1_555 1_555
C16 C13D 1_555 1_555
C16 C13E 1_555 1_555
O5D Co2D 1_555 1_555
O5D Co2E 1_555 1_555
C13D C14D 1_555 1_555
C13D C16E 1_555 1_555
C14D C15E 1_555 1_555
C15D C16D 1_555 1_555
C15D C14E 1_555 1_555
C16D C13E 1_555 1_555
O5E C10E 1_555 1_555
O5E Co2E 1_555 1_555
O5E Co3E 1_555 1_555
C13E C14E 1_555 1_555
C15E C16E 1_555 1_555
Co1D Co2D 1_555 1_555
Co1D O4D 1_555 1_555
Co1D Co1E 1_555 1_555
Co1D Co2E 1_555 1_555
Co1D O4E 1_555 1_555
Co2D O2D 1_555 1_555
Co2D O3D 1_555 1_555
Co2D Co2E 1_555 1_555
Co3D O3D 1_555 1_555
Co3D Co2E 1_555 1_555
Co3D O2E 1_555 1_555
C4D C5D 1_555 1_555
C6D C7D 1_555 1_555
C6D C8D 1_555 1_555
C6D C9D 1_555 1_555
O7D C17D 1_555 1_555
Co1E Co2E 1_555 1_555
Co1E O4E 1_555 1_555
Co2E O2E 1_555 1_555
Co2E O3E 1_555 1_555
Co3E O3E 1_555 1_555
C4E C5E 1_555 1_555
C6E C7E 1_555 1_555
C6E C8E 1_555 1_555
C6E C9E 1_555 1_555
O7E C17E 1_555 1_555

#END
