
#######################################################################
#
#                 Cambridge Crystallographic Data Centre
#                                CCDC 
#
#######################################################################
#
# If this CIF has been generated from an entry in the Cambridge 
# Structural Database, then it will include bibliographic, chemical, 
# crystal, experimental, refinement or atomic coordinate data resulting 
# from the CCDC's data processing and validation procedures.
#
#######################################################################

data_ADASUV
_chemical_formula_moiety         '(C66 H48 Co6 O36)n'
_chemical_name_systematic        
catena-(bis(\m~12~-5,5',5''-(1,3,5-benzenetriyltris(methyleneoxy))-tris(1,3-benzenedicarboxylato))-hexa-aqua-hexa-cobalt)
_symmetry_cell_setting           tetragonal
_symmetry_space_group_name_H-M   'I 4/m'
_symmetry_Int_Tables_number      87
_space_group_name_Hall           '-I 4'
loop_
_symmetry_equiv_pos_site_id
_symmetry_equiv_pos_as_xyz
1 x,y,z
2 -x,-y,z
3 -y,x,z
4 y,-x,z
5 1/2+x,1/2+y,1/2+z
6 1/2-x,1/2-y,1/2+z
7 1/2-y,1/2+x,1/2+z
8 1/2+y,1/2-x,1/2+z
9 -x,-y,-z
10 x,y,-z
11 y,-x,-z
12 -y,x,-z
13 1/2-x,1/2-y,1/2-z
14 1/2+x,1/2+y,1/2-z
15 1/2+y,1/2-x,1/2-z
16 1/2-y,1/2+x,1/2-z
_cell_length_a                   29.395(4)
_cell_length_b                   29.395(4)
_cell_length_c                   41.638(8)
_cell_angle_alpha                90
_cell_angle_beta                 90
_cell_angle_gamma                90
_cell_volume                     35978
_exptl_crystal_colour            green
_exptl_crystal_description       block
_cell_formula_units_Z            8
loop_
_atom_site_label
_atom_site_type_symbol
_atom_site_fract_x
_atom_site_fract_y
_atom_site_fract_z
_atom_site_U_iso_or_equiv
_atom_site_thermal_displace_type
Co1 Co -0.36563(7) -0.02208(7) 0.5000 0.0513 Uani
Co2 Co -0.26686(7) -0.01883(8) 0.5000 0.0547 Uani
Co3 Co -0.64339(5) -0.37607(5) 0.86547(4) 0.0558 Uani
Co4 Co -0.69461(5) -0.32783(5) 0.81652(4) 0.0525 Uani
O1 O -0.5978(2) -0.3542(3) 0.83289(18) 0.0860 Uani
O2 O -0.6353(2) -0.3174(3) 0.79415(18) 0.0740 Uani
O3 O -0.3943(2) -0.3076(2) 0.80182(19) 0.0777 Uani
O4 O -0.4327(2) -0.3482(3) 0.83885(18) 0.0810 Uani
O5 O -0.7580(2) -0.1514(3) 0.6512(2) 0.0827 Uani
O6 O -0.7957(3) -0.1140(2) 0.6137(2) 0.0863 Uani
O7 O -0.2280(2) -0.1853(3) 0.65736(18) 0.0733 Uani
O8 O -0.1893(2) -0.1463(3) 0.6194(2) 0.0850 Uani
O9 O -0.3469(3) -0.0680(3) 0.53318(17) 0.0830 Uani
O10 O -0.2695(3) -0.0661(3) 0.53391(19) 0.0857 Uani
O11 O -0.6365(3) -0.0262(3) 0.53370(17) 0.0777 Uani
O12 O -0.7132(3) -0.0267(3) 0.53373(17) 0.0810 Uani
O13 O -0.5964(3) -0.3939(3) 0.89840(19) 0.0937 Uani
O14 O -0.7414(3) -0.3074(3) 0.7818(2) 0.1017 Uani
O15 O -0.4322(4) -0.0366(4) 0.5082(3) 0.0630 Uiso
O16 O -0.1977(4) -0.0045(4) 0.5000 0.1063 Uani
C1 C -0.2690(3) -0.1247(4) 0.5864(2) 0.0643 Uani
H1 H -0.2412 -0.1120 0.5789 0.0770 Uiso
C2 C -0.2685(3) -0.1538(4) 0.6128(3) 0.0737 Uani
C3 C -0.3085(3) -0.1140(4) 0.5711(2) 0.0663 Uani
C4 C -0.7602(4) -0.1280(4) 0.6261(3) 0.0703 Uani
C5 C -0.6756(5) -0.0394(4) 0.5438(3) 0.0737 Uani
C6 C -0.7163(3) -0.0877(3) 0.5829(3) 0.0617 Uani
H2 H -0.7438 -0.0758 0.5745 0.0740 Uiso
C7 C -0.6756(4) -0.0754(4) 0.5702(3) 0.0707 Uani
C8 C -0.7171(3) -0.1181(4) 0.6086(3) 0.0730 Uani
C9 C -0.4315(4) -0.3247(4) 0.8135(3) 0.0713 Uani
C10 C -0.6004(4) -0.3317(4) 0.8070(3) 0.0693 Uani
C11 C -0.5140(3) -0.3286(3) 0.8088(3) 0.0647 Uani
H3 H -0.5147 -0.3429 0.8292 0.0780 Uiso
C12 C -0.5550(3) -0.3197(4) 0.7922(3) 0.0780 Uani
C13 C -0.4732(3) -0.3166(4) 0.7953(3) 0.0660 Uani
C14 C -0.2253(4) -0.1612(4) 0.6313(3) 0.0743 Uani
C15 C -0.3057(6) -0.0788(4) 0.5445(3) 0.0820 Uani
C16 C -0.3102(8) -0.1852(10) 0.6183(6) 0.0830 Uiso
H4 H -0.3097 -0.2107 0.6322 0.1000 Uiso
C17 C -0.3491(6) -0.1409(7) 0.5774(5) 0.0450 Uiso
H5 H -0.3759 -0.1363 0.5650 0.0540 Uiso
C18 C -0.6361(6) -0.1010(6) 0.5771(4) 0.0420 Uiso
H6 H -0.6092 -0.0969 0.5648 0.0510 Uiso
C19 C -0.6772(7) -0.1294(7) 0.6257(6) 0.0610 Uiso
H7 H -0.6751 -0.1348 0.6482 0.0730 Uiso
C20 C -0.5532(6) -0.3071(7) 0.7592(5) 0.0510 Uiso
H8 H -0.5802 -0.3051 0.7467 0.0610 Uiso
C21 C -0.4724(7) -0.3041(7) 0.7619(5) 0.0520 Uiso
H9 H -0.4442 -0.3000 0.7511 0.0620 Uiso
C22 C -0.3481(5) -0.1725(7) 0.6010(4) 0.0450 Uiso
C23 C -0.6376(5) -0.1314(6) 0.6015(4) 0.0420 Uiso
C24 C -0.5117(6) -0.2980(7) 0.7458(4) 0.0480 Uiso
O17 O -0.3871(5) -0.1906(5) 0.6138(4) 0.0780 Uiso
O18 O -0.5156(6) -0.2796(7) 0.7155(4) 0.1030 Uiso
O19 O -0.5962(5) -0.1523(6) 0.6090(4) 0.0870 Uiso
C25 C -0.4300(7) -0.1793(12) 0.5998(7) 0.1430 Uiso
H10 H -0.4342 -0.1944 0.5788 0.1710 Uiso
H11 H -0.4336 -0.1461 0.5972 0.1710 Uiso
C26 C -0.4758(8) -0.2694(10) 0.6979(6) 0.1250 Uiso
H12 H -0.4618 -0.2980 0.6900 0.1490 Uiso
H13 H -0.4535 -0.2540 0.7120 0.1490 Uiso
C27 C -0.5948(9) -0.1926(9) 0.6284(7) 0.1350 Uiso
H14 H -0.6078 -0.2188 0.6166 0.1620 Uiso
H15 H -0.6124 -0.1882 0.6485 0.1620 Uiso
C28 C -0.4871(11) -0.2391(8) 0.6697(6) 0.1210 Uiso
C29 C -0.5316(10) -0.2290(8) 0.6640(6) 0.1070 Uiso
H16 H -0.5543 -0.2401 0.6782 0.1280 Uiso
C30 C -0.5104(10) -0.1858(10) 0.6178(8) 0.1150 Uiso
H17 H -0.5168 -0.1666 0.6000 0.1380 Uiso
C31 C -0.5455(8) -0.2010(8) 0.6360(7) 0.1040 Uiso
C32 C -0.4620(9) -0.1980(10) 0.6248(6) 0.0970 Uiso
C33 C -0.4527(11) -0.2247(10) 0.6485(7) 0.1170 Uiso
H18 H -0.4223 -0.2347 0.6517 0.1410 Uiso
Co1A Co -0.63437(7) 0.02208(7) 0.5000 0.0513 Uani
Co2A Co -0.73314(7) 0.01883(8) 0.5000 0.0547 Uani
Co3A Co -0.35661(5) 0.37607(5) 0.86547(4) 0.0558 Uani
Co3C Co -0.37607(5) -0.35661(5) 0.86547(4) 0.0558 Uani
Co3L Co -0.85661(5) -0.12393(5) 0.63453(4) 0.0558 Uani
Co3O Co -0.12393(5) -0.14339(5) 0.63453(4) 0.0558 Uani
Co3B Co -0.62393(5) 0.35661(5) 0.86547(4) 0.0558 Uani
Co3M Co -0.14339(5) 0.12393(5) 0.63453(4) 0.0558 Uani
Co3N Co -0.87607(5) 0.14339(5) 0.63453(4) 0.0558 Uani
Co4A Co -0.30539(5) 0.32783(5) 0.81652(4) 0.0525 Uani
Co4C Co -0.32783(5) -0.30539(5) 0.81652(4) 0.0525 Uani
Co4L Co -0.80539(5) -0.17217(5) 0.68348(4) 0.0525 Uani
Co4O Co -0.17217(5) -0.19461(5) 0.68348(4) 0.0525 Uani
Co4B Co -0.67217(5) 0.30539(5) 0.81652(4) 0.0525 Uani
Co4M Co -0.19461(5) 0.17217(5) 0.68348(4) 0.0525 Uani
Co4N Co -0.82783(5) 0.19461(5) 0.68348(4) 0.0525 Uani
O1A O -0.4022(2) 0.3542(3) 0.83289(18) 0.0860 Uani
O2A O -0.3647(2) 0.3174(3) 0.79415(18) 0.0740 Uani
O3A O -0.6057(2) 0.3076(2) 0.80182(19) 0.0777 Uani
O3B O -0.6924(2) -0.3943(2) 0.80182(19) 0.0777 Uani
O3C O -0.3076(2) 0.3943(2) 0.80182(19) 0.0777 Uani
O4A O -0.5673(2) 0.3482(3) 0.83885(18) 0.0810 Uani
O4B O -0.6518(3) -0.4327(2) 0.83885(18) 0.0810 Uani
O4C O -0.3482(3) 0.4327(2) 0.83885(18) 0.0810 Uani
O5A O -0.2420(2) 0.1514(3) 0.6512(2) 0.0827 Uani
O5L O -0.7420(2) -0.3486(3) 0.8488(2) 0.0827 Uani
O5M O -0.2580(2) 0.3486(3) 0.8488(2) 0.0827 Uani
O6A O -0.2043(3) 0.1140(2) 0.6137(2) 0.0863 Uani
O6L O -0.7043(3) -0.3860(2) 0.8863(2) 0.0863 Uani
O6M O -0.2957(3) 0.3860(2) 0.8863(2) 0.0863 Uani
O7A O -0.7720(2) 0.1853(3) 0.65736(18) 0.0733 Uani
O7N O -0.6853(3) -0.2720(2) 0.84264(18) 0.0733 Uani
O7O O -0.3147(3) 0.2720(2) 0.84264(18) 0.0733 Uani
O8A O -0.8107(2) 0.1463(3) 0.6194(2) 0.0850 Uani
O8N O -0.6463(3) -0.3107(2) 0.8806(2) 0.0850 Uani
O8O O -0.3537(3) 0.3107(2) 0.8806(2) 0.0850 Uani
O9A O -0.6531(3) 0.0680(3) 0.53318(17) 0.0830 Uani
O9I O -0.3469(3) -0.0680(3) 0.46682(17) 0.0830 Uani
O10A O -0.7305(3) 0.0661(3) 0.53391(19) 0.0857 Uani
O10I O -0.2695(3) -0.0661(3) 0.46609(19) 0.0857 Uani
O11A O -0.3635(3) 0.0262(3) 0.53370(17) 0.0777 Uani
O11H O -0.3635(3) 0.0262(3) 0.46630(17) 0.0777 Uani
O12A O -0.2868(3) 0.0267(3) 0.53373(17) 0.0810 Uani
O12H O -0.2868(3) 0.0267(3) 0.46627(17) 0.0810 Uani
O13A O -0.4036(3) 0.3939(3) 0.89840(19) 0.0937 Uani
O14A O -0.2586(3) 0.3074(3) 0.7818(2) 0.1017 Uani
O15I O -0.4322(4) -0.0366(4) 0.4918(3) 0.0630 Uiso
C1A C -0.7310(3) 0.1247(4) 0.5864(2) 0.0643 Uani
H1A H -0.7588 0.1120 0.5789 0.0770 Uiso
C2A C -0.7315(3) 0.1538(4) 0.6128(3) 0.0737 Uani
C3A C -0.6915(3) 0.1140(4) 0.5711(2) 0.0663 Uani
C4A C -0.2398(4) 0.1280(4) 0.6261(3) 0.0703 Uani
C5A C -0.3244(5) 0.0394(4) 0.5438(3) 0.0737 Uani
C6A C -0.2837(3) 0.0877(3) 0.5829(3) 0.0617 Uani
H2A H -0.2562 0.0758 0.5745 0.0740 Uiso
C7A C -0.3244(4) 0.0754(4) 0.5702(3) 0.0707 Uani
C8A C -0.2829(3) 0.1181(4) 0.6086(3) 0.0730 Uani
C9A C -0.5685(4) 0.3247(4) 0.8135(3) 0.0713 Uani
C10A C -0.3996(4) 0.3317(4) 0.8070(3) 0.0693 Uani
C11A C -0.4860(3) 0.3286(3) 0.8088(3) 0.0647 Uani
H3A H -0.4853 0.3429 0.8292 0.0780 Uiso
C12A C -0.4450(3) 0.3197(4) 0.7922(3) 0.0780 Uani
C13A C -0.5268(3) 0.3166(4) 0.7953(3) 0.0660 Uani
C14A C -0.7747(4) 0.1612(4) 0.6313(3) 0.0743 Uani
C15A C -0.6943(6) 0.0788(4) 0.5445(3) 0.0820 Uani
C16A C -0.6898(8) 0.1852(10) 0.6183(6) 0.0830 Uiso
H4A H -0.6903 0.2107 0.6322 0.1000 Uiso
C17A C -0.6509(6) 0.1409(7) 0.5774(5) 0.0450 Uiso
H5A H -0.6241 0.1363 0.5650 0.0540 Uiso
C18A C -0.3639(6) 0.1010(6) 0.5771(4) 0.0420 Uiso
H6A H -0.3908 0.0969 0.5648 0.0510 Uiso
C19A C -0.3228(7) 0.1294(7) 0.6257(6) 0.0610 Uiso
H7A H -0.3249 0.1348 0.6482 0.0730 Uiso
C20A C -0.4468(6) 0.3071(7) 0.7592(5) 0.0510 Uiso
H8A H -0.4198 0.3051 0.7467 0.0610 Uiso
C21A C -0.5276(7) 0.3041(7) 0.7619(5) 0.0520 Uiso
H9A H -0.5558 0.3000 0.7511 0.0620 Uiso
C22A C -0.6519(5) 0.1725(7) 0.6010(4) 0.0450 Uiso
C23A C -0.3624(5) 0.1314(6) 0.6015(4) 0.0420 Uiso
C24A C -0.4883(6) 0.2980(7) 0.7458(4) 0.0480 Uiso
O17A O -0.6129(5) 0.1906(5) 0.6138(4) 0.0780 Uiso
O18A O -0.4844(6) 0.2796(7) 0.7155(4) 0.1030 Uiso
O19A O -0.4038(5) 0.1523(6) 0.6090(4) 0.0870 Uiso
C25A C -0.5700(7) 0.1793(12) 0.5998(7) 0.1430 Uiso
H10A H -0.5658 0.1944 0.5788 0.1710 Uiso
H11A H -0.5664 0.1461 0.5972 0.1710 Uiso
C26A C -0.5242(8) 0.2694(10) 0.6979(6) 0.1250 Uiso
H12A H -0.5382 0.2980 0.6900 0.1490 Uiso
H13A H -0.5465 0.2540 0.7120 0.1490 Uiso
C27A C -0.4052(9) 0.1926(9) 0.6284(7) 0.1350 Uiso
H14A H -0.3922 0.2188 0.6166 0.1620 Uiso
H15A H -0.3876 0.1882 0.6485 0.1620 Uiso
C28A C -0.5129(11) 0.2391(8) 0.6697(6) 0.1210 Uiso
C29A C -0.4684(10) 0.2290(8) 0.6640(6) 0.1070 Uiso
H16A H -0.4457 0.2401 0.6782 0.1280 Uiso
C30A C -0.4896(10) 0.1858(10) 0.6178(8) 0.1150 Uiso
H17A H -0.4832 0.1666 0.6000 0.1380 Uiso
C31A C -0.4545(8) 0.2010(8) 0.6360(7) 0.1040 Uiso
C32A C -0.5380(9) 0.1980(10) 0.6248(6) 0.0970 Uiso
C33A C -0.5473(11) 0.2247(10) 0.6485(7) 0.1170 Uiso
H18A H -0.5777 0.2347 0.6517 0.1410 Uiso
C34? C -0.6913(6) 0.1656(7) 0.6262(5) 0.0350 Uiso
H19? H -0.6909 0.1828 0.6455 0.0420 Uiso
C35? C -0.6524(8) 0.1227(9) 0.5860(6) 0.0580 Uiso
H20? H -0.6252 0.1082 0.5790 0.0700 Uiso
C36? C -0.3659(7) 0.0820(7) 0.5873(5) 0.0460 Uiso
H21? H -0.3936 0.0689 0.5800 0.0560 Uiso
C37? C -0.3204(7) 0.1447(8) 0.6154(5) 0.0540 Uiso
H22? H -0.3214 0.1764 0.6199 0.0650 Uiso
C38? C -0.4480(8) 0.2871(8) 0.7686(5) 0.0570 Uiso
H23? H -0.4213 0.2718 0.7617 0.0680 Uiso
C39? C -0.5268(7) 0.2853(8) 0.7711(5) 0.0440 Uiso
H24? H -0.5539 0.2697 0.7654 0.0530 Uiso
C40? C -0.6508(6) 0.1528(7) 0.6120(5) 0.0460 Uiso
C41? C -0.3646(7) 0.1071(8) 0.6136(5) 0.0580 Uiso
C42? C -0.4876(6) 0.2769(7) 0.7555(4) 0.0390 Uiso
O20? O -0.6126(6) 0.1696(8) 0.6276(5) 0.1040 Uiso
O21? O -0.4841(6) 0.2522(7) 0.7275(4) 0.0970 Uiso
O22? O -0.4054(7) 0.1259(8) 0.6242(6) 0.1230 Uiso
C43? C -0.5710(7) 0.1560(11) 0.6130(7) 0.1170 Uiso
H25? H -0.5682 0.1696 0.5914 0.1400 Uiso
H26? H -0.5698 0.1225 0.6110 0.1400 Uiso
C44? C -0.5247(8) 0.2361(10) 0.7126(6) 0.1060 Uiso
H27? H -0.5450 0.2622 0.7081 0.1280 Uiso
H28? H -0.5407 0.2153 0.7274 0.1280 Uiso
C45? C -0.4066(9) 0.1673(9) 0.6424(8) 0.1210 Uiso
H29? H -0.3936 0.1922 0.6293 0.1450 Uiso
H30? H -0.3875 0.1638 0.6618 0.1450 Uiso
C46? C -0.5143(11) 0.2115(8) 0.6817(6) 0.0980 Uiso
C47? C -0.4691(10) 0.2024(8) 0.6766(7) 0.0950 Uiso
H31? H -0.4476 0.2134 0.6917 0.1140 Uiso
C48? C -0.4849(11) 0.1624(11) 0.6317(8) 0.1090 Uiso
H32? H -0.4749 0.1431 0.6148 0.1310 Uiso
C49? C -0.4543(8) 0.1794(8) 0.6521(6) 0.0770 Uiso
C50? C -0.5333(8) 0.1727(9) 0.6345(6) 0.0770 Uiso
C51? C -0.5436(9) 0.1992(9) 0.6595(6) 0.0760 Uiso
H33? H -0.5740 0.2098 0.6614 0.0920 Uiso
N1? N -0.0272(7) 0.1416(6) 0.5850(6) 0.1510 Uiso
C52? C -0.0658(6) 0.1361(7) 0.6008(6) 0.1170 Uiso
H34? H -0.0719 0.1607 0.6149 0.1400 Uiso
C53? C 0.0003(7) 0.1812(6) 0.5874(6) 0.1170 Uiso
H35? H 0.0278 0.1773 0.5744 0.1750 Uiso
H36? H 0.0088 0.1860 0.6099 0.1750 Uiso
H37? H -0.0168 0.2076 0.5796 0.1750 Uiso
C54? C -0.0114(5) 0.1061(4) 0.5637(4) 0.1140 Uiso
H38? H 0.0178 0.1150 0.5543 0.1710 Uiso
H39? H -0.0338 0.1013 0.5466 0.1710 Uiso
H40? H -0.0075 0.0778 0.5759 0.1710 Uiso
N2? N -0.5038(5) -0.0682(4) 0.4961(4) 0.2000 Uiso
C55? C -0.4618(5) -0.0610(4) 0.4897(4) 0.2000 Uiso
C56? C -0.5229(5) -0.0768(4) 0.5258(4) 0.2000 Uiso
loop_
_atom_site_aniso_label
_atom_site_aniso_U_11
_atom_site_aniso_U_22
_atom_site_aniso_U_33
_atom_site_aniso_U_23
_atom_site_aniso_U_13
_atom_site_aniso_U_12
Co1 0.0386(12) 0.0656(15) 0.0497(13) 0.000 0.000 -0.0014(10)
Co2 0.0419(13) 0.0670(15) 0.0552(14) 0.000 0.000 -0.0012(11)
Co3 0.0545 0.0512 0.0618 0.0129 -0.0133 -0.0057
Co4 0.0493 0.049 0.0593 0.0127 -0.0139 -0.0045
O1 0.073 0.122 0.063 0.012 0.008 -0.039
O2 0.039 0.093 0.09 0.014 -0.004 -0.014
O3 0.051 0.081 0.101 0.008 -0.023 0.019
O4 0.067 0.109 0.067 0.024 -0.014 0.026
O5 0.069 0.085 0.094 0.011 0.016 -0.015
O6 0.053 0.069 0.137 0.025 0.029 0.001
O7 0.059 0.083 0.078 0.018 -0.008 0.022
O8 0.039 0.076 0.14 0.026 -0.011 -0.003
O9 0.104 0.093 0.052 0.023 -0.002 0.014
O10 0.09 0.084 0.083 0.031 0.037 -0.005
O11 0.088 0.078 0.067 0.027 0.016 -0.002
O12 0.086 0.098 0.059 0.026 -0.015 0.03
O13 0.066 0.123 0.092 0.014 -0.041 0.028
O14 0.109 0.068 0.128 0.059 -0.014 -0.03
O16 0.053(7) 0.081(8) 0.185(13) 0.000 0.000 -0.012(6)
C1 0.053 0.077 0.063 0.027 0.017 0.003
C2 0.033 0.096 0.092 0.029 -0.002 0.006
C3 0.047 0.109 0.043 0.037 0.004 0.014
C4 0.044 0.06 0.107 0.01 0.014 0.006
C5 0.104 0.06 0.057 0.018 -0.011 0.006
C6 0.038 0.072 0.075 0.017 -0.003 0.006
C7 0.06 0.087 0.065 0.035 0.012 0.014
C8 0.038 0.071 0.11 0.034 0.003 0.005
C9 0.04 0.09 0.084 0.02 0.003 0.01
C10 0.05 0.079 0.079 0.015 0.005 -0.023
C11 0.057 0.067 0.07 0.022 -0.004 0.002
C12 0.045 0.116 0.073 0.042 -0.009 -0.009
C13 0.041 0.089 0.068 0.03 -0.005 -0.006
C14 0.073 0.064 0.086 0.013 -0.012 0.027
C15 0.127 0.071 0.048 0.014 0.005 0.032
Co1A 0.0386 0.0656 0.0497 0 0 -0.0014
Co2A 0.0419 0.067 0.0552 0 0 -0.0012
Co3A 0.0545 0.0512 0.0618 -0.0129 0.0133 -0.0057
Co3C 0.0512 0.0545 0.0618 0.0133 0.0129 0.0057
Co3L 0.0545 0.0512 0.0618 0.0129 -0.0133 -0.0057
Co3O 0.0512 0.0545 0.0618 0.0133 0.0129 0.0057
Co3B 0.0512 0.0545 0.0618 -0.0133 -0.0129 0.0057
Co3M 0.0545(10) 0.0512(10) 0.0618(10) -0.0129(8) 0.0133(8) -0.0057(7)
Co3N 0.0512 0.0545 0.0618 -0.0133 -0.0129 0.0057
Co4A 0.0493 0.049 0.0593 -0.0127 0.0139 -0.0045
Co4C 0.049 0.0493 0.0593 0.0139 0.0127 0.0045
Co4L 0.0493 0.049 0.0593 0.0127 -0.0139 -0.0045
Co4O 0.049 0.0493 0.0593 0.0139 0.0127 0.0045
Co4B 0.049 0.0493 0.0593 -0.0139 -0.0127 0.0045
Co4M 0.0493(9) 0.0490(9) 0.0593(10) -0.0127(8) 0.0139(8) -0.0045(7)
Co4N 0.049 0.0493 0.0593 -0.0139 -0.0127 0.0045
O1A 0.073(5) 0.122(7) 0.063(5) -0.012(5) -0.008(4) -0.039(5)
O2A 0.039(4) 0.093(6) 0.090(6) -0.014(4) 0.004(4) -0.014(4)
O3A 0.051(5) 0.081(5) 0.101(6) -0.008(4) 0.023(4) 0.019(4)
O3B 0.081 0.051 0.101 -0.023 -0.008 -0.019
O3C 0.081 0.051 0.101 0.023 0.008 -0.019
O4A 0.067(5) 0.109(6) 0.067(5) -0.024(5) 0.014(4) 0.026(4)
O4B 0.109 0.067 0.067 -0.014 -0.024 -0.026
O4C 0.109 0.067 0.067 0.014 0.024 -0.026
O5A 0.069(5) 0.085(6) 0.094(6) -0.011(5) -0.016(5) -0.015(4)
O5L 0.069 0.085 0.094 0.011 0.016 -0.015
O5M 0.069 0.085 0.094 -0.011 -0.016 -0.015
O6A 0.053(5) 0.069(5) 0.137(7) -0.025(5) -0.029(5) 0.001(4)
O6L 0.053 0.069 0.137 0.025 0.029 0.001
O6M 0.053 0.069 0.137 -0.025 -0.029 0.001
O7A 0.059(5) 0.083(5) 0.078(5) -0.018(4) 0.008(4) 0.022(4)
O7N 0.083 0.059 0.078 -0.008 -0.018 -0.022
O7O 0.083 0.059 0.078 0.008 0.018 -0.022
O8A 0.039(4) 0.076(5) 0.140(7) -0.026(5) 0.011(5) -0.003(4)
O8N 0.076 0.039 0.14 -0.011 -0.026 0.003
O8O 0.076 0.039 0.14 0.011 0.026 0.003
O9A 0.104(6) 0.093(6) 0.052(5) -0.023(4) 0.002(4) 0.014(5)
O9I 0.104 0.093 0.052 -0.023 0.002 0.014
O10A 0.090(6) 0.084(6) 0.083(6) -0.031(5) -0.037(5) -0.005(5)
O10I 0.09 0.084 0.083 -0.031 -0.037 -0.005
O11A 0.088(6) 0.078(5) 0.067(5) -0.027(4) -0.016(4) -0.002(4)
O11H 0.088 0.078 0.067 0.027 0.016 -0.002
O12A 0.086(6) 0.098(6) 0.059(5) -0.026(4) 0.015(4) 0.030(5)
O12H 0.086 0.098 0.059 0.026 -0.015 0.03
O13A 0.066 0.123 0.092 -0.014 0.041 0.028
O14A 0.109 0.068 0.128 -0.059 0.014 -0.03
C1A 0.053(7) 0.077(7) 0.063(7) -0.027(6) -0.017(6) 0.003(6)
C2A 0.033(6) 0.096(9) 0.092(9) -0.029(7) 0.002(6) 0.006(6)
C3A 0.047(6) 0.109(9) 0.043(6) -0.037(6) -0.004(5) 0.014(6)
C4A 0.044(7) 0.060(7) 0.107(10) -0.010(7) -0.014(7) 0.006(6)
C5A 0.104(11) 0.060(7) 0.057(7) -0.018(6) 0.011(7) 0.006(7)
C6A 0.038(6) 0.072(7) 0.075(7) -0.017(6) 0.003(5) 0.006(5)
C7A 0.060(7) 0.087(8) 0.065(7) -0.035(6) -0.012(6) 0.014(6)
C8A 0.038(6) 0.071(7) 0.110(9) -0.034(7) -0.003(6) 0.005(5)
C9A 0.040(7) 0.090(9) 0.084(9) -0.020(7) -0.003(6) 0.010(6)
C10A 0.050(7) 0.079(8) 0.079(9) -0.015(7) -0.005(6) -0.023(6)
C11A 0.057(7) 0.067(7) 0.070(7) -0.022(6) 0.004(6) 0.002(6)
C12A 0.045(7) 0.116(10) 0.073(8) -0.042(7) 0.009(6) -0.009(6)
C13A 0.041(6) 0.089(8) 0.068(7) -0.030(6) 0.005(5) -0.006(6)
C14A 0.073(9) 0.064(8) 0.086(9) -0.013(7) 0.012(7) 0.027(7)
C15A 0.127(12) 0.071(8) 0.048(7) -0.014(6) -0.005(8) 0.032(8)
loop_
_geom_bond_atom_site_label_1
_geom_bond_atom_site_label_2
_geom_bond_site_symmetry_1
_geom_bond_site_symmetry_2
Co1 O9 1_555 1_555
Co2 O10 1_555 1_555
Co3 O1 1_555 1_555
Co4 O2 1_555 1_555
O1 C10 1_555 1_555
O2 C10 1_555 1_555
O3 C9 1_555 1_555
O4 C9 1_555 1_555
O5 C4 1_555 1_555
O6 C4 1_555 1_555
O7 C14 1_555 1_555
O8 C14 1_555 1_555
O9 C15 1_555 1_555
O10 C15 1_555 1_555
O11 C5 1_555 1_555
O12 C5 1_555 1_555
O13 Co3 1_555 1_555
O14 Co4 1_555 1_555
O15 Co1 1_555 1_555
O16 Co2 1_555 1_555
C1 H1 1_555 1_555
C2 C1 1_555 1_555
C3 C1 1_555 1_555
C4 C8 1_555 1_555
C5 C7 1_555 1_555
C6 H2 1_555 1_555
C7 C6 1_555 1_555
C8 C6 1_555 1_555
C9 C13 1_555 1_555
C10 C12 1_555 1_555
C11 H3 1_555 1_555
C12 C11 1_555 1_555
C13 C11 1_555 1_555
C14 C2 1_555 1_555
C15 C3 1_555 1_555
C16 C2 1_555 1_555
H4 C16 1_555 1_555
C17 C3 1_555 1_555
H5 C17 1_555 1_555
C18 C7 1_555 1_555
H6 C18 1_555 1_555
C19 C8 1_555 1_555
H7 C19 1_555 1_555
C20 C12 1_555 1_555
H8 C20 1_555 1_555
C21 C13 1_555 1_555
H9 C21 1_555 1_555
C22 C16 1_555 1_555
C23 C18 1_555 1_555
C24 C20 1_555 1_555
O17 C22 1_555 1_555
O18 C24 1_555 1_555
O19 C23 1_555 1_555
C25 O17 1_555 1_555
H10 C25 1_555 1_555
H11 C25 1_555 1_555
C26 O18 1_555 1_555
H12 C26 1_555 1_555
H13 C26 1_555 1_555
C27 O19 1_555 1_555
H14 C27 1_555 1_555
H15 C27 1_555 1_555
C28 C26 1_555 1_555
C29 C28 1_555 1_555
H16 C29 1_555 1_555
C30 H17 1_555 1_555
C31 C27 1_555 1_555
C32 C25 1_555 1_555
C33 C28 1_555 1_555
H18 C33 1_555 1_555
Co1A O11 1_555 1_555
Co2A O12 1_555 1_555
Co3A O1A 1_555 1_555
Co3C O4 1_555 1_555
Co3L O6 1_555 1_555
Co3O O8 1_555 1_555
Co3B O4A 1_555 1_555
Co3M O6A 1_555 1_555
Co3N O8A 1_555 1_555
Co4A O2A 1_555 1_555
Co4C O3 1_555 1_555
Co4L O5 1_555 1_555
Co4O O7 1_555 1_555
Co4B O3A 1_555 1_555
Co4M O5A 1_555 1_555
Co4N O7A 1_555 1_555
O1A C10A 1_555 1_555
O2A C10A 1_555 1_555
O3A C9A 1_555 1_555
O3B Co4 1_555 1_555
O3C Co4A 1_555 1_555
O4A C9A 1_555 1_555
O4B Co3 1_555 1_555
O4C Co3A 1_555 1_555
O5A C4A 1_555 1_555
O5L Co4 1_555 1_555
O5M Co4A 1_555 1_555
O6A C4A 1_555 1_555
O6L Co3 1_555 1_555
O6M Co3A 1_555 1_555
O7A C14A 1_555 1_555
O7N Co4 1_555 1_555
O7O Co4A 1_555 1_555
O8A C14A 1_555 1_555
O8N Co3 1_555 1_555
O8O Co3A 1_555 1_555
O9A Co1A 1_555 1_555
O9I Co1 1_555 1_555
O10A Co2A 1_555 1_555
O10I Co2 1_555 1_555
O11A Co1 1_555 1_555
O11H Co1 1_555 1_555
O12A Co2 1_555 1_555
O12H Co2 1_555 1_555
O13A Co3A 1_555 1_555
O14A Co4A 1_555 1_555
O15I Co1 1_555 1_555
C1A H1A 1_555 1_555
C2A C1A 1_555 1_555
C3A C1A 1_555 1_555
C4A C8A 1_555 1_555
C5A O11A 1_555 1_555
C6A H2A 1_555 1_555
C7A C5A 1_555 1_555
C8A C6A 1_555 1_555
C9A C13A 1_555 1_555
C10A C12A 1_555 1_555
C11A H3A 1_555 1_555
C12A C11A 1_555 1_555
C13A C11A 1_555 1_555
C14A C2A 1_555 1_555
C15A O9A 1_555 1_555
C16A C2A 1_555 1_555
H4A C16A 1_555 1_555
C17A C3A 1_555 1_555
H5A C17A 1_555 1_555
C18A C7A 1_555 1_555
H6A C18A 1_555 1_555
C19A C8A 1_555 1_555
H7A C19A 1_555 1_555
C20A C12A 1_555 1_555
H8A C20A 1_555 1_555
C21A C13A 1_555 1_555
H9A C21A 1_555 1_555
C22A C16A 1_555 1_555
C23A C18A 1_555 1_555
C24A C20A 1_555 1_555
O17A C22A 1_555 1_555
O18A C24A 1_555 1_555
O19A C23A 1_555 1_555
C25A O17A 1_555 1_555
H10A C25A 1_555 1_555
H11A C25A 1_555 1_555
C26A O18A 1_555 1_555
H12A C26A 1_555 1_555
H13A C26A 1_555 1_555
C27A O19A 1_555 1_555
H14A C27A 1_555 1_555
H15A C27A 1_555 1_555
C28A C26A 1_555 1_555
C29A C28A 1_555 1_555
H16A C29A 1_555 1_555
C30A H17A 1_555 1_555
C31A C27A 1_555 1_555
C32A C25A 1_555 1_555
C33A C28A 1_555 1_555
H18A C33A 1_555 1_555
O15 O15I 1_555 1_555
C17 C22 1_555 1_555
C19 C23 1_555 1_555
C21 C24 1_555 1_555
C29 C31 1_555 1_555
C30 C31 1_555 1_555
C30 C32 1_555 1_555
C32 C33 1_555 1_555
O10A C15A 1_555 1_555
O12A C5A 1_555 1_555
C3A C15A 1_555 1_555
C6A C7A 1_555 1_555
C17A C22A 1_555 1_555
C19A C23A 1_555 1_555
C21A C24A 1_555 1_555
C29A C31A 1_555 1_555
C30A C31A 1_555 1_555
C30A C32A 1_555 1_555
C32A C33A 1_555 1_555

#END
