
#######################################################################
#
#                 Cambridge Crystallographic Data Centre
#                                CCDC 
#
#######################################################################
#
# If this CIF has been generated from an entry in the Cambridge 
# Structural Database, then it will include bibliographic, chemical, 
# crystal, experimental, refinement or atomic coordinate data resulting 
# from the CCDC's data processing and validation procedures.
#
#######################################################################

data_ADASIJ
_chemical_formula_moiety         '(C66 H48 Cu6 O36)n'
_chemical_name_systematic        
catena-((\m~12~-5,5',5''-(Benzene-1,3,5-triyltris(methyleneoxy))-tri-isophthalato)-hexa-aqua-hexa-copper)
_symmetry_cell_setting           cubic
_symmetry_space_group_name_H-M   'F m -3'
_symmetry_Int_Tables_number      202
_space_group_name_Hall           '-F 2 2 3'
loop_
_symmetry_equiv_pos_site_id
_symmetry_equiv_pos_as_xyz
1 x,y,z
2 -x,-y,z
3 -x,y,-z
4 x,-y,-z
5 z,x,y
6 z,-x,-y
7 -z,-x,y
8 -z,x,-y
9 y,z,x
10 -y,z,-x
11 y,-z,-x
12 -y,-z,x
13 x,1/2+y,1/2+z
14 -x,1/2-y,1/2+z
15 -x,1/2+y,1/2-z
16 x,1/2-y,1/2-z
17 z,1/2+x,1/2+y
18 z,1/2-x,1/2-y
19 -z,1/2-x,1/2+y
20 -z,1/2+x,1/2-y
21 y,1/2+z,1/2+x
22 -y,1/2+z,1/2-x
23 y,1/2-z,1/2-x
24 -y,1/2-z,1/2+x
25 1/2+x,y,1/2+z
26 1/2-x,-y,1/2+z
27 1/2-x,y,1/2-z
28 1/2+x,-y,1/2-z
29 1/2+z,x,1/2+y
30 1/2+z,-x,1/2-y
31 1/2-z,-x,1/2+y
32 1/2-z,x,1/2-y
33 1/2+y,z,1/2+x
34 1/2-y,z,1/2-x
35 1/2+y,-z,1/2-x
36 1/2-y,-z,1/2+x
37 1/2+x,1/2+y,z
38 1/2-x,1/2-y,z
39 1/2-x,1/2+y,-z
40 1/2+x,1/2-y,-z
41 1/2+z,1/2+x,y
42 1/2+z,1/2-x,-y
43 1/2-z,1/2-x,y
44 1/2-z,1/2+x,-y
45 1/2+y,1/2+z,x
46 1/2-y,1/2+z,-x
47 1/2+y,1/2-z,-x
48 1/2-y,1/2-z,x
49 -x,-y,-z
50 x,y,-z
51 x,-y,z
52 -x,y,z
53 -z,-x,-y
54 -z,x,y
55 z,x,-y
56 z,-x,y
57 -y,-z,-x
58 y,-z,x
59 -y,z,x
60 y,z,-x
61 -x,1/2-y,1/2-z
62 x,1/2+y,1/2-z
63 x,1/2-y,1/2+z
64 -x,1/2+y,1/2+z
65 -z,1/2-x,1/2-y
66 -z,1/2+x,1/2+y
67 z,1/2+x,1/2-y
68 z,1/2-x,1/2+y
69 -y,1/2-z,1/2-x
70 y,1/2-z,1/2+x
71 -y,1/2+z,1/2+x
72 y,1/2+z,1/2-x
73 1/2-x,-y,1/2-z
74 1/2+x,y,1/2-z
75 1/2+x,-y,1/2+z
76 1/2-x,y,1/2+z
77 1/2-z,-x,1/2-y
78 1/2-z,x,1/2+y
79 1/2+z,x,1/2-y
80 1/2+z,-x,1/2+y
81 1/2-y,-z,1/2-x
82 1/2+y,-z,1/2+x
83 1/2-y,z,1/2+x
84 1/2+y,z,1/2-x
85 1/2-x,1/2-y,-z
86 1/2+x,1/2+y,-z
87 1/2+x,1/2-y,z
88 1/2-x,1/2+y,z
89 1/2-z,1/2-x,-y
90 1/2-z,1/2+x,y
91 1/2+z,1/2+x,-y
92 1/2+z,1/2-x,y
93 1/2-y,1/2-z,-x
94 1/2+y,1/2-z,x
95 1/2-y,1/2+z,x
96 1/2+y,1/2+z,-x
_cell_length_a                   41.4795(8)
_cell_length_b                   41.4795(8)
_cell_length_c                   41.4795(8)
_cell_angle_alpha                90
_cell_angle_beta                 90
_cell_angle_gamma                90
_cell_volume                     71367.5
_exptl_crystal_colour            green
_exptl_crystal_description       octahedron
_cell_formula_units_Z            16
loop_
_atom_site_label
_atom_site_type_symbol
_atom_site_fract_x
_atom_site_fract_y
_atom_site_fract_z
Cu1 Cu 0.32039(7) 1.0000 0.31912(6)
Cu2 Cu 0.36500(6) 1.0000 0.36448(5)
O1 O 0.3386(2) 0.96680(19) 0.3839(2)
O2 O 0.2993(2) 0.96980(18) 0.34619(18)
O3 O 0.33748(19) 0.8839(2) 0.46690(18)
O4 O 0.2994(2) 0.8459(3) 0.46690(19)
O5 O 0.2210(3) 0.8879(3) 0.3778(3)
O6 O 0.3987(3) 1.0000 0.4013(3)
O7 O 0.2865(2) 1.0000 0.2789(2)
C1 C 0.2947(2) 0.9314(2) 0.3894(2)
C2 C 0.31039(17) 0.91598(17) 0.41413(12)
H1 H 0.3310 0.9232 0.4210
C3 C 0.2960(2) 0.8898(2) 0.42900(19)
C4 C 0.2662(2) 0.8791(2) 0.41690(18)
H2 H 0.2565 0.8603 0.4255
C5 C 0.2509(3) 0.8961(3) 0.3923(3)
C6 C 0.2640(2) 0.9240(3) 0.3785(2)
H3 H 0.2529 0.9367 0.3631
C7 C 0.3146(2) 0.8724(2) 0.4551(2)
C8 C 0.3089(2) 0.9599(2) 0.3722(3)
C9 C 0.2045(4) 0.8638(4) 0.3916(4)
H4 H 0.1971 0.8699 0.4135
H5 H 0.2179 0.8441 0.3932
C10 C 0.1755(3) 0.8582(3) 0.3689(3)
C11 C 0.1574(4) 0.8316(4) 0.3779(3)
H6 H 0.1626 0.8189 0.3963
Cu1DA Cu 0.18088(6) 0.67961(7) 0.5000
Cu1U Cu 0.0000 0.81912(6) 0.17961(7)
Cu1P Cu 0.31912(6) 0.82039(7) 0.5000
Cu1K Cu 0.0000 0.68088(6) 0.32039(7)
Cu1Z Cu 0.17961(7) 1.0000 0.18088(6)
Cu1Q Cu 0.31912(6) 1.17961(7) 0.5000
Cu1EA Cu 0.18088(6) 1.32039(7) 0.5000
Cu1H Cu 0.0000 1.31912(6) 0.32039(7)
Cu1V Cu 0.0000 1.18088(6) 0.17961(7)
Cu2DA Cu 0.13552(5) 0.63500(6) 0.5000
Cu2U Cu 0.0000 0.86448(5) 0.13500(6)
Cu2P Cu 0.36448(5) 0.86500(6) 0.5000
Cu2K Cu 0.0000 0.63552(5) 0.36500(6)
Cu2Z Cu 0.13500(6) 1.0000 0.13552(5)
Cu2Q Cu 0.36448(5) 1.13500(6) 0.5000
Cu2EA Cu 0.13552(5) 1.36500(6) 0.5000
Cu2H Cu 0.0000 1.36448(5) 0.36500(6)
Cu2V Cu 0.0000 1.13552(5) 0.13500(6)
O1DA O 0.1161(2) 0.6614(2) 0.46680(19)
O1U O 0.03320(19) 0.8839(2) 0.1614(2)
O1XA O 0.3386(2) 1.03320(19) 0.3839(2)
O1YB O 0.1161(2) 1.3386(2) 0.46680(19)
O1PB O 0.03320(19) 1.1161(2) 0.1614(2)
O1XB O 0.1161(2) 0.6614(2) 0.53320(19)
O1SB O -0.03320(19) 0.8839(2) 0.1614(2)
O2DA O 0.15381(18) 0.7007(2) 0.46980(18)
O2U O 0.03020(18) 0.84619(18) 0.2007(2)
O2XA O 0.2993(2) 1.03020(18) 0.34619(18)
O2YB O 0.15381(18) 1.2993(2) 0.46980(18)
O2PB O 0.03020(18) 1.15381(18) 0.2007(2)
O2XB O 0.15381(18) 0.7007(2) 0.53020(18)
O2SB O -0.03020(18) 0.84619(18) 0.2007(2)
O3DA O 0.03310(18) 0.66252(19) 0.3839(2)
O3U O 0.1161(2) 0.96690(18) 0.16252(19)
O3XA O 0.33748(19) 1.1161(2) 0.46690(18)
O3YB O 0.03310(18) 1.33748(19) 0.3839(2)
O3PB O 0.1161(2) 1.03310(18) 0.16252(19)
O3RA O 0.3839(2) 0.96690(18) 0.33748(19)
O3OC O 0.3839(2) 1.03310(18) 0.33748(19)
O3KA O 0.16252(19) 0.6161(2) 0.46690(18)
O3FC O 0.16252(19) 0.6161(2) 0.53310(18)
O3QA O 0.03310(18) 0.83748(19) 0.1161(2)
O3LC O -0.03310(18) 0.83748(19) 0.1161(2)
O4DA O 0.03310(19) 0.7006(2) 0.3459(3)
O4U O 0.1541(3) 0.96690(19) 0.2006(2)
O4XA O 0.2994(2) 1.1541(3) 0.46690(19)
O4YB O 0.03310(19) 1.2994(2) 0.3459(3)
O4PB O 0.1541(3) 1.03310(19) 0.2006(2)
O4RA O 0.3459(3) 0.96690(19) 0.2994(2)
O4OC O 0.3459(3) 1.03310(19) 0.2994(2)
O4KA O 0.2006(2) 0.6541(3) 0.46690(19)
O4FC O 0.2006(2) 0.6541(3) 0.53310(19)
O4QA O 0.03310(19) 0.7994(2) 0.1541(3)
O4LC O -0.03310(19) 0.7994(2) 0.1541(3)
O5DA O 0.1222(3) 0.7790(3) 0.3879(3)
O5U O 0.1121(3) 0.8778(3) 0.2790(3)
O5XA O 0.2210(3) 1.1121(3) 0.3778(3)
O5YB O 0.1222(3) 1.2210(3) 0.3879(3)
O5PB O 0.1121(3) 1.1222(3) 0.2790(3)
O6DA O 0.0987(3) 0.6013(3) 0.5000
O6U O 0.0000 0.9013(3) 0.1013(3)
O7DA O 0.2211(2) 0.7135(2) 0.5000
O7U O 0.0000 0.7789(2) 0.2135(2)
C1DA C 0.1106(2) 0.7053(2) 0.4314(2)
C1U C 0.0686(2) 0.8894(2) 0.2053(2)
C1XA C 0.2947(2) 1.0686(2) 0.3894(2)
C1YB C 0.1106(2) 1.2947(2) 0.4314(2)
C1PB C 0.0686(2) 1.1106(2) 0.2053(2)
C2DA C 0.08587(12) 0.68961(17) 0.41598(17)
C2U C 0.08402(17) 0.91413(12) 0.18961(17)
C2XA C 0.31039(17) 1.08402(17) 0.41413(12)
C2YB C 0.08587(12) 1.31039(17) 0.41598(17)
C2PB C 0.08402(17) 1.08587(12) 0.18961(17)
H1DA H 0.0790 0.6690 0.4232
H1U H 0.0768 0.9210 0.1690
H1XA H 0.3310 1.0768 0.4210
H1YB H 0.0790 1.3310 0.4232
H1PB H 0.0768 1.0790 0.1690
C3DA C 0.07100(19) 0.7040(2) 0.3898(2)
C3U C 0.1102(2) 0.92900(19) 0.2040(2)
C3XA C 0.2960(2) 1.1102(2) 0.42900(19)
C3YB C 0.07100(19) 1.2960(2) 0.3898(2)
C3PB C 0.1102(2) 1.07100(19) 0.2040(2)
C4DA C 0.08310(18) 0.7338(2) 0.3791(2)
C4U C 0.1209(2) 0.91690(18) 0.2338(2)
C4XA C 0.2662(2) 1.1209(2) 0.41690(18)
C4YB C 0.08310(18) 1.2662(2) 0.3791(2)
C4PB C 0.1209(2) 1.08310(18) 0.2338(2)
H2DA H 0.0745 0.7435 0.3603
H2U H 0.1397 0.9255 0.2435
H2XA H 0.2565 1.1397 0.4255
H2YB H 0.0745 1.2565 0.3603
H2PB H 0.1397 1.0745 0.2435
C5DA C 0.1077(3) 0.7491(3) 0.3961(3)
C5U C 0.1039(3) 0.8923(3) 0.2491(3)
C5XA C 0.2509(3) 1.1039(3) 0.3923(3)
C5YB C 0.1077(3) 1.2509(3) 0.3961(3)
C5PB C 0.1039(3) 1.1077(3) 0.2491(3)
C6DA C 0.1215(2) 0.7360(2) 0.4240(3)
C6U C 0.0760(3) 0.8785(2) 0.2360(2)
C6XA C 0.2640(2) 1.0760(3) 0.3785(2)
C6YB C 0.1215(2) 1.2640(2) 0.4240(3)
C6PB C 0.0760(3) 1.1215(2) 0.2360(2)
H3DA H 0.1369 0.7471 0.4367
H3U H 0.0633 0.8631 0.2471
H3XA H 0.2529 1.0633 0.3631
H3YB H 0.1369 1.2529 0.4367
H3PB H 0.0633 1.1369 0.2471
C7DA C 0.0449(2) 0.6854(2) 0.3724(2)
C7U C 0.1276(2) 0.9551(2) 0.1854(2)
C7XA C 0.3146(2) 1.1276(2) 0.4551(2)
C7YB C 0.0449(2) 1.3146(2) 0.3724(2)
C7PB C 0.1276(2) 1.0449(2) 0.1854(2)
C8DA C 0.1278(3) 0.6911(2) 0.4599(2)
C8U C 0.0401(2) 0.8722(3) 0.1911(2)
C8XA C 0.3089(2) 1.0401(2) 0.3722(3)
C8YB C 0.1278(3) 1.3089(2) 0.4599(2)
C8PB C 0.0401(2) 1.1278(3) 0.1911(2)
C9DA C 0.1084(4) 0.7955(4) 0.3638(4)
C9U C 0.1362(4) 0.8916(4) 0.2955(4)
C9XA C 0.2045(4) 1.1362(4) 0.3916(4)
C9YB C 0.1084(4) 1.2045(4) 0.3638(4)
C9PB C 0.1362(4) 1.1084(4) 0.2955(4)
H4DA H 0.0865 0.8029 0.3699
H4U H 0.1301 0.9135 0.3029
H4XA H 0.1971 1.1301 0.4135
H4YB H 0.0865 1.1971 0.3699
H4PB H 0.1301 1.0865 0.3029
H5DA H 0.1068 0.7821 0.3441
H5U H 0.1559 0.8932 0.2821
H5XA H 0.2179 1.1559 0.3932
H5YB H 0.1068 1.2179 0.3441
H5PB H 0.1559 1.1068 0.2821
C10DA C 0.1311(3) 0.8245(3) 0.3582(3)
C10U C 0.1418(3) 0.8689(3) 0.3245(3)
C10XA C 0.1755(3) 1.1418(3) 0.3689(3)
C10YB C 0.1311(3) 1.1755(3) 0.3582(3)
C10PB C 0.1418(3) 1.1311(3) 0.3245(3)
C11DA C 0.1221(3) 0.8426(4) 0.3316(4)
C11U C 0.1684(4) 0.8779(3) 0.3426(4)
C11XA C 0.1574(4) 1.1684(4) 0.3779(3)
C11YB C 0.1221(3) 1.1574(4) 0.3316(4)
C11PB C 0.1684(4) 1.1221(3) 0.3426(4)
H6U H 0.1811 0.8963 0.3374
H6DA H 0.1037 0.8374 0.3189
H6XA H 0.1626 1.1811 0.3963
H6PB H 0.1811 1.1037 0.3374
H6YB H 0.1037 1.1626 0.3189
loop_
_geom_bond_atom_site_label_1
_geom_bond_atom_site_label_2
_geom_bond_site_symmetry_1
_geom_bond_site_symmetry_2
Cu1 O2 1_555 1_555
Cu2 O1 1_555 1_555
O1 C8 1_555 1_555
O2 C8 1_555 1_555
O3 C7 1_555 1_555
O4 C7 1_555 1_555
O5 C5 1_555 1_555
O6 Cu2 1_555 1_555
O7 Cu1 1_555 1_555
C1 C2 1_555 1_555
C2 H1 1_555 1_555
C3 C2 1_555 1_555
C4 C3 1_555 1_555
H2 C4 1_555 1_555
C5 C4 1_555 1_555
C6 C1 1_555 1_555
H3 C6 1_555 1_555
C7 C3 1_555 1_555
C8 C1 1_555 1_555
C9 O5 1_555 1_555
H4 C9 1_555 1_555
H5 C9 1_555 1_555
C10 C9 1_555 1_555
C11 C10 1_555 1_555
H6 C11 1_555 1_555
Cu1DA O2DA 1_555 1_555
Cu1U O2U 1_555 1_555
Cu1P O4 1_555 1_555
Cu1K O4DA 1_555 1_555
Cu1Z O4U 1_555 1_555
Cu1Q O4XA 1_555 1_555
Cu1EA O2YB 1_555 1_555
Cu1H O4YB 1_555 1_555
Cu1V O2PB 1_555 1_555
Cu2DA O1DA 1_555 1_555
Cu2U O1U 1_555 1_555
Cu2P O3 1_555 1_555
Cu2K O3DA 1_555 1_555
Cu2Z O3U 1_555 1_555
Cu2Q O3XA 1_555 1_555
Cu2EA O1YB 1_555 1_555
Cu2H O3YB 1_555 1_555
Cu2V O1PB 1_555 1_555
O1DA C8DA 1_555 1_555
O1U C8U 1_555 1_555
O1XA Cu2 1_555 1_555
O1YB C8YB 1_555 1_555
O1PB C8PB 1_555 1_555
O1XB Cu2DA 1_555 1_555
O1SB Cu2U 1_555 1_555
O2DA C8DA 1_555 1_555
O2U C8U 1_555 1_555
O2XA Cu1 1_555 1_555
O2YB C8YB 1_555 1_555
O2PB C8PB 1_555 1_555
O2XB Cu1DA 1_555 1_555
O2SB Cu1U 1_555 1_555
O3DA C7DA 1_555 1_555
O3U C7U 1_555 1_555
O3XA C7XA 1_555 1_555
O3YB C7YB 1_555 1_555
O3PB Cu2Z 1_555 1_555
O3RA Cu2 1_555 1_555
O3OC Cu2 1_555 1_555
O3KA Cu2DA 1_555 1_555
O3FC Cu2DA 1_555 1_555
O3QA Cu2U 1_555 1_555
O3LC Cu2U 1_555 1_555
O4DA C7DA 1_555 1_555
O4U C7U 1_555 1_555
O4XA C7XA 1_555 1_555
O4YB C7YB 1_555 1_555
O4PB Cu1Z 1_555 1_555
O4RA Cu1 1_555 1_555
O4OC Cu1 1_555 1_555
O4KA Cu1DA 1_555 1_555
O4FC Cu1DA 1_555 1_555
O4QA Cu1U 1_555 1_555
O4LC Cu1U 1_555 1_555
O5DA C5DA 1_555 1_555
O5U C5U 1_555 1_555
O5XA C5XA 1_555 1_555
O5YB C5YB 1_555 1_555
O5PB C5PB 1_555 1_555
O6DA Cu2DA 1_555 1_555
O6U Cu2U 1_555 1_555
O7DA Cu1DA 1_555 1_555
O7U Cu1U 1_555 1_555
C1DA C2DA 1_555 1_555
C1U C2U 1_555 1_555
C1XA C2XA 1_555 1_555
C1YB C2YB 1_555 1_555
C1PB C2PB 1_555 1_555
C2DA H1DA 1_555 1_555
C2U H1U 1_555 1_555
C2XA H1XA 1_555 1_555
C2YB H1YB 1_555 1_555
C2PB H1PB 1_555 1_555
C3DA C2DA 1_555 1_555
C3U C2U 1_555 1_555
C3XA C2XA 1_555 1_555
C3YB C2YB 1_555 1_555
C3PB C2PB 1_555 1_555
C4DA C3DA 1_555 1_555
C4U C3U 1_555 1_555
C4XA C3XA 1_555 1_555
C4YB C3YB 1_555 1_555
C4PB C3PB 1_555 1_555
H2DA C4DA 1_555 1_555
H2U C4U 1_555 1_555
H2XA C4XA 1_555 1_555
H2YB C4YB 1_555 1_555
H2PB C4PB 1_555 1_555
C5DA C4DA 1_555 1_555
C5U C4U 1_555 1_555
C5XA C4XA 1_555 1_555
C5YB C4YB 1_555 1_555
C5PB C4PB 1_555 1_555
C6DA C1DA 1_555 1_555
C6U C1U 1_555 1_555
C6XA C1XA 1_555 1_555
C6YB C1YB 1_555 1_555
C6PB C1PB 1_555 1_555
H3DA C6DA 1_555 1_555
H3U C6U 1_555 1_555
H3XA C6XA 1_555 1_555
H3YB C6YB 1_555 1_555
H3PB C6PB 1_555 1_555
C7DA C3DA 1_555 1_555
C7U C3U 1_555 1_555
C7XA C3XA 1_555 1_555
C7YB C3YB 1_555 1_555
C7PB O3PB 1_555 1_555
C8DA C1DA 1_555 1_555
C8U C1U 1_555 1_555
C8XA O1XA 1_555 1_555
C8YB C1YB 1_555 1_555
C8PB C1PB 1_555 1_555
C9DA O5DA 1_555 1_555
C9U O5U 1_555 1_555
C9XA O5XA 1_555 1_555
C9YB O5YB 1_555 1_555
C9PB O5PB 1_555 1_555
H4DA C9DA 1_555 1_555
H4U C9U 1_555 1_555
H4XA C9XA 1_555 1_555
H4YB C9YB 1_555 1_555
H4PB C9PB 1_555 1_555
H5DA C9DA 1_555 1_555
H5U C9U 1_555 1_555
H5XA C9XA 1_555 1_555
H5YB C9YB 1_555 1_555
H5PB C9PB 1_555 1_555
C10DA C11 1_555 1_555
C10U C9U 1_555 1_555
C10XA C9XA 1_555 1_555
C10YB C9YB 1_555 1_555
C10PB C9PB 1_555 1_555
C11DA C10DA 1_555 1_555
C11U C10 1_555 1_555
C11XA C10XA 1_555 1_555
C11YB C10YB 1_555 1_555
C11PB C10XA 1_555 1_555
H6U C11U 1_555 1_555
H6DA C11DA 1_555 1_555
H6XA C11XA 1_555 1_555
H6PB C11PB 1_555 1_555
H6YB C11YB 1_555 1_555
C5 C6 1_555 1_555
O2XA C8XA 1_555 1_555
O4PB C7PB 1_555 1_555
C1XA C8XA 1_555 1_555
C3PB C7PB 1_555 1_555
C5DA C6DA 1_555 1_555
C5U C6U 1_555 1_555
C5XA C6XA 1_555 1_555
C5YB C6YB 1_555 1_555
C5PB C6PB 1_555 1_555
C9DA C10DA 1_555 1_555
C10U C11DA 1_555 1_555
C10U C11U 1_555 1_555
C10YB C11XA 1_555 1_555
C10PB C11YB 1_555 1_555
C10PB C11PB 1_555 1_555

#END
