
#######################################################################
#
#                 Cambridge Crystallographic Data Centre
#                                CCDC 
#
#######################################################################
#
# If this CIF has been generated from an entry in the Cambridge 
# Structural Database, then it will include bibliographic, chemical, 
# crystal, experimental, refinement or atomic coordinate data resulting 
# from the CCDC's data processing and validation procedures.
#
#######################################################################

data_ADATIK
_chemical_formula_moiety         '(C96 H96 Cu12 N30 O56)n'
_chemical_name_systematic        
catena-(hexakis(\m~6~-5'-(4-(1H-tetrazol-5-yl)benzamido)benzene-1,3-dioato)-bis(\m~3~-oxo)-tetracosa-aqua-dodeca-copper)
_symmetry_cell_setting           tetragonal
_symmetry_space_group_name_H-M   'I 4/m'
_symmetry_Int_Tables_number      87
_space_group_name_Hall           '-I 4'
loop_
_symmetry_equiv_pos_site_id
_symmetry_equiv_pos_as_xyz
1 x,y,z
2 -y,x,z
3 -x,-y,z
4 y,-x,z
5 1/2+x,1/2+y,1/2+z
6 1/2-y,1/2+x,1/2+z
7 1/2-x,1/2-y,1/2+z
8 1/2+y,1/2-x,1/2+z
9 -x,-y,-z
10 y,-x,-z
11 x,y,-z
12 -y,x,-z
13 1/2-x,1/2-y,1/2-z
14 1/2+y,1/2-x,1/2-z
15 1/2+x,1/2+y,1/2-z
16 1/2-y,1/2+x,1/2-z
_cell_length_a                   41.557(3)
_cell_length_b                   41.557(3)
_cell_length_c                   59.003(6)
_cell_angle_alpha                90
_cell_angle_beta                 90
_cell_angle_gamma                90
_cell_volume                     101897
_exptl_crystal_colour            green
_exptl_crystal_description       polyhedron
_cell_formula_units_Z            8
loop_
_atom_site_label
_atom_site_type_symbol
_atom_site_fract_x
_atom_site_fract_y
_atom_site_fract_z
C1 C 0.54063(16) 0.36940(17) 0.37011(12)
C2 C 0.42102(17) 0.39064(16) 0.36908(13)
C3 C 0.44907(13) 0.36307(13) 0.33682(10)
H1 H 0.4288 0.3610 0.3295
C4 C 0.45114(12) 0.37795(11) 0.35787(10)
C5 C 0.48080(15) 0.38097(11) 0.36855(8)
H2 H 0.4822 0.3911 0.3829
C6 C 0.50839(12) 0.36911(12) 0.35818(10)
C7 C 0.50632(13) 0.35423(12) 0.33713(10)
H3 H 0.5252 0.3461 0.3300
C8 C 0.47666(16) 0.35122(13) 0.32645(8)
C9 C 0.4506(2) 0.33367(12) 0.29081(11)
C10 C 0.45770(16) 0.32081(13) 0.26762(8)
C11 C 0.43332(14) 0.30286(19) 0.25761(12)
H4 H 0.4136 0.2997 0.2654
C12 C 0.43785(17) 0.28958(18) 0.23623(12)
H5 H 0.4212 0.2773 0.2294
C13 C 0.46676(19) 0.29426(15) 0.22485(9)
C14 C 0.49114(16) 0.3122(2) 0.23486(10)
H6 H 0.5109 0.3154 0.2271
C15 C 0.48662(16) 0.32549(19) 0.25624(10)
H7 H 0.5033 0.3378 0.2631
C16 C 0.4736(3) 0.28091(16) 0.20249(14)
N1 N 0.4530(2) 0.2680(3) 0.18803(19)
N2 N 0.4699(3) 0.2593(2) 0.17028(17)
N3 N 0.5009(2) 0.2668(2) 0.17390(17)
N4 N 0.5046(2) 0.2807(3) 0.19413(17)
C17 C 0.32264(17) 0.42373(17) 0.41043(13)
C18 C 0.27106(19) 0.49312(16) 0.47017(11)
C19 C 0.29592(10) 0.45758(11) 0.44074(8)
H8 H 0.3164 0.4654 0.4452
C20 C 0.29353(11) 0.43502(11) 0.42342(8)
C21 C 0.26353(14) 0.42354(11) 0.41687(8)
H9 H 0.2619 0.4081 0.4050
C22 C 0.23591(11) 0.43462(13) 0.42763(10)
C23 C 0.23830(11) 0.45717(13) 0.44494(9)
H10 H 0.2194 0.4647 0.4523
C24 C 0.26830(13) 0.46865(11) 0.45150(7)
C25 C 0.17664(16) 0.42539(16) 0.42814(12)
C26 C 0.15065(14) 0.40332(13) 0.41908(10)
C27 C 0.15493(14) 0.38181(18) 0.40129(12)
H11 H 0.1752 0.3804 0.3939
C28 C 0.12955(17) 0.36241(18) 0.39430(13)
H12 H 0.1325 0.3477 0.3821
C29 C 0.09990(15) 0.36452(18) 0.40510(14)
C30 C 0.09562(14) 0.3860(2) 0.42289(15)
H13 H 0.0754 0.3875 0.4303
C31 C 0.12100(16) 0.40542(18) 0.42988(12)
H14 H 0.1181 0.4201 0.4420
C32 C 0.0756(2) 0.34202(17) 0.39618(17)
N5 N 0.0801(2) 0.3269(3) 0.37549(18)
N6 N 0.0539(3) 0.3086(2) 0.37257(18)
N7 N 0.03465(18) 0.3123(2) 0.3907(2)
N8 N 0.0473(2) 0.3325(2) 0.40518(17)
C33 C 0.35421(17) 0.62556(17) 0.40910(13)
C34 C 0.28590(18) 0.5740(2) 0.46948(12)
C35 C 0.32024(12) 0.60212(14) 0.44045(10)
H15 H 0.3384 0.5901 0.4453
C36 C 0.32282(14) 0.62274(13) 0.42199(10)
C37 C 0.29622(12) 0.64029(15) 0.41484(9)
H16 H 0.2980 0.6544 0.4022
C38 C 0.26704(11) 0.63722(13) 0.42615(10)
C39 C 0.26446(13) 0.61661(13) 0.44461(9)
H17 H 0.2445 0.6145 0.4523
C40 C 0.29106(12) 0.59906(16) 0.45176(8)
C41 C 0.23325(15) 0.67367(17) 0.40276(12)
C42 C 0.19865(15) 0.68214(11) 0.39757(11)
C43 C 0.19423(19) 0.70626(14) 0.38155(13)
H18 H 0.2123 0.7161 0.3746
C44 C 0.1633(2) 0.71600(17) 0.37576(14)
H19 H 0.1603 0.7325 0.3648
C45 C 0.1368(2) 0.70170(13) 0.38599(14)
C46 C 0.1413(2) 0.67760(12) 0.40201(15)
H20 H 0.1231 0.6677 0.4090
C47 C 0.17216(19) 0.66778(14) 0.40780(14)
H21 H 0.1752 0.6513 0.4187
Cu1 Cu 0.38926(2) 0.42055(2) 0.405480(18)
Cu2 Cu 0.35322(2) 0.39430(2) 0.373910(18)
Cu3 Cu 0.30935(4) 0.52994(3) 0.5000
Cu4 Cu 0.24674(4) 0.54003(3) 0.5000
Cu5 Cu 0.03150(8) 0.75295(5) 0.34876(5)
Cu6 Cu -0.00754(8) 0.29393(5) 0.39220(5)
Cu7 Cu 0.04527(9) 0.27384(6) 0.35117(5)
N9 N 0.47626(17) 0.33932(17) 0.30438(10)
H22 H 0.4952 0.3349 0.2985
N10 N 0.20605(12) 0.42394(16) 0.41972(12)
H23 H 0.2070 0.4143 0.4065
N11 N 0.23973(15) 0.65416(13) 0.41969(11)
H24 H 0.2233 0.6512 0.4289
N12 N 0.0626(2) 0.7300(2) 0.36805(16)
N13 N 0.0942(2) 0.7308(2) 0.36533(16)
C48 C 0.1044(2) 0.71050(19) 0.38134(15)
N14 N 0.0789(2) 0.6984(2) 0.39334(15)
N15 N 0.0526(2) 0.71090(17) 0.38480(16)
O1 O 0.42517(11) 0.40586(11) 0.38736(9)
O2 O 0.39488(13) 0.38622(11) 0.35838(9)
O3 O 0.54026(10) 0.38651(11) 0.38716(8)
O4 O 0.56334(11) 0.35481(10) 0.36011(8)
O5 O 0.42254(17) 0.3386(2) 0.29695(12)
O6 O 0.31738(11) 0.40795(12) 0.39233(9)
O7 O 0.34814(11) 0.43176(11) 0.41976(8)
O8 O 0.29903(12) 0.49782(11) 0.47857(9)
O9 O 0.24513(11) 0.50468(10) 0.47739(7)
O10 O 0.16990(15) 0.4447(2) 0.44355(14)
O11 O 0.0184(3) 0.7903(3) 0.3736(2)
O12 O 0.35478(11) 0.64255(10) 0.39166(9)
O13 O 0.37764(10) 0.61365(11) 0.42025(8)
O14 O 0.31132(11) 0.56221(12) 0.47674(8)
O15 O 0.25770(12) 0.57155(13) 0.47713(9)
O16 O 0.25598(19) 0.68554(15) 0.39080(13)
O17 O 0.32467(11) 0.37327(11) 0.34748(8)
O18 O 0.41934(12) 0.44329(13) 0.42950(8)
O19 O 0.36098(14) 0.52065(12) 0.5000
O20 O 0.19369(18) 0.54777(14) 0.5000
O21 O -0.0001(2) 0.72140(12) 0.36008(13)
O22 O 0.0702(3) 0.7676(2) 0.32821(19)
O23 O 0.0897(3) 0.2758(2) 0.3362(2)
O24 O -0.0160(4) 0.3248(3) 0.41806(19)
O25 O 0.0036(4) 0.2513(3) 0.4117(3)
O26 O 0.0376(2) 0.71310(14) 0.32705(12)
O27 O 0.0402(2) 0.31500(17) 0.32911(13)
O28 O -0.01266(18) 0.33201(11) 0.36946(14)
O29 O 0.0473(3) 0.2327(2) 0.3739(2)
C1C C 0.36940(17) 0.45937(16) 0.37011(12)
C2C C 0.39064(16) 0.57898(17) 0.36908(13)
C3C C 0.36307(13) 0.55093(13) 0.33682(10)
H1C H 0.3610 0.5712 0.3295
C4C C 0.37795(11) 0.54886(12) 0.35787(10)
C5C C 0.38097(11) 0.51920(15) 0.36855(8)
H2C H 0.3911 0.5178 0.3829
C6C C 0.36911(12) 0.49161(12) 0.35818(10)
C7C C 0.35423(12) 0.49368(13) 0.33713(10)
H3C H 0.3461 0.4748 0.3300
C8C C 0.35122(13) 0.52334(16) 0.32645(8)
C9C C 0.33367(12) 0.5494(2) 0.29081(11)
C10C C 0.32081(13) 0.54230(16) 0.26762(8)
C11C C 0.30286(19) 0.56668(14) 0.25761(12)
H4C H 0.2997 0.5864 0.2654
C12C C 0.28958(18) 0.56215(17) 0.23623(12)
H5C H 0.2773 0.5788 0.2294
C13C C 0.29426(15) 0.53324(19) 0.22485(9)
C14C C 0.3122(2) 0.50886(16) 0.23486(10)
H6C H 0.3154 0.4891 0.2271
C15C C 0.32549(19) 0.51338(16) 0.25624(10)
H7C H 0.3378 0.4967 0.2631
C16C C 0.28091(16) 0.5264(3) 0.20249(14)
N1C N 0.2680(3) 0.5470(2) 0.18803(19)
N2C N 0.2593(2) 0.5301(3) 0.17028(17)
N2L N 0.0301(3) 0.2407(2) 0.32972(17)
N2F N 0.0301(3) 0.2407(2) 0.67028(17)
N3C N 0.2668(2) 0.4991(2) 0.17390(17)
N3N N 0.0009(2) 0.7668(2) 0.32610(17)
N3D N 0.0009(2) 0.7668(2) 0.67390(17)
N4C N 0.2807(3) 0.4954(2) 0.19413(17)
C17J C 0.32264(17) 0.42373(17) 0.58957(13)
C18J C 0.27106(19) 0.49312(16) 0.52983(11)
C19J C 0.29592(10) 0.45758(11) 0.55926(8)
H8J H 0.3164 0.4654 0.5548
C20J C 0.29353(11) 0.43502(11) 0.57658(8)
C21J C 0.26353(14) 0.42354(11) 0.58313(8)
H9J H 0.2619 0.4081 0.5950
C22J C 0.23591(11) 0.43462(13) 0.57237(10)
C23J C 0.23830(11) 0.45717(13) 0.55506(9)
H10J H 0.2194 0.4647 0.5477
C24J C 0.26830(13) 0.46865(11) 0.54850(7)
C25J C 0.17664(16) 0.42539(16) 0.57186(12)
C26J C 0.15065(14) 0.40332(13) 0.58092(10)
C27J C 0.15493(14) 0.38181(18) 0.59871(12)
H11J H 0.1752 0.3804 0.6061
C28J C 0.12955(17) 0.36241(18) 0.60570(13)
H12J H 0.1325 0.3477 0.6179
C29J C 0.09990(15) 0.36452(18) 0.59490(14)
C30J C 0.09562(14) 0.3860(2) 0.57711(15)
H13J H 0.0754 0.3875 0.5697
C31J C 0.12100(16) 0.40542(18) 0.57012(12)
H14J H 0.1181 0.4201 0.5580
C32J C 0.0756(2) 0.34202(17) 0.60382(17)
N5J N 0.0801(2) 0.3269(3) 0.62451(18)
N6J N 0.0539(3) 0.3086(2) 0.62743(18)
N7J N 0.03465(18) 0.3123(2) 0.6093(2)
N8J N 0.0473(2) 0.3325(2) 0.59482(17)
C33J C 0.35421(17) 0.62556(17) 0.59090(13)
C34J C 0.28590(18) 0.5740(2) 0.53052(12)
C35J C 0.32024(12) 0.60212(14) 0.55955(10)
H15J H 0.3384 0.5901 0.5547
C36J C 0.32282(14) 0.62274(13) 0.57801(10)
C37J C 0.29622(12) 0.64029(15) 0.58516(9)
H16J H 0.2980 0.6544 0.5978
C38J C 0.26704(11) 0.63722(13) 0.57385(10)
C39J C 0.26446(13) 0.61661(13) 0.55539(9)
H17J H 0.2445 0.6145 0.5477
C40J C 0.29106(12) 0.59906(16) 0.54824(8)
C41J C 0.23325(15) 0.67367(17) 0.59724(12)
C42J C 0.19865(15) 0.68214(11) 0.60243(11)
C43J C 0.19423(19) 0.70626(14) 0.61845(13)
H18J H 0.2123 0.7161 0.6254
C44J C 0.1633(2) 0.71600(17) 0.62424(14)
H19J H 0.1603 0.7325 0.6352
C45J C 0.1368(2) 0.70170(13) 0.61401(14)
C46J C 0.1413(2) 0.67760(12) 0.59799(15)
H20J H 0.1231 0.6677 0.5910
C47J C 0.17216(19) 0.66778(14) 0.59220(14)
H21J H 0.1752 0.6513 0.5813
Cu1J Cu 0.38926(2) 0.42055(2) 0.594520(18)
Cu1A Cu 0.57945(2) 0.38926(2) 0.405480(18)
Cu1C Cu 0.42055(2) 0.61074(2) 0.405480(18)
Cu1I Cu 0.42055(2) 0.61074(2) 0.594520(18)
Cu2J Cu 0.35322(2) 0.39430(2) 0.626090(18)
Cu2A Cu 0.60570(2) 0.35322(2) 0.373910(18)
Cu2C Cu 0.39430(2) 0.64678(2) 0.373910(18)
Cu2I Cu 0.39430(2) 0.64678(2) 0.626090(18)
Cu5J Cu 0.03150(8) 0.75295(5) 0.65124(5)
Cu5N Cu 0.53150(8) 0.25295(5) 0.15124(5)
Cu5M Cu 0.25295(5) 0.46850(8) 0.15124(5)
Cu5B Cu -0.03150(8) 0.24705(5) 0.34876(5)
Cu6J Cu -0.00754(8) 0.29393(5) 0.60780(5)
Cu6B Cu 0.00754(8) 0.70607(5) 0.39220(5)
Cu6H Cu 0.00754(8) 0.70607(5) 0.60780(5)
Cu7J Cu 0.04527(9) 0.27384(6) 0.64883(5)
Cu7L Cu 0.45473(9) 0.22616(6) 0.14883(5)
Cu7B Cu -0.04527(9) 0.72616(6) 0.35117(5)
Cu7O Cu 0.22616(6) 0.54527(9) 0.14883(5)
N9C N 0.33932(17) 0.52374(17) 0.30438(10)
H22C H 0.3349 0.5048 0.2985
N10J N 0.20605(12) 0.42394(16) 0.58028(12)
H23J H 0.2070 0.4143 0.5935
N11J N 0.23973(15) 0.65416(13) 0.58031(11)
H24J H 0.2233 0.6512 0.5711
N12J N 0.0626(2) 0.7300(2) 0.63195(16)
N13J N 0.0942(2) 0.7308(2) 0.63467(16)
C48J C 0.1044(2) 0.71050(19) 0.61866(15)
N14J N 0.0789(2) 0.6984(2) 0.60666(15)
N15J N 0.0526(2) 0.71090(17) 0.61520(16)
N15B N -0.0526(2) 0.28910(17) 0.38480(16)
N15H N -0.0526(2) 0.28910(17) 0.61520(16)
O1C O 0.40586(11) 0.57483(11) 0.38736(9)
O1J O 0.42517(11) 0.40586(11) 0.61264(9)
O2C O 0.38622(11) 0.60512(13) 0.35838(9)
O2J O 0.39488(13) 0.38622(11) 0.64162(9)
O3C O 0.38651(11) 0.45974(10) 0.38716(8)
O3I O 0.38651(11) 0.45974(10) 0.61284(8)
O4C O 0.35481(10) 0.43666(11) 0.36011(8)
O4I O 0.35481(10) 0.43666(11) 0.63989(8)
O5C O 0.3386(2) 0.57746(17) 0.29695(12)
O6J O 0.31738(11) 0.40795(12) 0.60767(9)
O7J O 0.34814(11) 0.43176(11) 0.58024(8)
O8J O 0.29903(12) 0.49782(11) 0.52143(9)
O9J O 0.24513(11) 0.50468(10) 0.52261(7)
O10J O 0.16990(15) 0.4447(2) 0.55645(14)
O11J O 0.0184(3) 0.7903(3) 0.6264(2)
O12J O 0.35478(11) 0.64255(10) 0.60834(9)
O12A O 0.35745(10) 0.35478(11) 0.39166(9)
O12K O 0.35745(10) 0.35478(11) 0.60834(9)
O13J O 0.37764(10) 0.61365(11) 0.57975(8)
O13A O 0.38635(11) 0.37764(10) 0.42025(8)
O13K O 0.38635(11) 0.37764(10) 0.57975(8)
O14J O 0.31132(11) 0.56221(12) 0.52326(8)
O15J O 0.25770(12) 0.57155(13) 0.52287(9)
O16J O 0.25598(19) 0.68554(15) 0.60920(13)
O17J O 0.32467(11) 0.37327(11) 0.65252(8)
O18J O 0.41934(12) 0.44329(13) 0.57050(8)
O21B O 0.0001(2) 0.27860(12) 0.36008(13)
O21J O -0.0001(2) 0.72140(12) 0.63992(13)
O21H O 0.0001(2) 0.27860(12) 0.63992(13)
O22J O 0.0702(3) 0.7676(2) 0.67179(19)
O23J O 0.0897(3) 0.2758(2) 0.6638(2)
O24J O -0.0160(4) 0.3248(3) 0.58194(19)
O25J O 0.0036(4) 0.2513(3) 0.5883(3)
O26J O 0.0376(2) 0.71310(14) 0.67295(12)
O27J O 0.0402(2) 0.31500(17) 0.67089(13)
O28J O -0.01266(18) 0.33201(11) 0.63054(14)
O29J O 0.0473(3) 0.2327(2) 0.6261(2)
loop_
_geom_bond_atom_site_label_1
_geom_bond_atom_site_label_2
_geom_bond_site_symmetry_1
_geom_bond_site_symmetry_2
C1 C6 1_555 1_555
C2 C4 1_555 1_555
C3 H1 1_555 1_555
C4 C3 1_555 1_555
C5 C4 1_555 1_555
H2 C5 1_555 1_555
C6 C5 1_555 1_555
C7 C6 1_555 1_555
H3 C7 1_555 1_555
C8 C3 1_555 1_555
C9 C10 1_555 1_555
C10 C11 1_555 1_555
C11 H4 1_555 1_555
C12 C11 1_555 1_555
H5 C12 1_555 1_555
C13 C12 1_555 1_555
C14 C13 1_555 1_555
H6 C14 1_555 1_555
C15 C10 1_555 1_555
H7 C15 1_555 1_555
C16 C13 1_555 1_555
N1 C16 1_555 1_555
N2 N1 1_555 1_555
N3 N2 1_555 1_555
N4 C16 1_555 1_555
C17 C20 1_555 1_555
C18 C24 1_555 1_555
C19 H8 1_555 1_555
C20 C19 1_555 1_555
C21 C20 1_555 1_555
H9 C21 1_555 1_555
C22 C21 1_555 1_555
C23 C22 1_555 1_555
H10 C23 1_555 1_555
C24 C19 1_555 1_555
C25 C26 1_555 1_555
C26 C27 1_555 1_555
C27 H11 1_555 1_555
C28 C27 1_555 1_555
H12 C28 1_555 1_555
C29 C28 1_555 1_555
C30 C29 1_555 1_555
H13 C30 1_555 1_555
C31 C26 1_555 1_555
H14 C31 1_555 1_555
C32 C29 1_555 1_555
N5 C32 1_555 1_555
N6 N5 1_555 1_555
N7 N6 1_555 1_555
N8 C32 1_555 1_555
C33 C36 1_555 1_555
C34 C40 1_555 1_555
C35 H15 1_555 1_555
C36 C35 1_555 1_555
C37 C36 1_555 1_555
H16 C37 1_555 1_555
C38 C37 1_555 1_555
C39 C38 1_555 1_555
H17 C39 1_555 1_555
C40 C35 1_555 1_555
C41 C42 1_555 1_555
C42 C43 1_555 1_555
C43 H18 1_555 1_555
C44 C43 1_555 1_555
H19 C44 1_555 1_555
C45 C44 1_555 1_555
C46 C45 1_555 1_555
H20 C46 1_555 1_555
C47 C42 1_555 1_555
H21 C47 1_555 1_555
Cu1 O1 1_555 1_555
Cu2 O2 1_555 1_555
Cu3 O8 1_555 1_555
Cu4 O9 1_555 1_555
Cu5 N12 1_555 1_555
Cu6 N7 1_555 1_555
Cu7 N6 1_555 1_555
N9 C8 1_555 1_555
H22 N9 1_555 1_555
N10 C22 1_555 1_555
H23 N10 1_555 1_555
N11 C38 1_555 1_555
H24 N11 1_555 1_555
N12 N13 1_555 1_555
N13 C48 1_555 1_555
C48 C45 1_555 1_555
N14 C48 1_555 1_555
N15 N12 1_555 1_555
O1 C2 1_555 1_555
O2 C2 1_555 1_555
O3 C1 1_555 1_555
O4 C1 1_555 1_555
O5 C9 1_555 1_555
O6 C17 1_555 1_555
O7 C17 1_555 1_555
O8 C18 1_555 1_555
O9 C18 1_555 1_555
O10 C25 1_555 1_555
O11 Cu5 1_555 1_555
O12 C33 1_555 1_555
O13 C33 1_555 1_555
O14 C34 1_555 1_555
O15 C34 1_555 1_555
O16 C41 1_555 1_555
O17 Cu2 1_555 1_555
O18 Cu1 1_555 1_555
O19 Cu3 1_555 1_555
O20 Cu4 1_555 1_555
O21 Cu5 1_555 1_555
O22 Cu5 1_555 1_555
O23 Cu7 1_555 1_555
O24 Cu6 1_555 1_555
O25 Cu6 1_555 1_555
O26 Cu5 1_555 1_555
O27 Cu7 1_555 1_555
O28 Cu6 1_555 1_555
O29 Cu7 1_555 1_555
C1C C6C 1_555 1_555
C2C C4C 1_555 1_555
C3C H1C 1_555 1_555
C4C C3C 1_555 1_555
C5C C4C 1_555 1_555
H2C C5C 1_555 1_555
C6C C5C 1_555 1_555
C7C C6C 1_555 1_555
H3C C7C 1_555 1_555
C8C C3C 1_555 1_555
C9C C10C 1_555 1_555
C10C C11C 1_555 1_555
C11C H4C 1_555 1_555
C12C C11C 1_555 1_555
H5C C12C 1_555 1_555
C13C C12C 1_555 1_555
C14C C13C 1_555 1_555
H6C C14C 1_555 1_555
C15C C10C 1_555 1_555
H7C C15C 1_555 1_555
C16C C13C 1_555 1_555
N1C C16C 1_555 1_555
N2C N1C 1_555 1_555
N2L Cu7 1_555 1_555
N2F Cu7J 1_555 1_555
N3C N2C 1_555 1_555
N3N Cu5 1_555 1_555
N3D Cu5J 1_555 1_555
N4C C16C 1_555 1_555
C17J C20J 1_555 1_555
C18J C24J 1_555 1_555
C19J H8J 1_555 1_555
C20J C19J 1_555 1_555
C21J C20J 1_555 1_555
H9J C21J 1_555 1_555
C22J C21J 1_555 1_555
C23J C22J 1_555 1_555
H10J C23J 1_555 1_555
C24J C19J 1_555 1_555
C25J C26J 1_555 1_555
C26J C27J 1_555 1_555
C27J H11J 1_555 1_555
C28J C27J 1_555 1_555
H12J C28J 1_555 1_555
C29J C28J 1_555 1_555
C30J C29J 1_555 1_555
H13J C30J 1_555 1_555
C31J C26J 1_555 1_555
H14J C31J 1_555 1_555
C32J C29J 1_555 1_555
N5J C32J 1_555 1_555
N6J N5J 1_555 1_555
N7J N6J 1_555 1_555
N8J C32J 1_555 1_555
C33J C36J 1_555 1_555
C34J C40J 1_555 1_555
C35J H15J 1_555 1_555
C36J C35J 1_555 1_555
C37J C36J 1_555 1_555
H16J C37J 1_555 1_555
C38J C37J 1_555 1_555
C39J C38J 1_555 1_555
H17J C39J 1_555 1_555
C40J C35J 1_555 1_555
C41J C42J 1_555 1_555
C42J C43J 1_555 1_555
C43J H18J 1_555 1_555
C44J C43J 1_555 1_555
H19J C44J 1_555 1_555
C45J C44J 1_555 1_555
C46J C45J 1_555 1_555
H20J C46J 1_555 1_555
C47J C42J 1_555 1_555
H21J C47J 1_555 1_555
Cu1J O1J 1_555 1_555
Cu1A O3 1_555 1_555
Cu1C O13 1_555 1_555
Cu1I O13J 1_555 1_555
Cu2J O2J 1_555 1_555
Cu2A O4 1_555 1_555
Cu2C O12 1_555 1_555
Cu2I O12J 1_555 1_555
Cu5J N12J 1_555 1_555
Cu5N N3 1_555 1_555
Cu5M N3C 1_555 1_555
Cu5B O21B 1_555 1_555
Cu6J N7J 1_555 1_555
Cu6B N15 1_555 1_555
Cu6H N15J 1_555 1_555
Cu7J N6J 1_555 1_555
Cu7L N2 1_555 1_555
Cu7B O21 1_555 1_555
Cu7O N2C 1_555 1_555
N9C C8C 1_555 1_555
H22C N9C 1_555 1_555
N10J C22J 1_555 1_555
H23J N10J 1_555 1_555
N11J C38J 1_555 1_555
H24J N11J 1_555 1_555
N12J N13J 1_555 1_555
N13J C48J 1_555 1_555
C48J C45J 1_555 1_555
N14J C48J 1_555 1_555
N15J N12J 1_555 1_555
N15B Cu6 1_555 1_555
N15H Cu6J 1_555 1_555
O1C C2C 1_555 1_555
O2C C2C 1_555 1_555
O3C Cu1 1_555 1_555
O3I Cu1J 1_555 1_555
O4C Cu2 1_555 1_555
O4I Cu2J 1_555 1_555
O5C C9C 1_555 1_555
O6J C17J 1_555 1_555
O7J C17J 1_555 1_555
O8J Cu3 1_555 1_555
O9J Cu4 1_555 1_555
O10J C25J 1_555 1_555
O11J Cu5J 1_555 1_555
O12J C33J 1_555 1_555
O12A Cu2 1_555 1_555
O12K Cu2J 1_555 1_555
O13J C33J 1_555 1_555
O13A Cu1 1_555 1_555
O13K Cu1J 1_555 1_555
O14J Cu3 1_555 1_555
O15J Cu4 1_555 1_555
O16J C41J 1_555 1_555
O17J Cu2J 1_555 1_555
O18J Cu1J 1_555 1_555
O21B Cu6 1_555 1_555
O21J Cu5J 1_555 1_555
O21H Cu6J 1_555 1_555
O22J Cu5J 1_555 1_555
O23J Cu7J 1_555 1_555
O24J Cu6J 1_555 1_555
O25J Cu6J 1_555 1_555
O26J Cu5J 1_555 1_555
O27J Cu7J 1_555 1_555
O28J Cu6J 1_555 1_555
O29J Cu7J 1_555 1_555
C7 C8 1_555 1_555
C9 N9 1_555 1_555
C14 C15 1_555 1_555
N3 N4 1_555 1_555
C23 C24 1_555 1_555
C25 N10 1_555 1_555
C30 C31 1_555 1_555
N7 N8 1_555 1_555
C39 C40 1_555 1_555
C41 N11 1_555 1_555
C46 C47 1_555 1_555
Cu1 O7 1_555 1_555
Cu2 O6 1_555 1_555
Cu3 O14 1_555 1_555
Cu4 O15 1_555 1_555
Cu7 O21B 1_555 1_555
N14 N15 1_555 1_555
O21 Cu6B 1_555 1_555
C1C O3C 1_555 1_555
C1C O4C 1_555 1_555
C7C C8C 1_555 1_555
C9C N9C 1_555 1_555
C14C C15C 1_555 1_555
N3C N4C 1_555 1_555
C18J O8J 1_555 1_555
C18J O9J 1_555 1_555
C23J C24J 1_555 1_555
C25J N10J 1_555 1_555
C30J C31J 1_555 1_555
N7J N8J 1_555 1_555
C34J O14J 1_555 1_555
C34J O15J 1_555 1_555
C39J C40J 1_555 1_555
C41J N11J 1_555 1_555
C46J C47J 1_555 1_555
Cu1J O7J 1_555 1_555
Cu1C O1C 1_555 1_555
Cu2J O6J 1_555 1_555
Cu2C O2C 1_555 1_555
Cu6H O21J 1_555 1_555
Cu7J O21H 1_555 1_555
N14J N15J 1_555 1_555

#END
