
#######################################################################
#
#                 Cambridge Crystallographic Data Centre
#                                CCDC 
#
#######################################################################
#
# If this CIF has been generated from an entry in the Cambridge 
# Structural Database, then it will include bibliographic, chemical, 
# crystal, experimental, refinement or atomic coordinate data resulting 
# from the CCDC's data processing and validation procedures.
#
#######################################################################

data_GENMEU
_chemical_formula_moiety         '(C8 H2 Co2 O6)n,2(C2 H4)'
_chemical_name_systematic        
'catena-[(\m-4,6-dioxyisophthalato)-di-cobalt bis(ethene)]'
_symmetry_cell_setting           rhombohedral
_symmetry_space_group_name_H-M   'R 3 m'
_symmetry_Int_Tables_number      160
_space_group_name_Hall           'R 3 -2"'
loop_
_symmetry_equiv_pos_site_id
_symmetry_equiv_pos_as_xyz
1 x,y,z
2 -y,x-y,z
3 -x+y,-x,z
4 -y,-x,z
5 -x+y,y,z
6 x,x-y,z
7 2/3+x,1/3+y,1/3+z
8 2/3-y,1/3+x-y,1/3+z
9 2/3-x+y,1/3-x,1/3+z
10 2/3-y,1/3-x,1/3+z
11 2/3-x+y,1/3+y,1/3+z
12 2/3+x,1/3+x-y,1/3+z
13 1/3+x,2/3+y,2/3+z
14 1/3-y,2/3+x-y,2/3+z
15 1/3-x+y,2/3-x,2/3+z
16 1/3-y,2/3-x,2/3+z
17 1/3-x+y,2/3+y,2/3+z
18 1/3+x,2/3+x-y,2/3+z
_cell_length_a                   25.751(4)
_cell_length_b                   25.751(4)
_cell_length_c                   6.8192(11)
_cell_angle_alpha                90
_cell_angle_beta                 90
_cell_angle_gamma                120
_cell_volume                     3916.09
_exptl_crystal_colour            pink
_exptl_crystal_description       needle
_cell_formula_units_Z            9
loop_
_atom_site_label
_atom_site_type_symbol
_atom_site_fract_x
_atom_site_fract_y
_atom_site_fract_z
Co1 Co 0.65812(5) 0.61731(5) 0.4739(2)
O1 O 0.5882(2) 0.5947(3) 0.6621(9)
O2 O 0.6143(3) 0.5617(3) 1.2531(8)
O3 O 0.6453(3) 0.6293(2) 1.0154(7)
C1 C 0.5513(4) 0.5441(4) 0.7562(12)
C2 C 0.6098(4) 0.5774(4) 1.0842(11)
C3 C 0.5004(3) 0.4996(3) 0.660(2)
H1 H 0.495961 0.504038 0.523307
C4 C 0.5605(4) 0.5340(4) 0.9559(12)
C5 C 0.5178(3) 0.4822(3) 1.0494(18)
H2 H 0.524352 0.475647 1.182019
O1C O 0.4053(3) 0.4118(2) 0.6621(9)
O2C O 0.4383(3) 0.3857(3) 1.2531(8)
O3C O 0.3707(2) 0.3547(3) 1.0154(7)
C1C C 0.4559(4) 0.4487(4) 0.7562(12)
C2C C 0.4226(4) 0.3902(4) 1.0842(11)
C4C C 0.4660(4) 0.4395(4) 0.9559(12)
Co1C Co 0.38269(5) 0.34188(5) 0.4739(2)
Co1_2 Co 0.65812(5) 0.61731(5) 1.4739(2)
Co1C_2 Co 0.38269(5) 0.34188(5) 1.4739(2)
Co1H Co 0.62586(7) 0.67521(5) 0.8072(2)
Co1K Co 0.32479(5) 0.37414(7) 0.8072(2)
Co1M Co 0.71602(5) 0.70748(7) 1.1406(2)
Co1P Co 0.29252(7) 0.28398(5) 1.1406(2)
O1M O 0.7386(3) 0.6602(4) 0.3288(9)
O1P O 0.3398(4) 0.2614(3) 0.3288(9)
O2_2 O 0.6143(3) 0.5617(3) 0.2531(8)
O2C_2 O 0.4383(3) 0.3857(3) 0.2531(8)
O3H O 0.6507(4) 0.6880(3) 0.3487(7)
O3K O 0.3120(3) 0.3493(4) 0.3487(7)
O3M O 0.7040(2) 0.6827(4) 0.6821(7)
O3P O 0.3173(4) 0.2960(2) 0.6821(7)
C6 C 0.6887(8) 0.5504(6) 0.683(2)
C7 C 0.6634(12) 0.5167(9) 0.528(2)
loop_
_geom_bond_atom_site_label_1
_geom_bond_atom_site_label_2
_geom_bond_site_symmetry_1
_geom_bond_site_symmetry_2
Co1 O1 1_555 1_555
O1 C1 1_555 1_555
O2 C2 1_555 1_555
O3 C2 1_555 1_555
C1 C3 1_555 1_555
C2 C4 1_555 1_555
C3 H1 1_555 1_555
C4 C1 1_555 1_555
C5 C4 1_555 1_555
H2 C5 1_555 1_555
C6 C7 1_555 1_555
O1C C1C 1_555 1_555
O2C C2C 1_555 1_555
O3C C2C 1_555 1_555
C1C C3 1_555 1_555
C2C C4C 1_555 1_555
C4C C5 1_555 1_555
Co1C O1C 1_555 1_555
Co1_2 O2 1_555 1_555
Co1C_2 O2C 1_555 1_555
Co1H O1 1_555 1_555
Co1K O1C 1_555 1_555
Co1M O3 1_555 1_555
Co1P O3C 1_555 1_555
O1M Co1 1_555 1_555
O1P Co1C 1_555 1_555
O2_2 Co1 1_555 1_555
O2C_2 Co1C 1_555 1_555
O3H Co1 1_555 1_555
O3K Co1C 1_555 1_555
O3M Co1 1_555 1_555
O3P Co1C 1_555 1_555
O3 Co1H 1_555 1_555
O3C Co1K 1_555 1_555
C1C C4C 1_555 1_555
Co1H O3M 1_555 1_555
Co1K O3P 1_555 1_555

#END
