
#######################################################################
#
#                 Cambridge Crystallographic Data Centre
#                                CCDC 
#
#######################################################################
#
# If this CIF has been generated from an entry in the Cambridge 
# Structural Database, then it will include bibliographic, chemical, 
# crystal, experimental, refinement or atomic coordinate data resulting 
# from the CCDC's data processing and validation procedures.
#
#######################################################################

data_BEPROF
_chemical_formula_moiety         '(C72 H43 N6 Ni3 O13)n,7.5n(C5 H5 N1)'
_chemical_name_systematic        
"catena-[tris(\m~5~-4,4'-(4,4'-Bipyridine-2,6-diyl)dibenzoato)-(\m~3~-hydroxo)-tri-nickel pyridine solvate]"
_symmetry_cell_setting           rhombohedral
_symmetry_space_group_name_H-M   'R -3 c'
_symmetry_Int_Tables_number      167
_space_group_name_Hall           '-R 3 2"c'
loop_
_symmetry_equiv_pos_site_id
_symmetry_equiv_pos_as_xyz
1 x,y,z
2 -y,x-y,z
3 -x+y,-x,z
4 y,x,1/2-z
5 x-y,-y,1/2-z
6 -x,-x+y,1/2-z
7 2/3+x,1/3+y,1/3+z
8 2/3-y,1/3+x-y,1/3+z
9 2/3-x+y,1/3-x,1/3+z
10 2/3+y,1/3+x,5/6-z
11 2/3+x-y,1/3-y,5/6-z
12 2/3-x,1/3-x+y,5/6-z
13 1/3+x,2/3+y,2/3+z
14 1/3-y,2/3+x-y,2/3+z
15 1/3-x+y,2/3-x,2/3+z
16 1/3+y,2/3+x,1/6-z
17 1/3+x-y,2/3-y,1/6-z
18 1/3-x,2/3-x+y,1/6-z
19 -x,-y,-z
20 y,-x+y,-z
21 x-y,x,-z
22 -y,-x,1/2+z
23 -x+y,y,1/2+z
24 x,x-y,1/2+z
25 1/3-x,2/3-y,2/3-z
26 1/3+y,2/3-x+y,2/3-z
27 1/3+x-y,2/3+x,2/3-z
28 1/3-y,2/3-x,1/6+z
29 1/3-x+y,2/3+y,1/6+z
30 1/3+x,2/3+x-y,1/6+z
31 2/3-x,1/3-y,1/3-z
32 2/3+y,1/3-x+y,1/3-z
33 2/3+x-y,1/3+x,1/3-z
34 2/3-y,1/3-x,5/6+z
35 2/3-x+y,1/3+y,5/6+z
36 2/3+x,1/3+x-y,5/6+z
_cell_length_a                   28.548(4)
_cell_length_b                   28.548(4)
_cell_length_c                   26.592(3)
_cell_angle_alpha                90
_cell_angle_beta                 90
_cell_angle_gamma                120
_cell_volume                     18768.6
_exptl_crystal_colour            green
_exptl_crystal_description       plate
_cell_formula_units_Z            6
loop_
_atom_site_label
_atom_site_type_symbol
_atom_site_fract_x
_atom_site_fract_y
_atom_site_fract_z
Ni1 Ni 0.6667 0.40316(4) 0.0833
O1 O 0.6667 0.3333 0.0833
O2 O 0.42984(17) 0.71301(18) -0.02024(19)
O3 O 0.40248(18) 0.62673(17) -0.03931(19)
N1 N 0.6667 0.4762(2) 0.0833
N2 N 0.6667 0.7234(3) 0.0833
C1 C 0.4357(3) 0.6721(3) -0.0213(3)
C2 C 0.4866(2) 0.6768(2) -0.0011(3)
C3 C 0.5183(3) 0.7152(3) 0.0341(4)
H1 H 0.5086 0.7411 0.0442
C4 C 0.5645(3) 0.7176(3) 0.0556(4)
H2 H 0.5846 0.7437 0.0807
C5 C 0.5802(3) 0.6816(3) 0.0396(3)
C6 C 0.5502(3) 0.6458(3) 0.0012(3)
H3 H 0.5620 0.6226 -0.0121
C7 C 0.5042(3) 0.6427(3) -0.0183(3)
H4 H 0.4844 0.6170 -0.0438
C8 C 0.6259(3) 0.6788(3) 0.0632(3)
C9 C 0.6245(3) 0.6299(3) 0.0634(3)
H5 H 0.5941 0.5989 0.0495
C10 C 0.6667 0.6253(3) 0.0833
C11 C 0.6667 0.5740(3) 0.0833
C12 C 0.7133(3) 0.5712(3) 0.0751(4)
H6 H 0.7466 0.6034 0.0689
C13 C 0.7115(3) 0.5234(3) 0.0758(4)
H7 H 0.7444 0.5232 0.0706
O2Q O 0.90349(17) 0.94984(25) 0.18691(19)
O3Q O 0.93085(18) 0.89092(25) 0.20598(19)
C1Q C 0.8976(3) 0.9031(4) 0.1880(3)
C2Q C 0.8467(2) 0.8569(3) 0.1678(3)
C3Q C 0.8150(3) 0.8636(4) 0.1326(4)
H1Q H 0.8247 0.8992 0.1225
C4Q C 0.7688(3) 0.8198(4) 0.1111(4)
H2Q H 0.7487 0.8258 0.0860
C5Q C 0.7531(3) 0.7681(4) 0.1271(3)
C6Q C 0.7831(3) 0.7623(4) 0.1655(3)
H3Q H 0.7713 0.7273 0.1788
C7Q C 0.8291(3) 0.8052(4) 0.1850(3)
H4Q H 0.8489 0.7993 0.2105
C8Q C 0.7074(3) 0.7196(4) 0.1035(3)
C9Q C 0.7088(3) 0.6721(4) 0.1033(3)
H5Q H 0.7392 0.6715 0.1172
C12Q C 0.6200(3) 0.5246(4) 0.0916(4)
H6Q H 0.5867 0.5235 0.0978
C13Q C 0.6218(3) 0.4786(4) 0.0909(4)
H7Q H 0.5889 0.4455 0.0961
Ni1A Ni 0.59684(4) 0.26354(4) 0.0833
O2A O 0.28699(18) -0.28317(25) -0.02024(19)
O3A O 0.37327(17) -0.22425(25) -0.03931(19)
N1A N 0.5238(2) 0.1905(2) 0.0833
N2A N 0.2766(3) -0.0567(3) 0.0833
C1A C 0.3279(3) -0.2364(4) -0.0213(3)
C2A C 0.3232(2) -0.1902(3) -0.0011(3)
C3A C 0.2848(3) -0.1969(4) 0.0341(4)
H1A H 0.2589 -0.2325 0.0442
C4A C 0.2824(3) -0.1531(4) 0.0556(4)
H2A H 0.2563 -0.1591 0.0807
C5A C 0.3184(3) -0.1014(4) 0.0396(3)
C6A C 0.3542(3) -0.0956(4) 0.0012(3)
H3A H 0.3774 -0.0606 -0.0121
C7A C 0.3573(3) -0.1385(4) -0.0183(3)
H4A H 0.3830 -0.1326 -0.0438
C8A C 0.3212(3) -0.0529(4) 0.0632(3)
C9A C 0.3701(3) -0.0054(4) 0.0634(3)
H5A H 0.4011 -0.0048 0.0495
C10A C 0.3747(3) 0.0414(3) 0.0833
C11A C 0.4260(3) 0.0927(3) 0.0833
C12A C 0.4288(3) 0.1421(4) 0.0751(4)
H6A H 0.3966 0.1432 0.0689
C13A C 0.4766(3) 0.1881(4) 0.0758(4)
H7A H 0.4768 0.2212 0.0706
O2P O 0.05016(25) -0.04634(18) 0.18691(19)
O3P O 0.10908(25) 0.03994(17) 0.20598(19)
C1P C 0.0969(4) -0.0054(3) 0.1880(3)
C2P C 0.1431(3) -0.0101(2) 0.1678(3)
C3P C 0.1364(4) -0.0485(3) 0.1326(4)
H1P H 0.1008 -0.0744 0.1225
C4P C 0.1802(4) -0.0509(3) 0.1111(4)
H2P H 0.1742 -0.0770 0.0860
C5P C 0.2319(4) -0.0149(3) 0.1271(3)
C6P C 0.2377(4) 0.0209(3) 0.1655(3)
H3P H 0.2727 0.0441 0.1788
C7P C 0.1948(4) 0.0240(3) 0.1850(3)
H4P H 0.2007 0.0497 0.2105
C8P C 0.2804(4) -0.0121(3) 0.1035(3)
C9P C 0.3279(4) 0.0368(3) 0.1033(3)
H5P H 0.3285 0.0678 0.1172
C12P C 0.4754(4) 0.0955(3) 0.0916(4)
H6P H 0.4765 0.0633 0.0978
C13P C 0.5214(4) 0.1433(3) 0.0909(4)
H7P H 0.5545 0.1435 0.0961
Ni1B Ni 0.73646(4) 0.3333 0.0833
O2B O 1.28317(25) 0.57016(17) -0.02024(19)
O3B O 1.22425(25) 0.59752(18) -0.03931(19)
N1B N 0.8095(2) 0.3333 0.0833
N2B N 1.0567(3) 0.3333 0.0833
C1B C 1.2364(4) 0.5643(3) -0.0213(3)
C2B C 1.1902(3) 0.5134(2) -0.0011(3)
C3B C 1.1969(4) 0.4817(3) 0.0341(4)
H1B H 1.2325 0.4914 0.0442
C4B C 1.1531(4) 0.4355(3) 0.0556(4)
H2B H 1.1591 0.4154 0.0807
C5B C 1.1014(4) 0.4198(3) 0.0396(3)
C6B C 1.0956(4) 0.4498(3) 0.0012(3)
H3B H 1.0606 0.4380 -0.0121
C7B C 1.1385(4) 0.4958(3) -0.0183(3)
H4B H 1.1326 0.5156 -0.0438
C8B C 1.0529(4) 0.3741(3) 0.0632(3)
C9B C 1.0054(4) 0.3755(3) 0.0634(3)
H5B H 1.0048 0.4059 0.0495
C10B C 0.9586(3) 0.3333 0.0833
C11B C 0.9073(3) 0.3333 0.0833
C12B C 0.8579(4) 0.2867(3) 0.0751(4)
H6B H 0.8568 0.2534 0.0689
C13B C 0.8119(4) 0.2885(3) 0.0758(4)
H7B H 0.7788 0.2556 0.0706
O2O O 1.04634(18) 0.09651(17) 0.18691(19)
O3O O 0.96006(17) 0.06915(18) 0.20598(19)
C1O C 1.0054(3) 0.1024(3) 0.1880(3)
C2O C 1.0101(2) 0.1533(2) 0.1678(3)
C3O C 1.0485(3) 0.1850(3) 0.1326(4)
H1O H 1.0744 0.1753 0.1225
C4O C 1.0509(3) 0.2312(3) 0.1111(4)
H2O H 1.0770 0.2513 0.0860
C5O C 1.0149(3) 0.2469(3) 0.1271(3)
C6O C 0.9791(3) 0.2169(3) 0.1655(3)
H3O H 0.9559 0.2287 0.1788
C7O C 0.9760(3) 0.1709(3) 0.1850(3)
H4O H 0.9503 0.1511 0.2105
C8O C 1.0121(3) 0.2926(3) 0.1035(3)
C9O C 0.9632(3) 0.2912(3) 0.1033(3)
H5O H 0.9322 0.2608 0.1172
C12O C 0.9045(3) 0.3800(3) 0.0916(4)
H6O H 0.9367 0.4133 0.0978
C13O C 0.8567(3) 0.3782(3) 0.0909(4)
H7O H 0.8565 0.4111 0.0961
Ni1R Ni 0.3333 0.59684(4) -0.0833
Ni1R_2 Ni 1.3333 0.59684(4) -0.0833
Ni1S Ni 0.40316(4) -0.26354(4) -0.0833
Ni1S_2 Ni 0.40316(4) 0.73646(4) -0.0833
Ni1T Ni 0.26354(4) -0.3333 -0.0833
Ni1T_2 Ni 1.26354(4) 0.6667 -0.0833
Ni1DA Ni -0.0000 -0.06983(4) 0.2500
Ni1DA_2 Ni 1.0000 0.93017(4) 0.2500
Ni1EA Ni 0.06983(4) 0.06979(4) 0.2500
Ni1EA_2 Ni 1.06983(4) 0.06979(4) 0.2500
Ni1FA Ni 0.93021(4) 0.0000 0.2500
Ni1FA_2 Ni 0.93021(4) 1.0000 0.2500
O2R O 0.57016(17) 0.28699(18) 0.02024(19)
O2S O 0.71301(18) 0.28317(25) 0.02024(19)
O2T O 0.71683(25) 0.42984(17) 0.02024(19)
O2AA O 0.62032(18) 0.23683(17) 0.14643(19)
O2BA O 0.61650(25) 0.37968(18) 0.14643(19)
O2CA O 0.76317(17) 0.38350(25) 0.14643(19)
O3R O 0.59752(18) 0.37327(17) 0.03931(19)
O3S O 0.62673(17) 0.22425(25) 0.03931(19)
O3T O 0.77575(25) 0.40248(18) 0.03931(19)
O3AA O 0.70660(17) 0.26419(18) 0.12736(19)
O3BA O 0.55758(25) 0.29340(17) 0.12736(19)
O3CA O 0.73581(18) 0.44242(25) 0.12736(19)
N3 N 0.4606(4) 0.4658(5) 0.0591(5)
C14 C 0.4616(5) 0.4491(4) 0.1080(6)
H8 H 0.4612 0.4161 0.1137
C15 C 0.4632(5) 0.4808(6) 0.1484(4)
H9 H 0.4639 0.4693 0.1818
C16 C 0.4638(5) 0.5291(6) 0.1399(5)
H10 H 0.4649 0.5507 0.1676
C17 C 0.4628(5) 0.5458(4) 0.0910(7)
H11 H 0.4632 0.5788 0.0853
C18 C 0.4612(4) 0.5142(6) 0.0506(4)
H12 H 0.4605 0.5256 0.0172
C19? C 0.6528(15) 0.6007(12) 0.2393(17)
H13? H 0.6883 0.6114 0.2260
C20? C 0.614(2) 0.5470(7) 0.248(2)
H14? H 0.6229 0.5203 0.2403
C21? C 0.5637(18) 0.5342(11) 0.2671(17)
H15? H 0.5377 0.4981 0.2726
C22? C 0.5522(15) 0.575(2) 0.2777(15)
H16? H 0.5178 0.5668 0.2909
C23? C 0.591(2) 0.6288(18) 0.2692(14)
H17? H 0.5835 0.6581 0.2765
H18? H 0.6667 0.3333 0.1209
N4? N 0.6414(19) 0.6414(19) 0.2500
loop_
_geom_bond_atom_site_label_1
_geom_bond_atom_site_label_2
_geom_bond_site_symmetry_1
_geom_bond_site_symmetry_2
Ni1 O1 1_555 1_555
O1 Ni1A 1_555 1_555
O2 C1 1_555 1_555
O3 C1 1_555 1_555
N1 Ni1 1_555 1_555
N2 C8 1_555 1_555
C1 C2 1_555 1_555
C2 C3 1_555 1_555
C3 H1 1_555 1_555
C4 C3 1_555 1_555
H2 C4 1_555 1_555
C5 C4 1_555 1_555
C6 C5 1_555 1_555
H3 C6 1_555 1_555
C7 C2 1_555 1_555
H4 C7 1_555 1_555
C8 C5 1_555 1_555
C9 C8 1_555 1_555
H5 C9 1_555 1_555
C10 C9 1_555 1_555
C11 C10 1_555 1_555
C12 C11 1_555 1_555
H6 C12 1_555 1_555
C13 N1 1_555 1_555
H7 C13 1_555 1_555
N3 C14 1_555 1_555
C14 H8 1_555 1_555
C15 C14 1_555 1_555
H9 C15 1_555 1_555
C16 C15 1_555 1_555
H10 C16 1_555 1_555
C17 C16 1_555 1_555
H11 C17 1_555 1_555
C18 N3 1_555 1_555
H12 C18 1_555 1_555
O2Q C1Q 1_555 1_555
O3Q C1Q 1_555 1_555
C1Q C2Q 1_555 1_555
C2Q C3Q 1_555 1_555
C3Q H1Q 1_555 1_555
C4Q C3Q 1_555 1_555
H2Q C4Q 1_555 1_555
C5Q C4Q 1_555 1_555
C6Q C5Q 1_555 1_555
H3Q C6Q 1_555 1_555
C7Q C2Q 1_555 1_555
H4Q C7Q 1_555 1_555
C8Q N2 1_555 1_555
C9Q C10 1_555 1_555
H5Q C9Q 1_555 1_555
C12Q C11 1_555 1_555
H6Q C12Q 1_555 1_555
C13Q N1 1_555 1_555
H7Q C13Q 1_555 1_555
Ni1A N1A 1_555 1_555
O2A C1A 1_555 1_555
O3A C1A 1_555 1_555
N1A C13A 1_555 1_555
N2A C8A 1_555 1_555
C1A C2A 1_555 1_555
C2A C3A 1_555 1_555
C3A H1A 1_555 1_555
C4A C3A 1_555 1_555
H2A C4A 1_555 1_555
C5A C4A 1_555 1_555
C6A C5A 1_555 1_555
H3A C6A 1_555 1_555
C7A C2A 1_555 1_555
H4A C7A 1_555 1_555
C8A C5A 1_555 1_555
C9A C8A 1_555 1_555
H5A C9A 1_555 1_555
C10A C9A 1_555 1_555
C11A C10A 1_555 1_555
C12A C11A 1_555 1_555
H6A C12A 1_555 1_555
C13A C12A 1_555 1_555
H7A C13A 1_555 1_555
O2P C1P 1_555 1_555
O3P C1P 1_555 1_555
C1P C2P 1_555 1_555
C2P C3P 1_555 1_555
C3P H1P 1_555 1_555
C4P C3P 1_555 1_555
H2P C4P 1_555 1_555
C5P C4P 1_555 1_555
C6P C5P 1_555 1_555
H3P C6P 1_555 1_555
C7P C2P 1_555 1_555
H4P C7P 1_555 1_555
C8P N2A 1_555 1_555
C9P C10A 1_555 1_555
H5P C9P 1_555 1_555
C12P C11A 1_555 1_555
H6P C12P 1_555 1_555
C13P N1A 1_555 1_555
H7P C13P 1_555 1_555
Ni1B O1 1_555 1_555
O2B C1B 1_555 1_555
O3B C1B 1_555 1_555
N1B Ni1B 1_555 1_555
N2B C8B 1_555 1_555
C1B C2B 1_555 1_555
C2B C3B 1_555 1_555
C3B H1B 1_555 1_555
C4B C3B 1_555 1_555
H2B C4B 1_555 1_555
C5B C4B 1_555 1_555
C6B C5B 1_555 1_555
H3B C6B 1_555 1_555
C7B C2B 1_555 1_555
H4B C7B 1_555 1_555
C8B C5B 1_555 1_555
C9B C8B 1_555 1_555
H5B C9B 1_555 1_555
C10B C9B 1_555 1_555
C11B C10B 1_555 1_555
C12B C11B 1_555 1_555
H6B C12B 1_555 1_555
C13B N1B 1_555 1_555
H7B C13B 1_555 1_555
O2O C1O 1_555 1_555
O3O C1O 1_555 1_555
C1O C2O 1_555 1_555
C2O C3O 1_555 1_555
C3O H1O 1_555 1_555
C4O C3O 1_555 1_555
H2O C4O 1_555 1_555
C5O C4O 1_555 1_555
C6O C5O 1_555 1_555
H3O C6O 1_555 1_555
C7O C2O 1_555 1_555
H4O C7O 1_555 1_555
C8O N2B 1_555 1_555
C9O C10B 1_555 1_555
H5O C9O 1_555 1_555
C12O C11B 1_555 1_555
H6O C12O 1_555 1_555
C13O N1B 1_555 1_555
H7O C13O 1_555 1_555
Ni1R O3 1_555 1_555
Ni1R_2 O2B 1_555 1_555
Ni1S O3A 1_555 1_555
Ni1S_2 O2 1_555 1_555
Ni1T O2A 1_555 1_555
Ni1T_2 O3B 1_555 1_555
Ni1DA O2P 1_555 1_555
Ni1DA_2 O3Q 1_555 1_555
Ni1EA O3P 1_555 1_555
Ni1EA_2 O2O 1_555 1_555
Ni1FA O3O 1_555 1_555
Ni1FA_2 O2Q 1_555 1_555
O2R Ni1A 1_555 1_555
O2S Ni1B 1_555 1_555
O2T Ni1 1_555 1_555
O2AA Ni1A 1_555 1_555
O2BA Ni1 1_555 1_555
O2CA Ni1B 1_555 1_555
O3R Ni1 1_555 1_555
O3S Ni1A 1_555 1_555
O3T Ni1B 1_555 1_555
O3AA Ni1B 1_555 1_555
O3BA Ni1A 1_555 1_555
O3CA Ni1 1_555 1_555
C6 C7 1_555 1_555
C12 C13 1_555 1_555
C17 C18 1_555 1_555
C5Q C8Q 1_555 1_555
C6Q C7Q 1_555 1_555
C8Q C9Q 1_555 1_555
C12Q C13Q 1_555 1_555
C6A C7A 1_555 1_555
C5P C8P 1_555 1_555
C6P C7P 1_555 1_555
C8P C9P 1_555 1_555
C12P C13P 1_555 1_555
C6B C7B 1_555 1_555
C12B C13B 1_555 1_555
C5O C8O 1_555 1_555
C6O C7O 1_555 1_555
C8O C9O 1_555 1_555
C12O C13O 1_555 1_555

#END
