
#######################################################################
#
#                 Cambridge Crystallographic Data Centre
#                                CCDC 
#
#######################################################################
#
# If this CIF has been generated from an entry in the Cambridge 
# Structural Database, then it will include bibliographic, chemical, 
# crystal, experimental, refinement or atomic coordinate data resulting 
# from the CCDC's data processing and validation procedures.
#
#######################################################################

data_BEPREV02
_chemical_formula_moiety         '(C72 H43 N6 Ni3 O13)n,12n(C3 H7 N1 O1)'
_chemical_name_systematic        
"catena-[tris(\m~5~-4,4'-(4,4'-Bipyridine-2,6-diyl)dibenzoato)-(\m~3~-hydroxo)-tri-nickel N,N-dimethylformamide solvate]"
_symmetry_cell_setting           rhombohedral
_symmetry_space_group_name_H-M   'R -3 c'
_symmetry_Int_Tables_number      167
_space_group_name_Hall           '-R 3 2"c'
loop_
_symmetry_equiv_pos_site_id
_symmetry_equiv_pos_as_xyz
1 x,y,z
2 -y,x-y,z
3 -x+y,-x,z
4 y,x,1/2-z
5 x-y,-y,1/2-z
6 -x,-x+y,1/2-z
7 2/3+x,1/3+y,1/3+z
8 2/3-y,1/3+x-y,1/3+z
9 2/3-x+y,1/3-x,1/3+z
10 2/3+y,1/3+x,5/6-z
11 2/3+x-y,1/3-y,5/6-z
12 2/3-x,1/3-x+y,5/6-z
13 1/3+x,2/3+y,2/3+z
14 1/3-y,2/3+x-y,2/3+z
15 1/3-x+y,2/3-x,2/3+z
16 1/3+y,2/3+x,1/6-z
17 1/3+x-y,2/3-y,1/6-z
18 1/3-x,2/3-x+y,1/6-z
19 -x,-y,-z
20 y,-x+y,-z
21 x-y,x,-z
22 -y,-x,1/2+z
23 -x+y,y,1/2+z
24 x,x-y,1/2+z
25 1/3-x,2/3-y,2/3-z
26 1/3+y,2/3-x+y,2/3-z
27 1/3+x-y,2/3+x,2/3-z
28 1/3-y,2/3-x,1/6+z
29 1/3-x+y,2/3+y,1/6+z
30 1/3+x,2/3+x-y,1/6+z
31 2/3-x,1/3-y,1/3-z
32 2/3+y,1/3-x+y,1/3-z
33 2/3+x-y,1/3+x,1/3-z
34 2/3-y,1/3-x,5/6+z
35 2/3-x+y,1/3+y,5/6+z
36 2/3+x,1/3+x-y,5/6+z
_cell_length_a                   29.050(2)
_cell_length_b                   29.050(2)
_cell_length_c                   24.502(2)
_cell_angle_alpha                90
_cell_angle_beta                 90
_cell_angle_gamma                120
_cell_volume                     17907.1
_exptl_crystal_colour            green
_exptl_crystal_description       plate
_cell_formula_units_Z            6
loop_
_atom_site_label
_atom_site_type_symbol
_atom_site_fract_x
_atom_site_fract_y
_atom_site_fract_z
Ni1 Ni 0.6667 0.40226(2) 0.0833
O1 O 0.6667 0.3333 0.0833
O2 O 0.43550(13) 0.71369(13) -0.02084(15)
O3 O 0.39687(13) 0.62551(13) -0.02764(16)
N1 N 0.6667 0.47405(18) 0.0833
N2 N 0.6667 0.71847(19) 0.0833
C1 C 0.43422(17) 0.67051(17) -0.01434(18)
C2 C 0.48256(19) 0.67253(18) 0.0118(2)
C3 C 0.5289(2) 0.7193(2) 0.0211(3)
H1 H 0.5302 0.7513 0.0140
C4 C 0.5741(2) 0.7199(2) 0.0409(3)
H2 H 0.6049 0.7523 0.0464
C5 C 0.5743(2) 0.6740(2) 0.0523(3)
C6 C 0.5251(3) 0.6268(3) 0.0493(4)
H3 H 0.5224 0.5951 0.0611
C7 C 0.4807(3) 0.6266(2) 0.0292(4)
H4 H 0.4487 0.5947 0.0272
C8 C 0.6227(2) 0.6724(2) 0.0690(3)
C9 C 0.6219(2) 0.6243(2) 0.0683(3)
H5 H 0.5913 0.5935 0.0577
C10 C 0.6667 0.6219(2) 0.0833
C11 C 0.6667 0.5705(2) 0.0833
C12 C 0.7135(2) 0.5691(2) 0.0854(3)
H6 H 0.7460 0.6006 0.0864
C13 C 0.7117(2) 0.5208(2) 0.0859(3)
H7 H 0.7436 0.5208 0.0881
O2Q O 0.89783(13) 0.94486(18) 0.18751(15)
O3Q O 0.93646(13) 0.89531(18) 0.19431(16)
C1Q C 0.89911(17) 0.90296(24) 0.18101(18)
C2Q C 0.85077(19) 0.85664(26) 0.1549(2)
C3Q C 0.8044(2) 0.8571(3) 0.1456(3)
H1Q H 0.8031 0.8878 0.1527
C4Q C 0.7592(2) 0.8125(3) 0.1258(3)
H2Q H 0.7284 0.8141 0.1203
C5Q C 0.7590(2) 0.7664(3) 0.1144(3)
C6Q C 0.8082(3) 0.7684(4) 0.1174(4)
H3Q H 0.8109 0.7394 0.1056
C7Q C 0.8526(3) 0.8126(4) 0.1375(4)
H4Q H 0.8846 0.8127 0.1395
C8Q C 0.7106(2) 0.7164(3) 0.0977(3)
C9Q C 0.7114(2) 0.6691(3) 0.0984(3)
H5Q H 0.7420 0.6689 0.1090
C12Q C 0.6198(2) 0.5223(3) 0.0813(3)
H6Q H 0.5873 0.5213 0.0803
C13Q C 0.6216(2) 0.4758(3) 0.0808(3)
H7Q H 0.5897 0.4439 0.0786
Ni1A Ni 0.59774(2) 0.26444(2) 0.0833
O2A O 0.28631(13) -0.27819(18) -0.02084(15)
O3A O 0.37449(13) -0.22864(18) -0.02764(16)
N1A N 0.52595(18) 0.19265(18) 0.0833
N2A N 0.28153(19) -0.05177(19) 0.0833
C1A C 0.32949(17) -0.23629(24) -0.01434(18)
C2A C 0.32747(18) -0.18997(26) 0.0118(2)
C3A C 0.2807(2) -0.1904(3) 0.0211(3)
H1A H 0.2487 -0.2211 0.0140
C4A C 0.2801(2) -0.1458(3) 0.0409(3)
H2A H 0.2477 -0.1474 0.0464
C5A C 0.3260(2) -0.0997(3) 0.0523(3)
C6A C 0.3732(3) -0.1017(4) 0.0493(4)
H3A H 0.4049 -0.0727 0.0611
C7A C 0.3734(2) -0.1459(4) 0.0292(4)
H4A H 0.4053 -0.1460 0.0272
C8A C 0.3276(2) -0.0497(3) 0.0690(3)
C9A C 0.3757(2) -0.0024(3) 0.0683(3)
H5A H 0.4065 -0.0022 0.0577
C10A C 0.3781(2) 0.0448(2) 0.0833
C11A C 0.4295(2) 0.0962(2) 0.0833
C12A C 0.4309(2) 0.1444(3) 0.0854(3)
H6A H 0.3994 0.1454 0.0864
C13A C 0.4792(2) 0.1909(3) 0.0859(3)
H7A H 0.4792 0.2228 0.0881
O2P O 0.05514(18) -0.04702(13) 0.18751(15)
O3P O 0.10469(18) 0.04116(13) 0.19431(16)
C1P C 0.09704(24) -0.00384(17) 0.18101(18)
C2P C 0.14336(26) -0.00586(18) 0.1549(2)
C3P C 0.1429(3) -0.0526(2) 0.1456(3)
H1P H 0.1122 -0.0846 0.1527
C4P C 0.1875(3) -0.0532(2) 0.1258(3)
H2P H 0.1859 -0.0856 0.1203
C5P C 0.2336(3) -0.0073(2) 0.1144(3)
C6P C 0.2316(4) 0.0399(3) 0.1174(4)
H3P H 0.2606 0.0716 0.1056
C7P C 0.1874(4) 0.0401(2) 0.1375(4)
H4P H 0.1873 0.0720 0.1395
C8P C 0.2836(3) -0.0057(2) 0.0977(3)
C9P C 0.3309(3) 0.0424(2) 0.0984(3)
H5P H 0.3311 0.0732 0.1090
C12P C 0.4777(3) 0.0976(2) 0.0813(3)
H6P H 0.4787 0.0661 0.0803
C13P C 0.5242(3) 0.1459(2) 0.0808(3)
H7P H 0.5561 0.1459 0.0786
Ni1B Ni 0.73556(2) 0.3333 0.0833
O2B O 1.27819(18) 0.56450(13) -0.02084(15)
O3B O 1.22864(18) 0.60313(13) -0.02764(16)
N1B N 0.80735(18) 0.3333 0.0833
N2B N 1.05177(19) 0.3333 0.0833
C1B C 1.23629(24) 0.56578(17) -0.01434(18)
C2B C 1.18997(26) 0.51744(19) 0.0118(2)
C3B C 1.1904(3) 0.4711(2) 0.0211(3)
H1B H 1.2211 0.4698 0.0140
C4B C 1.1458(3) 0.4259(2) 0.0409(3)
H2B H 1.1474 0.3951 0.0464
C5B C 1.0997(3) 0.4257(2) 0.0523(3)
C6B C 1.1017(4) 0.4749(3) 0.0493(4)
H3B H 1.0727 0.4776 0.0611
C7B C 1.1459(4) 0.5193(3) 0.0292(4)
H4B H 1.1460 0.5513 0.0272
C8B C 1.0497(3) 0.3773(2) 0.0690(3)
C9B C 1.0024(3) 0.3781(2) 0.0683(3)
H5B H 1.0022 0.4087 0.0577
C10B C 0.9552(2) 0.3333 0.0833
C11B C 0.9038(2) 0.3333 0.0833
C12B C 0.8556(3) 0.2865(2) 0.0854(3)
H6B H 0.8546 0.2540 0.0864
C13B C 0.8091(3) 0.2883(2) 0.0859(3)
H7B H 0.7772 0.2564 0.0881
O2O O 1.04702(13) 0.10217(13) 0.18751(15)
O3O O 0.95884(13) 0.06354(13) 0.19431(16)
C1O C 1.00384(17) 0.10089(17) 0.18101(18)
C2O C 1.00586(18) 0.14923(19) 0.1549(2)
C3O C 1.0526(2) 0.1956(2) 0.1456(3)
H1O H 1.0846 0.1969 0.1527
C4O C 1.0532(2) 0.2408(2) 0.1258(3)
H2O H 1.0856 0.2716 0.1203
C5O C 1.0073(2) 0.2410(2) 0.1144(3)
C6O C 0.9601(3) 0.1918(3) 0.1174(4)
H3O H 0.9284 0.1891 0.1056
C7O C 0.9599(2) 0.1474(3) 0.1375(4)
H4O H 0.9280 0.1154 0.1395
C8O C 1.0057(2) 0.2894(2) 0.0977(3)
C9O C 0.9576(2) 0.2886(2) 0.0984(3)
H5O H 0.9268 0.2580 0.1090
C12O C 0.9024(2) 0.3802(2) 0.0813(3)
H6O H 0.9339 0.4127 0.0803
C13O C 0.8541(2) 0.3784(2) 0.0808(3)
H7O H 0.8541 0.4103 0.0786
Ni1R Ni 0.3333 0.59774(2) -0.0833
Ni1R_2 Ni 1.3333 0.59774(2) -0.0833
Ni1S Ni 0.40226(2) -0.26444(2) -0.0833
Ni1S_2 Ni 0.40226(2) 0.73556(2) -0.0833
Ni1T Ni 0.26444(2) -0.3333 -0.0833
Ni1T_2 Ni 1.26444(2) 0.6667 -0.0833
Ni1DA Ni -0.0000 -0.06893(2) 0.2500
Ni1DA_2 Ni 1.0000 0.93107(2) 0.2500
Ni1EA Ni 0.06893(2) 0.06889(2) 0.2500
Ni1EA_2 Ni 1.06893(2) 0.06889(2) 0.2500
Ni1FA Ni 0.93111(2) 0.0000 0.2500
Ni1FA_2 Ni 0.93111(2) 1.0000 0.2500
O2R O 0.56450(13) 0.28631(13) 0.02084(15)
O2S O 0.71369(13) 0.27819(18) 0.02084(15)
O2T O 0.72181(18) 0.43550(13) 0.02084(15)
O2AA O 0.61964(13) 0.23117(13) 0.14583(15)
O2BA O 0.61152(18) 0.38036(13) 0.14583(15)
O2CA O 0.76883(13) 0.38848(18) 0.14583(15)
O3R O 0.60313(13) 0.37449(13) 0.02764(16)
O3S O 0.62551(13) 0.22864(18) 0.02764(16)
O3T O 0.77136(18) 0.39687(13) 0.02764(16)
O3AA O 0.70782(13) 0.26980(13) 0.13903(16)
O3BA O 0.56197(18) 0.29218(13) 0.13903(16)
O3CA O 0.73020(13) 0.43803(18) 0.13903(16)
O4 O 0.6701(13) 0.5100(14) 0.2395(13)
N3 N 0.6856(12) 0.4486(11) 0.2829(12)
C14 C 0.6646(10) 0.4662(12) 0.2433(12)
H8 H 0.6439 0.4417 0.2167
C15 C 0.6838(17) 0.3987(12) 0.2723(17)
H9 H 0.6593 0.3804 0.2432
H10 H 0.6724 0.3771 0.3047
H11 H 0.7186 0.4055 0.2622
C16 C 0.7208(18) 0.4862(17) 0.3235(15)
H12 H 0.7176 0.5175 0.3228
H13 H 0.7569 0.4957 0.3155
H14 H 0.7113 0.4702 0.3590
O5 O 0.8397(11) 0.6795(11) 0.2183(11)
N4 N 0.7587(11) 0.6419(12) 0.2621(13)
C17 C 0.8071(11) 0.6468(11) 0.2477(11)
H15 H 0.8149 0.6221 0.2625
C18 C 0.7261(15) 0.5946(15) 0.295(2)
H16 H 0.7430 0.5735 0.2967
H17 H 0.6918 0.5742 0.2778
H18 H 0.7220 0.6049 0.3307
C19 C 0.7494(15) 0.6843(16) 0.2445(18)
H19 H 0.7755 0.7058 0.2177
H20 H 0.7520 0.7059 0.2753
H21 H 0.7145 0.6693 0.2288
O6? O 0.5428(15) 0.5193(14) 0.3362(8)
C20? C 0.5371(13) 0.5477(11) 0.3038(6)
H22? H 0.5202 0.5662 0.3187
C21? C 0.5336(16) 0.5791(18) 0.2135(16)
H23? H 0.5154 0.5918 0.2363
H24? H 0.5622 0.6085 0.1948
H25? H 0.5092 0.5544 0.1873
C22? C 0.5826(14) 0.5304(14) 0.2266(14)
H26? H 0.5946 0.5141 0.2528
H27? H 0.5597 0.5043 0.2006
H28? H 0.6127 0.5584 0.2081
H29? H 0.6667 0.3333 0.1233
N5? N 0.5536(7) 0.5536(7) 0.2500
loop_
_geom_bond_atom_site_label_1
_geom_bond_atom_site_label_2
_geom_bond_site_symmetry_1
_geom_bond_site_symmetry_2
Ni1 O1 1_555 1_555
O1 Ni1A 1_555 1_555
O2 C1 1_555 1_555
O3 C1 1_555 1_555
N1 Ni1 1_555 1_555
N2 C8 1_555 1_555
C1 C2 1_555 1_555
C2 C3 1_555 1_555
C3 H1 1_555 1_555
C4 C3 1_555 1_555
H2 C4 1_555 1_555
C5 C4 1_555 1_555
C6 C5 1_555 1_555
H3 C6 1_555 1_555
C7 C2 1_555 1_555
H4 C7 1_555 1_555
C8 C5 1_555 1_555
C9 C8 1_555 1_555
H5 C9 1_555 1_555
C10 C9 1_555 1_555
C11 C10 1_555 1_555
C12 C11 1_555 1_555
H6 C12 1_555 1_555
C13 N1 1_555 1_555
H7 C13 1_555 1_555
O4 C14 1_555 1_555
N3 C14 1_555 1_555
C14 H8 1_555 1_555
C15 N3 1_555 1_555
H9 C15 1_555 1_555
H10 C15 1_555 1_555
H11 C15 1_555 1_555
C16 N3 1_555 1_555
H12 C16 1_555 1_555
H13 C16 1_555 1_555
H14 C16 1_555 1_555
O5 C17 1_555 1_555
N4 C17 1_555 1_555
C17 H15 1_555 1_555
C18 N4 1_555 1_555
H16 C18 1_555 1_555
H17 C18 1_555 1_555
H18 C18 1_555 1_555
C19 N4 1_555 1_555
H19 C19 1_555 1_555
H20 C19 1_555 1_555
H21 C19 1_555 1_555
O2Q C1Q 1_555 1_555
O3Q C1Q 1_555 1_555
C1Q C2Q 1_555 1_555
C2Q C3Q 1_555 1_555
C3Q H1Q 1_555 1_555
C4Q C3Q 1_555 1_555
H2Q C4Q 1_555 1_555
C5Q C4Q 1_555 1_555
C6Q C5Q 1_555 1_555
H3Q C6Q 1_555 1_555
C7Q C2Q 1_555 1_555
H4Q C7Q 1_555 1_555
C8Q N2 1_555 1_555
C9Q C10 1_555 1_555
H5Q C9Q 1_555 1_555
C12Q C11 1_555 1_555
H6Q C12Q 1_555 1_555
C13Q N1 1_555 1_555
H7Q C13Q 1_555 1_555
Ni1A N1A 1_555 1_555
O2A C1A 1_555 1_555
O3A C1A 1_555 1_555
N1A C13A 1_555 1_555
N2A C8A 1_555 1_555
C1A C2A 1_555 1_555
C2A C3A 1_555 1_555
C3A H1A 1_555 1_555
C4A C3A 1_555 1_555
H2A C4A 1_555 1_555
C5A C4A 1_555 1_555
C6A C5A 1_555 1_555
H3A C6A 1_555 1_555
C7A C2A 1_555 1_555
H4A C7A 1_555 1_555
C8A C5A 1_555 1_555
C9A C8A 1_555 1_555
H5A C9A 1_555 1_555
C10A C9A 1_555 1_555
C11A C10A 1_555 1_555
C12A C11A 1_555 1_555
H6A C12A 1_555 1_555
C13A C12A 1_555 1_555
H7A C13A 1_555 1_555
O2P C1P 1_555 1_555
O3P C1P 1_555 1_555
C1P C2P 1_555 1_555
C2P C3P 1_555 1_555
C3P H1P 1_555 1_555
C4P C3P 1_555 1_555
H2P C4P 1_555 1_555
C5P C4P 1_555 1_555
C6P C5P 1_555 1_555
H3P C6P 1_555 1_555
C7P C2P 1_555 1_555
H4P C7P 1_555 1_555
C8P N2A 1_555 1_555
C9P C10A 1_555 1_555
H5P C9P 1_555 1_555
C12P C11A 1_555 1_555
H6P C12P 1_555 1_555
C13P N1A 1_555 1_555
H7P C13P 1_555 1_555
Ni1B O1 1_555 1_555
O2B C1B 1_555 1_555
O3B C1B 1_555 1_555
N1B Ni1B 1_555 1_555
N2B C8B 1_555 1_555
C1B C2B 1_555 1_555
C2B C3B 1_555 1_555
C3B H1B 1_555 1_555
C4B C3B 1_555 1_555
H2B C4B 1_555 1_555
C5B C4B 1_555 1_555
C6B C5B 1_555 1_555
H3B C6B 1_555 1_555
C7B C2B 1_555 1_555
H4B C7B 1_555 1_555
C8B C5B 1_555 1_555
C9B C8B 1_555 1_555
H5B C9B 1_555 1_555
C10B C9B 1_555 1_555
C11B C10B 1_555 1_555
C12B C11B 1_555 1_555
H6B C12B 1_555 1_555
C13B N1B 1_555 1_555
H7B C13B 1_555 1_555
O2O C1O 1_555 1_555
O3O C1O 1_555 1_555
C1O C2O 1_555 1_555
C2O C3O 1_555 1_555
C3O H1O 1_555 1_555
C4O C3O 1_555 1_555
H2O C4O 1_555 1_555
C5O C4O 1_555 1_555
C6O C5O 1_555 1_555
H3O C6O 1_555 1_555
C7O C2O 1_555 1_555
H4O C7O 1_555 1_555
C8O N2B 1_555 1_555
C9O C10B 1_555 1_555
H5O C9O 1_555 1_555
C12O C11B 1_555 1_555
H6O C12O 1_555 1_555
C13O N1B 1_555 1_555
H7O C13O 1_555 1_555
Ni1R O3 1_555 1_555
Ni1R_2 O2B 1_555 1_555
Ni1S O3A 1_555 1_555
Ni1S_2 O2 1_555 1_555
Ni1T O2A 1_555 1_555
Ni1T_2 O3B 1_555 1_555
Ni1DA O2P 1_555 1_555
Ni1DA_2 O3Q 1_555 1_555
Ni1EA O3P 1_555 1_555
Ni1EA_2 O2O 1_555 1_555
Ni1FA O3O 1_555 1_555
Ni1FA_2 O2Q 1_555 1_555
O2R Ni1A 1_555 1_555
O2S Ni1B 1_555 1_555
O2T Ni1 1_555 1_555
O2AA Ni1A 1_555 1_555
O2BA Ni1 1_555 1_555
O2CA Ni1B 1_555 1_555
O3R Ni1 1_555 1_555
O3S Ni1A 1_555 1_555
O3T Ni1B 1_555 1_555
O3AA Ni1B 1_555 1_555
O3BA Ni1A 1_555 1_555
O3CA Ni1 1_555 1_555
C6 C7 1_555 1_555
C12 C13 1_555 1_555
C5Q C8Q 1_555 1_555
C6Q C7Q 1_555 1_555
C8Q C9Q 1_555 1_555
C12Q C13Q 1_555 1_555
C6A C7A 1_555 1_555
C5P C8P 1_555 1_555
C6P C7P 1_555 1_555
C8P C9P 1_555 1_555
C12P C13P 1_555 1_555
C6B C7B 1_555 1_555
C12B C13B 1_555 1_555
C5O C8O 1_555 1_555
C6O C7O 1_555 1_555
C8O C9O 1_555 1_555
C12O C13O 1_555 1_555

#END
