
#######################################################################
#
#                 Cambridge Crystallographic Data Centre
#                                CCDC 
#
#######################################################################
#
# If this CIF has been generated from an entry in the Cambridge 
# Structural Database, then it will include bibliographic, chemical, 
# crystal, experimental, refinement or atomic coordinate data resulting 
# from the CCDC's data processing and validation procedures.
#
#######################################################################

data_BEPREV
_chemical_formula_moiety         '(C72 H43 N6 Ni3 O13)n,12n(C3 H7 N1 O1)'
_chemical_name_systematic        
"catena-[tris(\m~5~-4,4'-(4,4'-Bipyridine-2,6-diyl)dibenzoato)-(\m~3~-hydroxo)-tri-nickel N,N-dimethylformamide solvate]"
_symmetry_cell_setting           rhombohedral
_symmetry_space_group_name_H-M   'R -3 c'
_symmetry_Int_Tables_number      167
_space_group_name_Hall           '-R 3 2"c'
loop_
_symmetry_equiv_pos_site_id
_symmetry_equiv_pos_as_xyz
1 x,y,z
2 -y,x-y,z
3 -x+y,-x,z
4 y,x,1/2-z
5 x-y,-y,1/2-z
6 -x,-x+y,1/2-z
7 2/3+x,1/3+y,1/3+z
8 2/3-y,1/3+x-y,1/3+z
9 2/3-x+y,1/3-x,1/3+z
10 2/3+y,1/3+x,5/6-z
11 2/3+x-y,1/3-y,5/6-z
12 2/3-x,1/3-x+y,5/6-z
13 1/3+x,2/3+y,2/3+z
14 1/3-y,2/3+x-y,2/3+z
15 1/3-x+y,2/3-x,2/3+z
16 1/3+y,2/3+x,1/6-z
17 1/3+x-y,2/3-y,1/6-z
18 1/3-x,2/3-x+y,1/6-z
19 -x,-y,-z
20 y,-x+y,-z
21 x-y,x,-z
22 -y,-x,1/2+z
23 -x+y,y,1/2+z
24 x,x-y,1/2+z
25 1/3-x,2/3-y,2/3-z
26 1/3+y,2/3-x+y,2/3-z
27 1/3+x-y,2/3+x,2/3-z
28 1/3-y,2/3-x,1/6+z
29 1/3-x+y,2/3+y,1/6+z
30 1/3+x,2/3+x-y,1/6+z
31 2/3-x,1/3-y,1/3-z
32 2/3+y,1/3-x+y,1/3-z
33 2/3+x-y,1/3+x,1/3-z
34 2/3-y,1/3-x,5/6+z
35 2/3-x+y,1/3+y,5/6+z
36 2/3+x,1/3+x-y,5/6+z
_cell_length_a                   29.106(3)
_cell_length_b                   29.106(3)
_cell_length_c                   23.417(2)
_cell_angle_alpha                90
_cell_angle_beta                 90
_cell_angle_gamma                120
_cell_volume                     17180.1
_exptl_crystal_colour            green
_exptl_crystal_description       plate
_cell_formula_units_Z            6
loop_
_atom_site_label
_atom_site_type_symbol
_atom_site_fract_x
_atom_site_fract_y
_atom_site_fract_z
Ni1 Ni 0.6667 0.40219(3) 0.0833
O1 O 0.6667 0.3333 0.0833
O2 O 0.43413(17) 0.71377(18) -0.0172(2)
O3 O 0.39683(18) 0.62573(17) -0.0269(2)
N1 N 0.6667 0.4738(3) 0.0833
N2 N 0.6667 0.7178(3) 0.0833
C1 C 0.4337(2) 0.6704(2) -0.0117(3)
C2 C 0.4820(3) 0.6726(3) 0.0142(3)
C3 C 0.5293(3) 0.7193(3) 0.0213(4)
H1 H 0.5310 0.7520 0.0129
C4 C 0.5749(3) 0.7195(3) 0.0406(4)
H2 H 0.6072 0.7522 0.0444
C5 C 0.5735(3) 0.6729(3) 0.0541(3)
C6 C 0.5246(3) 0.6265(3) 0.0525(5)
H3 H 0.5219 0.5944 0.0659
C7 C 0.4802(3) 0.6260(3) 0.0319(4)
H4 H 0.4477 0.5933 0.0298
C8 C 0.6226(3) 0.6717(3) 0.0696(3)
C9 C 0.6221(3) 0.6233(3) 0.0687(4)
H5 H 0.5908 0.5917 0.0578
C10 C 0.6667 0.6215(3) 0.0833
C11 C 0.6667 0.5701(3) 0.0833
C12 C 0.7136(3) 0.5684(3) 0.0865(4)
H6 H 0.7468 0.6005 0.0886
C13 C 0.7119(3) 0.5202(3) 0.0867(4)
H7 H 0.7444 0.5199 0.0893
O2Q O 0.89920(17) 0.94631(25) 0.1839(2)
O3Q O 0.93650(18) 0.89557(25) 0.1936(2)
C1Q C 0.8996(2) 0.9034(3) 0.1784(3)
C2Q C 0.8513(3) 0.8573(4) 0.1525(3)
C3Q C 0.8040(3) 0.8567(4) 0.1454(4)
H1Q H 0.8023 0.8877 0.1538
C4Q C 0.7584(3) 0.8113(4) 0.1261(4)
H2Q H 0.7261 0.8117 0.1223
C5Q C 0.7598(3) 0.7661(4) 0.1126(3)
C6Q C 0.8087(3) 0.7686(4) 0.1142(5)
H3Q H 0.8114 0.7392 0.1008
C7Q C 0.8531(3) 0.8125(4) 0.1348(4)
H4Q H 0.8856 0.8123 0.1369
C8Q C 0.7107(3) 0.7158(4) 0.0971(3)
C9Q C 0.7112(3) 0.6679(4) 0.0980(4)
H5Q H 0.7425 0.6676 0.1089
C12Q C 0.6197(3) 0.5215(4) 0.0802(4)
H6Q H 0.5865 0.5204 0.0781
C13Q C 0.6214(3) 0.4750(4) 0.0800(4)
H7Q H 0.5889 0.4422 0.0774
Ni1A Ni 0.59781(3) 0.26451(3) 0.0833
O2A O 0.28623(18) -0.27964(25) -0.0172(2)
O3A O 0.37427(17) -0.22890(25) -0.0269(2)
N1A N 0.5262(3) 0.1929(3) 0.0833
N2A N 0.2822(3) -0.0511(3) 0.0833
C1A C 0.3296(2) -0.2367(3) -0.0117(3)
C2A C 0.3274(3) -0.1906(4) 0.0142(3)
C3A C 0.2807(3) -0.1900(4) 0.0213(4)
H1A H 0.2480 -0.2210 0.0129
C4A C 0.2805(3) -0.1446(4) 0.0406(4)
H2A H 0.2478 -0.1450 0.0444
C5A C 0.3271(3) -0.0994(4) 0.0541(3)
C6A C 0.3735(3) -0.1019(4) 0.0525(5)
H3A H 0.4056 -0.0725 0.0659
C7A C 0.3740(3) -0.1458(4) 0.0319(4)
H4A H 0.4067 -0.1456 0.0298
C8A C 0.3283(3) -0.0491(4) 0.0696(3)
C9A C 0.3767(3) -0.0012(4) 0.0687(4)
H5A H 0.4083 -0.0009 0.0578
C10A C 0.3785(3) 0.0452(3) 0.0833
C11A C 0.4299(3) 0.0966(3) 0.0833
C12A C 0.4316(3) 0.1452(4) 0.0865(4)
H6A H 0.3995 0.1463 0.0886
C13A C 0.4798(3) 0.1917(4) 0.0867(4)
H7A H 0.4801 0.2245 0.0893
O2P O 0.05369(25) -0.04710(18) 0.1839(2)
O3P O 0.10443(25) 0.04094(17) 0.1936(2)
C1P C 0.0966(3) -0.0037(2) 0.1784(3)
C2P C 0.1427(4) -0.0059(3) 0.1525(3)
C3P C 0.1433(4) -0.0526(3) 0.1454(4)
H1P H 0.1123 -0.0853 0.1538
C4P C 0.1887(4) -0.0528(3) 0.1261(4)
H2P H 0.1883 -0.0855 0.1223
C5P C 0.2339(4) -0.0062(3) 0.1126(3)
C6P C 0.2314(4) 0.0402(3) 0.1142(5)
H3P H 0.2608 0.0723 0.1008
C7P C 0.1875(4) 0.0407(3) 0.1348(4)
H4P H 0.1877 0.0734 0.1369
C8P C 0.2842(4) -0.0050(3) 0.0971(3)
C9P C 0.3321(4) 0.0434(3) 0.0980(4)
H5P H 0.3324 0.0750 0.1089
C12P C 0.4785(4) 0.0983(3) 0.0802(4)
H6P H 0.4796 0.0662 0.0781
C13P C 0.5250(4) 0.1465(3) 0.0800(4)
H7P H 0.5578 0.1468 0.0774
Ni1B Ni 0.73549(3) 0.3333 0.0833
O2B O 1.27964(25) 0.56587(17) -0.0172(2)
O3B O 1.22890(25) 0.60317(18) -0.0269(2)
N1B N 0.8071(3) 0.3333 0.0833
N2B N 1.0511(3) 0.3333 0.0833
C1B C 1.2367(3) 0.5663(2) -0.0117(3)
C2B C 1.1906(4) 0.5180(3) 0.0142(3)
C3B C 1.1900(4) 0.4707(3) 0.0213(4)
H1B H 1.2210 0.4690 0.0129
C4B C 1.1446(4) 0.4251(3) 0.0406(4)
H2B H 1.1450 0.3928 0.0444
C5B C 1.0994(4) 0.4265(3) 0.0541(3)
C6B C 1.1019(4) 0.4754(3) 0.0525(5)
H3B H 1.0725 0.4781 0.0659
C7B C 1.1458(4) 0.5198(3) 0.0319(4)
H4B H 1.1456 0.5523 0.0298
C8B C 1.0491(4) 0.3774(3) 0.0696(3)
C9B C 1.0012(4) 0.3779(3) 0.0687(4)
H5B H 1.0009 0.4092 0.0578
C10B C 0.9548(3) 0.3333 0.0833
C11B C 0.9034(3) 0.3333 0.0833
C12B C 0.8548(4) 0.2864(3) 0.0865(4)
H6B H 0.8537 0.2532 0.0886
C13B C 0.8083(4) 0.2881(3) 0.0867(4)
H7B H 0.7755 0.2556 0.0893
O2O O 1.04710(18) 0.10080(17) 0.1839(2)
O3O O 0.95906(17) 0.06350(18) 0.1936(2)
C1O C 1.0037(2) 0.1004(2) 0.1784(3)
C2O C 1.0059(3) 0.1487(3) 0.1525(3)
C3O C 1.0526(3) 0.1960(3) 0.1454(4)
H1O H 1.0853 0.1977 0.1538
C4O C 1.0528(3) 0.2416(3) 0.1261(4)
H2O H 1.0855 0.2739 0.1223
C5O C 1.0062(3) 0.2402(3) 0.1126(3)
C6O C 0.9598(3) 0.1913(3) 0.1142(5)
H3O H 0.9277 0.1886 0.1008
C7O C 0.9593(3) 0.1469(3) 0.1348(4)
H4O H 0.9266 0.1144 0.1369
C8O C 1.0050(3) 0.2893(3) 0.0971(3)
C9O C 0.9566(3) 0.2888(3) 0.0980(4)
H5O H 0.9250 0.2575 0.1089
C12O C 0.9017(3) 0.3803(3) 0.0802(4)
H6O H 0.9338 0.4135 0.0781
C13O C 0.8535(3) 0.3786(3) 0.0800(4)
H7O H 0.8532 0.4111 0.0774
Ni1R Ni 0.3333 0.59781(3) -0.0833
Ni1R_2 Ni 1.3333 0.59781(3) -0.0833
Ni1S Ni 0.40219(3) -0.26451(3) -0.0833
Ni1S_2 Ni 0.40219(3) 0.73549(3) -0.0833
Ni1T Ni 0.26451(3) -0.3333 -0.0833
Ni1T_2 Ni 1.26451(3) 0.6667 -0.0833
Ni1DA Ni -0.0000 -0.06886(3) 0.2500
Ni1DA_2 Ni 1.0000 0.93114(3) 0.2500
Ni1EA Ni 0.06886(3) 0.06882(3) 0.2500
Ni1EA_2 Ni 1.06886(3) 0.06882(3) 0.2500
Ni1FA Ni 0.93118(3) 0.0000 0.2500
Ni1FA_2 Ni 0.93118(3) 1.0000 0.2500
O2R O 0.56587(17) 0.28623(18) 0.0172(2)
O2S O 0.71377(18) 0.27964(25) 0.0172(2)
O2T O 0.72036(25) 0.43413(17) 0.0172(2)
O2AA O 0.61956(18) 0.23254(17) 0.1495(2)
O2BA O 0.61297(25) 0.38044(18) 0.1495(2)
O2CA O 0.76746(17) 0.38703(25) 0.1495(2)
O3R O 0.60317(18) 0.37427(17) 0.0269(2)
O3S O 0.62573(17) 0.22890(25) 0.0269(2)
O3T O 0.77110(25) 0.39683(18) 0.0269(2)
O3AA O 0.70760(17) 0.26984(18) 0.1398(2)
O3BA O 0.56223(25) 0.29240(17) 0.1398(2)
O3CA O 0.73016(18) 0.43777(25) 0.1398(2)
O4 O 0.6778(9) 0.5269(9) 0.2374(10)
N3 N 0.6932(8) 0.4645(6) 0.2805(8)
C14 C 0.6739(8) 0.4837(8) 0.2395(9)
H8 H 0.6551 0.4603 0.2089
C15 C 0.6923(8) 0.4141(7) 0.2717(8)
H9 H 0.6882 0.4054 0.2309
H10 H 0.6625 0.3859 0.2929
H11 H 0.7256 0.4174 0.2855
C16 C 0.7207(10) 0.5017(10) 0.3269(9)
H12 H 0.7460 0.5365 0.3109
H13 H 0.7399 0.4887 0.3501
H14 H 0.6948 0.5049 0.3508
O5 O 0.8275(12) 0.6745(13) 0.2213(14)
N4 N 0.7449(12) 0.6593(13) 0.2479(14)
C17 C 0.7825(13) 0.6444(12) 0.2372(15)
H15 H 0.7725 0.6082 0.2427
C18 C 0.6920(13) 0.6198(18) 0.265(2)
H16 H 0.6899 0.5852 0.2684
H17 H 0.6664 0.6177 0.2366
H18 H 0.6838 0.6297 0.3022
C19 C 0.7553(16) 0.7126(16) 0.242(2)
H19 H 0.7586 0.7218 0.2011
H20 H 0.7883 0.7369 0.2615
H21 H 0.7259 0.7156 0.2583
O6? O 0.5356(14) 0.5240(14) 0.3447(6)
C20? C 0.5294(11) 0.5461(11) 0.3043(6)
H22? H 0.5125 0.5646 0.3192
C21? C 0.5294(19) 0.568(2) 0.2046(15)
H23? H 0.5113 0.5812 0.2273
H24? H 0.5581 0.5979 0.1858
H25? H 0.5050 0.5437 0.1784
C22? C 0.5823(19) 0.526(2) 0.2400(16)
H26? H 0.5942 0.5098 0.2663
H27? H 0.5594 0.5000 0.2140
H28? H 0.6124 0.5541 0.2215
N5? N 0.5484(6) 0.5484(6) 0.2500
H29? H 0.6667 0.3333 0.1260
loop_
_geom_bond_atom_site_label_1
_geom_bond_atom_site_label_2
_geom_bond_site_symmetry_1
_geom_bond_site_symmetry_2
Ni1 O1 1_555 1_555
O1 Ni1A 1_555 1_555
O2 C1 1_555 1_555
O3 C1 1_555 1_555
N1 Ni1 1_555 1_555
N2 C8 1_555 1_555
C1 C2 1_555 1_555
C2 C3 1_555 1_555
C3 H1 1_555 1_555
C4 C3 1_555 1_555
H2 C4 1_555 1_555
C5 C4 1_555 1_555
C6 C5 1_555 1_555
H3 C6 1_555 1_555
C7 C2 1_555 1_555
H4 C7 1_555 1_555
C8 C5 1_555 1_555
C9 C8 1_555 1_555
H5 C9 1_555 1_555
C10 C9 1_555 1_555
C11 C10 1_555 1_555
C12 C11 1_555 1_555
H6 C12 1_555 1_555
C13 N1 1_555 1_555
H7 C13 1_555 1_555
O4 C14 1_555 1_555
N3 C14 1_555 1_555
C14 H8 1_555 1_555
C15 N3 1_555 1_555
H9 C15 1_555 1_555
H10 C15 1_555 1_555
H11 C15 1_555 1_555
C16 N3 1_555 1_555
H12 C16 1_555 1_555
H13 C16 1_555 1_555
H14 C16 1_555 1_555
O5 C17 1_555 1_555
N4 C17 1_555 1_555
C17 H15 1_555 1_555
C18 N4 1_555 1_555
H16 C18 1_555 1_555
H17 C18 1_555 1_555
H18 C18 1_555 1_555
C19 N4 1_555 1_555
H19 C19 1_555 1_555
H20 C19 1_555 1_555
H21 C19 1_555 1_555
O2Q C1Q 1_555 1_555
O3Q C1Q 1_555 1_555
C1Q C2Q 1_555 1_555
C2Q C3Q 1_555 1_555
C3Q H1Q 1_555 1_555
C4Q C3Q 1_555 1_555
H2Q C4Q 1_555 1_555
C5Q C4Q 1_555 1_555
C6Q C5Q 1_555 1_555
H3Q C6Q 1_555 1_555
C7Q C2Q 1_555 1_555
H4Q C7Q 1_555 1_555
C8Q N2 1_555 1_555
C9Q C10 1_555 1_555
H5Q C9Q 1_555 1_555
C12Q C11 1_555 1_555
H6Q C12Q 1_555 1_555
C13Q N1 1_555 1_555
H7Q C13Q 1_555 1_555
Ni1A N1A 1_555 1_555
O2A C1A 1_555 1_555
O3A C1A 1_555 1_555
N1A C13A 1_555 1_555
N2A C8A 1_555 1_555
C1A C2A 1_555 1_555
C2A C3A 1_555 1_555
C3A H1A 1_555 1_555
C4A C3A 1_555 1_555
H2A C4A 1_555 1_555
C5A C4A 1_555 1_555
C6A C5A 1_555 1_555
H3A C6A 1_555 1_555
C7A C2A 1_555 1_555
H4A C7A 1_555 1_555
C8A C5A 1_555 1_555
C9A C8A 1_555 1_555
H5A C9A 1_555 1_555
C10A C9A 1_555 1_555
C11A C10A 1_555 1_555
C12A C11A 1_555 1_555
H6A C12A 1_555 1_555
C13A C12A 1_555 1_555
H7A C13A 1_555 1_555
O2P C1P 1_555 1_555
O3P C1P 1_555 1_555
C1P C2P 1_555 1_555
C2P C3P 1_555 1_555
C3P H1P 1_555 1_555
C4P C3P 1_555 1_555
H2P C4P 1_555 1_555
C5P C4P 1_555 1_555
C6P C5P 1_555 1_555
H3P C6P 1_555 1_555
C7P C2P 1_555 1_555
H4P C7P 1_555 1_555
C8P N2A 1_555 1_555
C9P C10A 1_555 1_555
H5P C9P 1_555 1_555
C12P C11A 1_555 1_555
H6P C12P 1_555 1_555
C13P N1A 1_555 1_555
H7P C13P 1_555 1_555
Ni1B O1 1_555 1_555
O2B C1B 1_555 1_555
O3B C1B 1_555 1_555
N1B Ni1B 1_555 1_555
N2B C8B 1_555 1_555
C1B C2B 1_555 1_555
C2B C3B 1_555 1_555
C3B H1B 1_555 1_555
C4B C3B 1_555 1_555
H2B C4B 1_555 1_555
C5B C4B 1_555 1_555
C6B C5B 1_555 1_555
H3B C6B 1_555 1_555
C7B C2B 1_555 1_555
H4B C7B 1_555 1_555
C8B C5B 1_555 1_555
C9B C8B 1_555 1_555
H5B C9B 1_555 1_555
C10B C9B 1_555 1_555
C11B C10B 1_555 1_555
C12B C11B 1_555 1_555
H6B C12B 1_555 1_555
C13B N1B 1_555 1_555
H7B C13B 1_555 1_555
O2O C1O 1_555 1_555
O3O C1O 1_555 1_555
C1O C2O 1_555 1_555
C2O C3O 1_555 1_555
C3O H1O 1_555 1_555
C4O C3O 1_555 1_555
H2O C4O 1_555 1_555
C5O C4O 1_555 1_555
C6O C5O 1_555 1_555
H3O C6O 1_555 1_555
C7O C2O 1_555 1_555
H4O C7O 1_555 1_555
C8O N2B 1_555 1_555
C9O C10B 1_555 1_555
H5O C9O 1_555 1_555
C12O C11B 1_555 1_555
H6O C12O 1_555 1_555
C13O N1B 1_555 1_555
H7O C13O 1_555 1_555
Ni1R O3 1_555 1_555
Ni1R_2 O2B 1_555 1_555
Ni1S O3A 1_555 1_555
Ni1S_2 O2 1_555 1_555
Ni1T O2A 1_555 1_555
Ni1T_2 O3B 1_555 1_555
Ni1DA O2P 1_555 1_555
Ni1DA_2 O3Q 1_555 1_555
Ni1EA O3P 1_555 1_555
Ni1EA_2 O2O 1_555 1_555
Ni1FA O3O 1_555 1_555
Ni1FA_2 O2Q 1_555 1_555
O2R Ni1A 1_555 1_555
O2S Ni1B 1_555 1_555
O2T Ni1 1_555 1_555
O2AA Ni1A 1_555 1_555
O2BA Ni1 1_555 1_555
O2CA Ni1B 1_555 1_555
O3R Ni1 1_555 1_555
O3S Ni1A 1_555 1_555
O3T Ni1B 1_555 1_555
O3AA Ni1B 1_555 1_555
O3BA Ni1A 1_555 1_555
O3CA Ni1 1_555 1_555
C6 C7 1_555 1_555
C12 C13 1_555 1_555
C5Q C8Q 1_555 1_555
C6Q C7Q 1_555 1_555
C8Q C9Q 1_555 1_555
C12Q C13Q 1_555 1_555
C6A C7A 1_555 1_555
C5P C8P 1_555 1_555
C6P C7P 1_555 1_555
C8P C9P 1_555 1_555
C12P C13P 1_555 1_555
C6B C7B 1_555 1_555
C12B C13B 1_555 1_555
C5O C8O 1_555 1_555
C6O C7O 1_555 1_555
C8O C9O 1_555 1_555
C12O C13O 1_555 1_555

#END
