
#######################################################################
#
#                 Cambridge Crystallographic Data Centre
#                                CCDC 
#
#######################################################################
#
# If this CIF has been generated from an entry in the Cambridge 
# Structural Database, then it will include bibliographic, chemical, 
# crystal, experimental, refinement or atomic coordinate data resulting 
# from the CCDC's data processing and validation procedures.
#
#######################################################################

data_KEVBOE
_chemical_formula_moiety         '(C72 H43 N6 Ni3 O13)n,10n(C1 H4 O1)'
_chemical_name_systematic        
"catena-[tris(\m~5~-4,4'-(4,4'-Bipyridine-2,6-diyl)dibenzoato)-(\m~3~-hydroxo)-tri-nickel methanol solvate]"
_symmetry_cell_setting           rhombohedral
_symmetry_space_group_name_H-M   'R -3 c'
_symmetry_Int_Tables_number      167
_space_group_name_Hall           '-R 3 2"c'
loop_
_symmetry_equiv_pos_site_id
_symmetry_equiv_pos_as_xyz
1 x,y,z
2 -y,x-y,z
3 -x+y,-x,z
4 y,x,1/2-z
5 x-y,-y,1/2-z
6 -x,-x+y,1/2-z
7 2/3+x,1/3+y,1/3+z
8 2/3-y,1/3+x-y,1/3+z
9 2/3-x+y,1/3-x,1/3+z
10 2/3+y,1/3+x,5/6-z
11 2/3+x-y,1/3-y,5/6-z
12 2/3-x,1/3-x+y,5/6-z
13 1/3+x,2/3+y,2/3+z
14 1/3-y,2/3+x-y,2/3+z
15 1/3-x+y,2/3-x,2/3+z
16 1/3+y,2/3+x,1/6-z
17 1/3+x-y,2/3-y,1/6-z
18 1/3-x,2/3-x+y,1/6-z
19 -x,-y,-z
20 y,-x+y,-z
21 x-y,x,-z
22 -y,-x,1/2+z
23 -x+y,y,1/2+z
24 x,x-y,1/2+z
25 1/3-x,2/3-y,2/3-z
26 1/3+y,2/3-x+y,2/3-z
27 1/3+x-y,2/3+x,2/3-z
28 1/3-y,2/3-x,1/6+z
29 1/3-x+y,2/3+y,1/6+z
30 1/3+x,2/3+x-y,1/6+z
31 2/3-x,1/3-y,1/3-z
32 2/3+y,1/3-x+y,1/3-z
33 2/3+x-y,1/3+x,1/3-z
34 2/3-y,1/3-x,5/6+z
35 2/3-x+y,1/3+y,5/6+z
36 2/3+x,1/3+x-y,5/6+z
_cell_length_a                   29.347(2)
_cell_length_b                   29.347(2)
_cell_length_c                   21.2870(17)
_cell_angle_alpha                90
_cell_angle_beta                 90
_cell_angle_gamma                120
_cell_volume                     15877.1
_exptl_crystal_colour            green
_exptl_crystal_description       plate
_cell_formula_units_Z            6
loop_
_atom_site_label
_atom_site_type_symbol
_atom_site_fract_x
_atom_site_fract_y
_atom_site_fract_z
Ni1 Ni 0.6667 0.402013(19) 0.0833
O1 O 0.6667 0.3333 0.0833
O2 O 0.43218(11) 0.71219(11) -0.00806(15)
O3 O 0.39639(11) 0.62596(11) -0.02313(16)
N1 N 0.6667 0.47346(15) 0.0833
N2 N 0.6667 0.71517(16) 0.0833
C1 C 0.43289(14) 0.67015(15) -0.00612(19)
C2 C 0.48273(15) 0.67218(15) 0.0170(2)
C3 C 0.5209(3) 0.7118(3) 0.0516(4)
H1 H 0.5156 0.7389 0.0653
C4 C 0.5672(3) 0.7131(3) 0.0671(5)
H2 H 0.5934 0.7421 0.0884
C5 C 0.5399(5) 0.6342(5) 0.0088(9)
H3 H 0.5481 0.6102 -0.0086
C6 C 0.4945(5) 0.6319(5) -0.0076(8)
H4 H 0.4708 0.6054 -0.0341
C7 C 0.57502(17) 0.67191(16) 0.0513(3)
C8 C 0.62332(17) 0.66988(17) 0.0681(3)
C9 C 0.62188(17) 0.62181(16) 0.0685(3)
H5 H 0.5908 0.5911 0.0588
C10 C 0.6667 0.61959(19) 0.0833
C11 C 0.6667 0.56918(18) 0.0833
C12 C 0.7123(2) 0.5668(2) 0.0740(5)
H6 H 0.7441 0.5976 0.0670
C13 C 0.7109(2) 0.5193(2) 0.0751(5)
H7 H 0.7422 0.5192 0.0698
O2Q O 0.90115(11) 0.94668(16) 0.17473(15)
O3Q O 0.93694(11) 0.89624(16) 0.18980(16)
C1Q C 0.90044(14) 0.90393(21) 0.17279(19)
C2Q C 0.85060(15) 0.85612(21) 0.1497(2)
C3Q C 0.8124(3) 0.8576(4) 0.1151(4)
H1Q H 0.8177 0.8900 0.1014
C4Q C 0.7661(3) 0.8126(4) 0.0996(5)
H2Q H 0.7399 0.8154 0.0783
C5Q C 0.7934(5) 0.7610(7) 0.1579(9)
H3Q H 0.7852 0.7288 0.1753
C6Q C 0.8388(5) 0.8041(7) 0.1743(8)
H4Q H 0.8625 0.8013 0.2008
C7Q C 0.75831(17) 0.76356(23) 0.1154(3)
C8Q C 0.71001(17) 0.71323(24) 0.0986(3)
C9Q C 0.71145(17) 0.66660(23) 0.0982(3)
H5Q H 0.7425 0.6670 0.1079
C12Q C 0.6210(2) 0.5212(3) 0.0927(5)
H6Q H 0.5892 0.5202 0.0997
C13Q C 0.6224(2) 0.4751(3) 0.0916(5)
H7Q H 0.5911 0.4437 0.0969
Ni1A Ni 0.597987(19) 0.264687(19) 0.0833
O2A O 0.28781(11) -0.28001(16) -0.00806(15)
O3A O 0.37404(11) -0.22957(16) -0.02313(16)
N1A N 0.52654(15) 0.19324(15) 0.0833
N2A N 0.28483(16) -0.04847(16) 0.0833
C1A C 0.32985(15) -0.23726(21) -0.00612(19)
C2A C 0.32782(15) -0.18945(21) 0.0170(2)
C3A C 0.2882(3) -0.1909(4) 0.0516(4)
H1A H 0.2611 -0.2233 0.0653
C4A C 0.2869(3) -0.1459(4) 0.0671(5)
H2A H 0.2579 -0.1487 0.0884
C5A C 0.3658(5) -0.0943(7) 0.0088(9)
H3A H 0.3898 -0.0621 -0.0086
C6A C 0.3681(5) -0.1374(7) -0.0076(8)
H4A H 0.3946 -0.1346 -0.0341
C7A C 0.32809(16) -0.09689(23) 0.0513(3)
C8A C 0.33012(17) -0.04656(24) 0.0681(3)
C9A C 0.37819(16) 0.00007(23) 0.0685(3)
H5A H 0.4089 -0.0003 0.0588
C10A C 0.38041(19) 0.04711(19) 0.0833
C11A C 0.43082(18) 0.09752(18) 0.0833
C12A C 0.4332(2) 0.1455(3) 0.0740(5)
H6A H 0.4024 0.1465 0.0670
C13A C 0.4807(2) 0.1916(3) 0.0751(5)
H7A H 0.4808 0.2230 0.0698
O2P O 0.05332(16) -0.04552(11) 0.17473(15)
O3P O 0.10376(16) 0.04071(11) 0.18980(16)
C1P C 0.09607(21) -0.00348(15) 0.17279(19)
C2P C 0.14388(21) -0.00551(15) 0.1497(2)
C3P C 0.1424(4) -0.0451(3) 0.1151(4)
H1P H 0.1100 -0.0722 0.1014
C4P C 0.1874(4) -0.0464(3) 0.0996(5)
H2P H 0.1846 -0.0754 0.0783
C5P C 0.2390(7) 0.0325(5) 0.1579(9)
H3P H 0.2712 0.0565 0.1753
C6P C 0.1959(7) 0.0348(5) 0.1743(8)
H4P H 0.1987 0.0613 0.2008
C7P C 0.23644(23) -0.00524(16) 0.1154(3)
C8P C 0.28677(24) -0.00321(17) 0.0986(3)
C9P C 0.33340(23) 0.04486(16) 0.0982(3)
H5P H 0.3330 0.0756 0.1079
C12P C 0.4788(3) 0.0999(2) 0.0927(5)
H6P H 0.4798 0.0691 0.0997
C13P C 0.5249(3) 0.1474(2) 0.0916(5)
H7P H 0.5563 0.1475 0.0969
Ni1B Ni 0.735313(19) 0.3333 0.0833
O2B O 1.28001(16) 0.56782(11) -0.00806(15)
O3B O 1.22957(16) 0.60361(11) -0.02313(16)
N1B N 0.80676(15) 0.3333 0.0833
N2B N 1.04847(16) 0.3333 0.0833
C1B C 1.23726(21) 0.56711(14) -0.00612(19)
C2B C 1.18945(21) 0.51727(15) 0.0170(2)
C3B C 1.1909(4) 0.4791(3) 0.0516(4)
H1B H 1.2233 0.4844 0.0653
C4B C 1.1459(4) 0.4328(3) 0.0671(5)
H2B H 1.1487 0.4066 0.0884
C5B C 1.0943(7) 0.4601(5) 0.0088(9)
H3B H 1.0621 0.4519 -0.0086
C6B C 1.1374(7) 0.5055(5) -0.0076(8)
H4B H 1.1346 0.5292 -0.0341
C7B C 1.09689(23) 0.42498(17) 0.0513(3)
C8B C 1.04656(24) 0.37668(17) 0.0681(3)
C9B C 0.99993(23) 0.37812(17) 0.0685(3)
H5B H 1.0003 0.4092 0.0588
C10B C 0.95289(19) 0.3333 0.0833
C11B C 0.90248(18) 0.3333 0.0833
C12B C 0.8545(3) 0.2877(2) 0.0740(5)
H6B H 0.8535 0.2559 0.0670
C13B C 0.8084(3) 0.2891(2) 0.0751(5)
H7B H 0.7770 0.2578 0.0698
O2O O 1.04552(11) 0.09885(11) 0.17473(15)
O3O O 0.95929(11) 0.06306(11) 0.18980(16)
C1O C 1.00348(15) 0.09956(14) 0.17279(19)
C2O C 1.00551(15) 0.14940(15) 0.1497(2)
C3O C 1.0451(3) 0.1876(3) 0.1151(4)
H1O H 1.0722 0.1823 0.1014
C4O C 1.0464(3) 0.2339(3) 0.0996(5)
H2O H 1.0754 0.2601 0.0783
C5O C 0.9675(5) 0.2066(5) 0.1579(9)
H3O H 0.9435 0.2148 0.1753
C6O C 0.9652(5) 0.1612(5) 0.1743(8)
H4O H 0.9387 0.1375 0.2008
C7O C 1.00524(16) 0.24169(17) 0.1154(3)
C8O C 1.00321(17) 0.28999(17) 0.0986(3)
C9O C 0.95514(16) 0.28855(17) 0.0982(3)
H5O H 0.9244 0.2575 0.1079
C12O C 0.9001(2) 0.3790(2) 0.0927(5)
H6O H 0.9309 0.4108 0.0997
C13O C 0.8526(2) 0.3776(2) 0.0916(5)
H7O H 0.8525 0.4089 0.0969
Ni1R Ni 0.3333 0.597987(19) -0.0833
Ni1R_2 Ni 1.3333 0.597987(19) -0.0833
Ni1S Ni 0.402013(19) -0.264687(19) -0.0833
Ni1S_2 Ni 0.402013(19) 0.735313(19) -0.0833
Ni1T Ni 0.264687(19) -0.3333 -0.0833
Ni1T_2 Ni 1.264687(19) 0.6667 -0.0833
Ni1DA Ni -0.0000 -0.068680(19) 0.2500
Ni1DA_2 Ni 1.0000 0.931320(19) 0.2500
Ni1EA Ni 0.068680(19) 0.068646(19) 0.2500
Ni1EA_2 Ni 1.068680(19) 0.068646(19) 0.2500
Ni1FA Ni 0.931354(19) 0.0000 0.2500
Ni1FA_2 Ni 0.931354(19) 1.0000 0.2500
O2R O 0.56782(11) 0.28781(11) 0.00806(15)
O2S O 0.71219(11) 0.28001(16) 0.00806(15)
O2T O 0.71999(16) 0.43218(11) 0.00806(15)
O2AA O 0.62114(11) 0.23449(11) 0.15861(15)
O2BA O 0.61334(16) 0.37886(11) 0.15861(15)
O2CA O 0.76551(11) 0.38666(16) 0.15861(15)
O3R O 0.60361(11) 0.37404(11) 0.02313(16)
O3S O 0.62596(11) 0.22957(16) 0.02313(16)
O3T O 0.77043(16) 0.39639(11) 0.02313(16)
O3AA O 0.70737(11) 0.27028(11) 0.14354(16)
O3BA O 0.56290(16) 0.29263(11) 0.14354(16)
O3CA O 0.72972(11) 0.43710(16) 0.14354(16)
O4 O 0.8460(10) 0.6724(9) 0.1027(10)
H8 H 0.8514 0.6713 0.1418
C14 C 0.8862(14) 0.6828(16) 0.0666(18)
H9 H 0.8738 0.6684 0.0255
H10 H 0.9055 0.6675 0.0844
H11 H 0.9087 0.7203 0.0635
O5 O 0.6667 0.3333 0.2245(10)
C15 C 0.6667 0.3333 0.2901(14)
H12 H 0.6452 0.2980 0.3051
H12A H 0.7020 0.3472 0.3051
H12B H 0.6528 0.3548 0.3051
C16? C 0.5294(3) 0.7181(3) 0.0259(4)
H13? H 0.5308 0.7501 0.0191
C17? C 0.5750(3) 0.7179(3) 0.0450(4)
H14? H 0.6056 0.7495 0.0534
C18? C 0.5237(5) 0.6230(5) 0.0494(9)
H15? H 0.5210 0.5910 0.0601
C19? C 0.4796(4) 0.6255(5) 0.0316(8)
H16? H 0.4471 0.5947 0.0296
C20? C 0.6425(19) 0.5334(14) 0.039(3)
H17? H 0.6253 0.5397 0.0065
C21? C 0.643(2) 0.4845(12) 0.042(2)
H18? H 0.6251 0.4596 0.0107
O6? O 0.8094(17) 0.6749(19) -0.030(2)
H19? H 0.7800 0.6705 -0.0174
C22? C 0.837(3) 0.680(3) 0.026(3)
H20? H 0.8259 0.6957 0.0576
H21? H 0.8741 0.7023 0.0185
H22? H 0.8301 0.6462 0.0396
O7? O 0.8050(11) 0.4654(11) 0.4043(13)
H23? H 0.8052 0.4846 0.4344
C23? C 0.7599(13) 0.4220(12) 0.3823(17)
H24? H 0.7351 0.4325 0.3694
H25? H 0.7447 0.3963 0.4151
H26? H 0.7685 0.4072 0.3472
O8? O 0.858(2) 0.594(2) 0.397(3)
H27? H 0.8890 0.6015 0.4048
C24? C 0.840(3) 0.613(3) 0.350(3)
H28? H 0.8025 0.5974 0.3528
H29? H 0.8487 0.6035 0.3100
H30? H 0.8563 0.6503 0.3527
H31? H 0.6951 0.3333 0.2169
H32? H 0.6667 0.3333 0.0373
loop_
_geom_bond_atom_site_label_1
_geom_bond_atom_site_label_2
_geom_bond_site_symmetry_1
_geom_bond_site_symmetry_2
Ni1 O1 1_555 1_555
O1 Ni1A 1_555 1_555
O2 C1 1_555 1_555
O3 C1 1_555 1_555
N1 Ni1 1_555 1_555
N2 C8 1_555 1_555
C1 C2 1_555 1_555
C2 C3 1_555 1_555
C3 H1 1_555 1_555
C4 C3 1_555 1_555
H2 C4 1_555 1_555
C5 H3 1_555 1_555
C6 C2 1_555 1_555
H4 C6 1_555 1_555
C7 C4 1_555 1_555
C8 C7 1_555 1_555
C9 C8 1_555 1_555
H5 C9 1_555 1_555
C10 C9 1_555 1_555
C11 C10 1_555 1_555
C12 C11 1_555 1_555
H6 C12 1_555 1_555
C13 N1 1_555 1_555
H7 C13 1_555 1_555
O4 H8 1_555 1_555
C14 O4 1_555 1_555
H9 C14 1_555 1_555
H10 C14 1_555 1_555
H11 C14 1_555 1_555
O5 C15 1_555 1_555
C15 H12 1_555 1_555
O2Q C1Q 1_555 1_555
O3Q C1Q 1_555 1_555
C1Q C2Q 1_555 1_555
C2Q C3Q 1_555 1_555
C3Q H1Q 1_555 1_555
C4Q C3Q 1_555 1_555
H2Q C4Q 1_555 1_555
C5Q H3Q 1_555 1_555
C6Q C2Q 1_555 1_555
H4Q C6Q 1_555 1_555
C7Q C4Q 1_555 1_555
C8Q N2 1_555 1_555
C9Q C10 1_555 1_555
H5Q C9Q 1_555 1_555
C12Q C11 1_555 1_555
H6Q C12Q 1_555 1_555
C13Q N1 1_555 1_555
H7Q C13Q 1_555 1_555
Ni1A N1A 1_555 1_555
O2A C1A 1_555 1_555
O3A C1A 1_555 1_555
N1A C13A 1_555 1_555
N2A C8A 1_555 1_555
C1A C2A 1_555 1_555
C2A C3A 1_555 1_555
C3A H1A 1_555 1_555
C4A C3A 1_555 1_555
H2A C4A 1_555 1_555
C5A H3A 1_555 1_555
C6A C2A 1_555 1_555
H4A C6A 1_555 1_555
C7A C4A 1_555 1_555
C8A C7A 1_555 1_555
C9A C8A 1_555 1_555
H5A C9A 1_555 1_555
C10A C9A 1_555 1_555
C11A C10A 1_555 1_555
C12A C11A 1_555 1_555
H6A C12A 1_555 1_555
C13A C12A 1_555 1_555
H7A C13A 1_555 1_555
O2P C1P 1_555 1_555
O3P C1P 1_555 1_555
C1P C2P 1_555 1_555
C2P C3P 1_555 1_555
C3P H1P 1_555 1_555
C4P C3P 1_555 1_555
H2P C4P 1_555 1_555
C5P H3P 1_555 1_555
C6P C2P 1_555 1_555
H4P C6P 1_555 1_555
C7P C4P 1_555 1_555
C8P N2A 1_555 1_555
C9P C10A 1_555 1_555
H5P C9P 1_555 1_555
C12P C11A 1_555 1_555
H6P C12P 1_555 1_555
C13P N1A 1_555 1_555
H7P C13P 1_555 1_555
Ni1B O1 1_555 1_555
O2B C1B 1_555 1_555
O3B C1B 1_555 1_555
N1B Ni1B 1_555 1_555
N2B C8B 1_555 1_555
C1B C2B 1_555 1_555
C2B C3B 1_555 1_555
C3B H1B 1_555 1_555
C4B C3B 1_555 1_555
H2B C4B 1_555 1_555
C5B H3B 1_555 1_555
C6B C2B 1_555 1_555
H4B C6B 1_555 1_555
C7B C4B 1_555 1_555
C8B C7B 1_555 1_555
C9B C8B 1_555 1_555
H5B C9B 1_555 1_555
C10B C9B 1_555 1_555
C11B C10B 1_555 1_555
C12B C11B 1_555 1_555
H6B C12B 1_555 1_555
C13B N1B 1_555 1_555
H7B C13B 1_555 1_555
O2O C1O 1_555 1_555
O3O C1O 1_555 1_555
C1O C2O 1_555 1_555
C2O C3O 1_555 1_555
C3O H1O 1_555 1_555
C4O C3O 1_555 1_555
H2O C4O 1_555 1_555
C5O H3O 1_555 1_555
C6O C2O 1_555 1_555
H4O C6O 1_555 1_555
C7O C4O 1_555 1_555
C8O N2B 1_555 1_555
C9O C10B 1_555 1_555
H5O C9O 1_555 1_555
C12O C11B 1_555 1_555
H6O C12O 1_555 1_555
C13O N1B 1_555 1_555
H7O C13O 1_555 1_555
Ni1R O3 1_555 1_555
Ni1R_2 O2B 1_555 1_555
Ni1S O3A 1_555 1_555
Ni1S_2 O2 1_555 1_555
Ni1T O2A 1_555 1_555
Ni1T_2 O3B 1_555 1_555
Ni1DA O2P 1_555 1_555
Ni1DA_2 O3Q 1_555 1_555
Ni1EA O3P 1_555 1_555
Ni1EA_2 O2O 1_555 1_555
Ni1FA O3O 1_555 1_555
Ni1FA_2 O2Q 1_555 1_555
O2R Ni1A 1_555 1_555
O2S Ni1B 1_555 1_555
O2T Ni1 1_555 1_555
O2AA Ni1A 1_555 1_555
O2BA Ni1 1_555 1_555
O2CA Ni1B 1_555 1_555
O3R Ni1 1_555 1_555
O3S Ni1A 1_555 1_555
O3T Ni1B 1_555 1_555
O3AA Ni1B 1_555 1_555
O3BA Ni1A 1_555 1_555
O3CA Ni1 1_555 1_555
H12A C15 1_555 1_555
H12B C15 1_555 1_555
C5 C6 1_555 1_555
C5 C7 1_555 1_555
C12 C13 1_555 1_555
C5Q C6Q 1_555 1_555
C5Q C7Q 1_555 1_555
C7Q C8Q 1_555 1_555
C8Q C9Q 1_555 1_555
C12Q C13Q 1_555 1_555
C5A C6A 1_555 1_555
C5A C7A 1_555 1_555
C5P C6P 1_555 1_555
C5P C7P 1_555 1_555
C7P C8P 1_555 1_555
C8P C9P 1_555 1_555
C12P C13P 1_555 1_555
C5B C6B 1_555 1_555
C5B C7B 1_555 1_555
C12B C13B 1_555 1_555
C5O C6O 1_555 1_555
C5O C7O 1_555 1_555
C7O C8O 1_555 1_555
C8O C9O 1_555 1_555
C12O C13O 1_555 1_555

#END
