
#######################################################################
#
#                 Cambridge Crystallographic Data Centre
#                                CCDC 
#
#######################################################################
#
# If this CIF has been generated from an entry in the Cambridge 
# Structural Database, then it will include bibliographic, chemical, 
# crystal, experimental, refinement or atomic coordinate data resulting 
# from the CCDC's data processing and validation procedures.
#
#######################################################################

data_KEVBIY
_chemical_formula_moiety         '(C72 H43 N6 Ni3 O13)n,18n(C1 H4 O1)'
_chemical_name_systematic        
"catena-[tris(\m~5~-4,4'-(4,4'-Bipyridine-2,6-diyl)dibenzoato)-(\m~3~-hydroxo)-tri-nickel methanol solvate]"
_symmetry_cell_setting           rhombohedral
_symmetry_space_group_name_H-M   'R -3 c'
_symmetry_Int_Tables_number      167
_space_group_name_Hall           '-R 3 2"c'
loop_
_symmetry_equiv_pos_site_id
_symmetry_equiv_pos_as_xyz
1 x,y,z
2 -y,x-y,z
3 -x+y,-x,z
4 y,x,1/2-z
5 x-y,-y,1/2-z
6 -x,-x+y,1/2-z
7 2/3+x,1/3+y,1/3+z
8 2/3-y,1/3+x-y,1/3+z
9 2/3-x+y,1/3-x,1/3+z
10 2/3+y,1/3+x,5/6-z
11 2/3+x-y,1/3-y,5/6-z
12 2/3-x,1/3-x+y,5/6-z
13 1/3+x,2/3+y,2/3+z
14 1/3-y,2/3+x-y,2/3+z
15 1/3-x+y,2/3-x,2/3+z
16 1/3+y,2/3+x,1/6-z
17 1/3+x-y,2/3-y,1/6-z
18 1/3-x,2/3-x+y,1/6-z
19 -x,-y,-z
20 y,-x+y,-z
21 x-y,x,-z
22 -y,-x,1/2+z
23 -x+y,y,1/2+z
24 x,x-y,1/2+z
25 1/3-x,2/3-y,2/3-z
26 1/3+y,2/3-x+y,2/3-z
27 1/3+x-y,2/3+x,2/3-z
28 1/3-y,2/3-x,1/6+z
29 1/3-x+y,2/3+y,1/6+z
30 1/3+x,2/3+x-y,1/6+z
31 2/3-x,1/3-y,1/3-z
32 2/3+y,1/3-x+y,1/3-z
33 2/3+x-y,1/3+x,1/3-z
34 2/3-y,1/3-x,5/6+z
35 2/3-x+y,1/3+y,5/6+z
36 2/3+x,1/3+x-y,5/6+z
_cell_length_a                   29.368(2)
_cell_length_b                   29.368(2)
_cell_length_c                   20.8680(15)
_cell_angle_alpha                90
_cell_angle_beta                 90
_cell_angle_gamma                120
_cell_volume                     15586.9
_exptl_crystal_colour            green
_exptl_crystal_description       plate
_cell_formula_units_Z            6
loop_
_atom_site_label
_atom_site_type_symbol
_atom_site_fract_x
_atom_site_fract_y
_atom_site_fract_z
Ni1 Ni 0.6667 0.40176(2) 0.0833
O1 O 0.6667 0.3333 0.0833
O2 O 0.43190(11) 0.71292(11) -0.00591(15)
O3 O 0.39703(11) 0.62654(11) -0.02355(16)
N1 N 0.6667 0.47308(16) 0.0833
N2 N 0.6667 0.71481(18) 0.0833
C1 C 0.43305(15) 0.67053(16) -0.0054(2)
C2 C 0.48292(17) 0.67281(17) 0.0176(2)
C3 C 0.57501(19) 0.67181(18) 0.0516(3)
C4 C 0.62308(18) 0.66940(18) 0.0688(3)
C5 C 0.62152(18) 0.62121(17) 0.0690(3)
H1 H 0.5897 0.5898 0.0593
C6 C 0.6667 0.6193(2) 0.0833
C7 C 0.6667 0.5687(2) 0.0833
C8 C 0.7124(3) 0.5665(2) 0.0735(5)
H2 H 0.7447 0.5980 0.0658
C9 C 0.7110(2) 0.5187(2) 0.0748(4)
H3 H 0.7430 0.5184 0.0693
C10 C 0.5288(3) 0.7177(3) 0.0290(4)
H4 H 0.5304 0.7505 0.0231
C11 C 0.5735(4) 0.7173(4) 0.0491(5)
H5 H 0.6037 0.7493 0.0613
C12 C 0.5238(4) 0.6237(4) 0.0523(8)
H6 H 0.5208 0.5915 0.0658
C13 C 0.4798(4) 0.6255(4) 0.0332(7)
H7 H 0.4469 0.5938 0.0306
O2Q O 0.90143(11) 0.94769(16) 0.17258(15)
O3Q O 0.93630(11) 0.89618(16) 0.19022(16)
C1Q C 0.90028(15) 0.90415(22) 0.1721(2)
C2Q C 0.85041(17) 0.85656(24) 0.1491(2)
C3Q C 0.75832(19) 0.76347(26) 0.1151(3)
C4Q C 0.71025(18) 0.71299(25) 0.0979(3)
C5Q C 0.71181(18) 0.66636(25) 0.0977(3)
H1Q H 0.7436 0.6668 0.1074
C8Q C 0.6209(3) 0.5208(4) 0.0932(5)
H2Q H 0.5886 0.5200 0.1009
C9Q C 0.6223(2) 0.4744(3) 0.0919(4)
H3Q H 0.5903 0.4421 0.0974
C10Q C 0.8045(3) 0.8556(4) 0.1377(4)
H4Q H 0.8029 0.8868 0.1436
C11Q C 0.7598(4) 0.8105(6) 0.1176(5)
H5Q H 0.7296 0.8123 0.1054
C12Q C 0.8095(4) 0.7666(6) 0.1144(8)
H6Q H 0.8125 0.7374 0.1009
C13Q C 0.8535(4) 0.8124(6) 0.1335(7)
H7Q H 0.8864 0.8136 0.1361
Ni1A Ni 0.59824(2) 0.26494(2) 0.0833
O2A O 0.28708(11) -0.28102(16) -0.00591(15)
O3A O 0.37346(11) -0.22951(16) -0.02355(16)
N1A N 0.52692(16) 0.19362(16) 0.0833
N2A N 0.28519(18) -0.04811(18) 0.0833
C1A C 0.32947(16) -0.23748(22) -0.0054(2)
C2A C 0.32719(17) -0.18989(24) 0.0176(2)
C3A C 0.32819(18) -0.09680(26) 0.0516(3)
C4A C 0.33060(18) -0.04632(25) 0.0688(3)
C5A C 0.37879(17) 0.00031(25) 0.0690(3)
H1A H 0.4102 -0.0001 0.0593
C6A C 0.3807(2) 0.0474(2) 0.0833
C7A C 0.4313(2) 0.0980(2) 0.0833
C8A C 0.4335(2) 0.1459(4) 0.0735(5)
H2A H 0.4020 0.1467 0.0658
C9A C 0.4813(2) 0.1923(3) 0.0748(4)
H3A H 0.4816 0.2246 0.0693
C10A C 0.2823(3) -0.1889(4) 0.0290(4)
H4A H 0.2495 -0.2201 0.0231
C11A C 0.2827(4) -0.1438(6) 0.0491(5)
H5A H 0.2507 -0.1456 0.0613
C12A C 0.3763(4) -0.0999(6) 0.0523(8)
H6A H 0.4085 -0.0707 0.0658
C13A C 0.3745(4) -0.1457(6) 0.0332(7)
H7A H 0.4062 -0.1469 0.0306
O2P O 0.05231(16) -0.04625(11) 0.17258(15)
O3P O 0.10382(16) 0.04013(11) 0.19022(16)
C1P C 0.09585(22) -0.00386(16) 0.1721(2)
C2P C 0.14344(24) -0.00614(17) 0.1491(2)
C3P C 0.23653(26) -0.00514(18) 0.1151(3)
C4P C 0.28701(25) -0.00273(18) 0.0979(3)
C5P C 0.33364(25) 0.04546(17) 0.0977(3)
H1P H 0.3332 0.0769 0.1074
C8P C 0.4792(4) 0.1002(2) 0.0932(5)
H2P H 0.4800 0.0687 0.1009
C9P C 0.5256(3) 0.1480(2) 0.0919(4)
H3P H 0.5579 0.1483 0.0974
C10P C 0.1444(4) -0.0510(3) 0.1377(4)
H4P H 0.1132 -0.0838 0.1436
C11P C 0.1895(6) -0.0506(4) 0.1176(5)
H5P H 0.1877 -0.0826 0.1054
C12P C 0.2334(6) 0.0430(4) 0.1144(8)
H6P H 0.2626 0.0752 0.1009
C13P C 0.1876(6) 0.0412(4) 0.1335(7)
H7P H 0.1864 0.0729 0.1361
Ni1B Ni 0.73506(2) 0.3333 0.0833
O2B O 1.28102(16) 0.56810(11) -0.00591(15)
O3B O 1.22951(16) 0.60297(11) -0.02355(16)
N1B N 0.80638(16) 0.3333 0.0833
N2B N 1.04811(18) 0.3333 0.0833
C1B C 1.23748(22) 0.56695(15) -0.0054(2)
C2B C 1.18989(24) 0.51708(17) 0.0176(2)
C3B C 1.09680(26) 0.42499(19) 0.0516(3)
C4B C 1.04632(25) 0.37692(18) 0.0688(3)
C5B C 0.99969(25) 0.37848(18) 0.0690(3)
H1B H 1.0001 0.4103 0.0593
C6B C 0.9526(2) 0.3333 0.0833
C7B C 0.9020(2) 0.3333 0.0833
C8B C 0.8541(4) 0.2876(3) 0.0735(5)
H2B H 0.8533 0.2553 0.0658
C9B C 0.8077(3) 0.2890(2) 0.0748(4)
H3B H 0.7754 0.2570 0.0693
C10B C 1.1889(4) 0.4712(3) 0.0290(4)
H4B H 1.2201 0.4696 0.0231
C11B C 1.1438(6) 0.4265(4) 0.0491(5)
H5B H 1.1456 0.3963 0.0613
C12B C 1.0999(6) 0.4762(4) 0.0523(8)
H6B H 1.0707 0.4792 0.0658
C13B C 1.1457(6) 0.5202(4) 0.0332(7)
H7B H 1.1469 0.5531 0.0306
O2O O 1.04625(11) 0.09857(11) 0.17258(15)
O3O O 0.95987(11) 0.06370(11) 0.19022(16)
C1O C 1.00386(16) 0.09972(15) 0.1721(2)
C2O C 1.00614(17) 0.14959(17) 0.1491(2)
C3O C 1.00514(18) 0.24168(19) 0.1151(3)
C4O C 1.00273(18) 0.28975(18) 0.0979(3)
C5O C 0.95454(17) 0.28819(18) 0.0977(3)
H1O H 0.9231 0.2564 0.1074
C8O C 0.8998(2) 0.3791(3) 0.0932(5)
H2O H 0.9313 0.4114 0.1009
C9O C 0.8520(2) 0.3777(2) 0.0919(4)
H3O H 0.8517 0.4097 0.0974
C10O C 1.0510(3) 0.1955(3) 0.1377(4)
H4O H 1.0838 0.1971 0.1436
C11O C 1.0506(4) 0.2402(4) 0.1176(5)
H5O H 1.0826 0.2704 0.1054
C12O C 0.9570(4) 0.1905(4) 0.1144(8)
H6O H 0.9248 0.1875 0.1009
C13O C 0.9588(4) 0.1465(4) 0.1335(7)
H7O H 0.9271 0.1136 0.1361
Ni1R Ni 0.3333 0.59824(2) -0.0833
Ni1R_2 Ni 1.3333 0.59824(2) -0.0833
Ni1S Ni 0.40176(2) -0.26494(2) -0.0833
Ni1S_2 Ni 0.40176(2) 0.73506(2) -0.0833
Ni1T Ni 0.26494(2) -0.3333 -0.0833
Ni1T_2 Ni 1.26494(2) 0.6667 -0.0833
Ni1DA Ni -0.0000 -0.06843(2) 0.2500
Ni1DA_2 Ni 1.0000 0.93157(2) 0.2500
Ni1EA Ni 0.06843(2) 0.06839(2) 0.2500
Ni1EA_2 Ni 1.06843(2) 0.06839(2) 0.2500
Ni1FA Ni 0.93161(2) 0.0000 0.2500
Ni1FA_2 Ni 0.93161(2) 1.0000 0.2500
O2R O 0.56810(11) 0.28708(11) 0.00591(15)
O2S O 0.71292(11) 0.28102(16) 0.00591(15)
O2T O 0.71898(16) 0.43190(11) 0.00591(15)
O2AA O 0.62041(11) 0.23477(11) 0.16076(15)
O2BA O 0.61435(16) 0.37959(11) 0.16076(15)
O2CA O 0.76523(11) 0.38565(16) 0.16076(15)
O3R O 0.60297(11) 0.37346(11) 0.02355(16)
O3S O 0.62654(11) 0.22951(16) 0.02355(16)
O3T O 0.77049(16) 0.39703(11) 0.02355(16)
O3AA O 0.70679(11) 0.26964(11) 0.14312(16)
O3BA O 0.56284(16) 0.29321(11) 0.14312(16)
O3CA O 0.73036(11) 0.43716(16) 0.14312(16)
O4 O 0.6674(9) 0.4117(11) 0.2794(14)
H8 H 0.6672 0.3861 0.2602
C14 C 0.6552(17) 0.4504(15) 0.283(2)
H9 H 0.6674 0.4688 0.3239
H10 H 0.6170 0.4350 0.2797
H11 H 0.6723 0.4753 0.2477
O5 O 0.4394(17) 0.480(2) 0.070(3)
H12 H 0.4096 0.4767 0.0782
C15 C 0.4884(16) 0.4951(18) 0.097(2)
H13 H 0.5119 0.4943 0.0647
H14 H 0.4841 0.4709 0.1322
H15 H 0.5035 0.5308 0.1145
O6 O 0.5187(12) 0.5374(12) 0.1871(15)
H16 H 0.5297 0.5191 0.2061
C16 C 0.5190(16) 0.5776(14) 0.2250(19)
H17 H 0.5411 0.5838 0.2629
H18 H 0.4831 0.5668 0.2386
H19 H 0.5331 0.6101 0.1998
C17? C 0.5212(3) 0.7115(3) 0.0524(5)
H20? H 0.5159 0.7390 0.0677
C18? C 0.5680(4) 0.7132(4) 0.0671(5)
H21? H 0.5953 0.7432 0.0880
C19? C 0.5406(4) 0.6341(4) 0.0041(7)
H22? H 0.5495 0.6104 -0.0156
C20? C 0.4943(4) 0.6335(4) -0.0115(6)
H23? H 0.4701 0.6081 -0.0407
C21? C 0.6360(11) 0.5301(8) 0.0440(17)
H24? H 0.6124 0.5341 0.0167
C22? C 0.6378(10) 0.4829(8) 0.0417(13)
H25? H 0.6180 0.4575 0.0099
O7? O 0.5950(15) 0.6751(15) 0.2482(17)
H26? H 0.6038 0.7074 0.2466
C23? C 0.640(2) 0.672(3) 0.238(4)
H27? H 0.6562 0.6727 0.2797
H28? H 0.6649 0.7016 0.2120
H29? H 0.6306 0.6388 0.2163
O8? O 0.6600(9) 0.4730(9) 0.2459(11)
H30? H 0.6613 0.4961 0.2204
C24? C 0.6906(11) 0.4651(12) 0.2889(14)
H31? H 0.6699 0.4304 0.3087
H32? H 0.7029 0.4923 0.3222
H33? H 0.7209 0.4670 0.2667
O9? O 0.4823(7) 0.4892(7) 0.0522(8)
H34? H 0.5145 0.5122 0.0575
C25? C 0.4613(14) 0.4423(11) 0.0874(16)
H35? H 0.4242 0.4197 0.0763
H36? H 0.4645 0.4503 0.1333
H37? H 0.4807 0.4240 0.0772
O10? O 0.6667 0.3333 0.2617(9)
H38? H 0.6667 0.3333 0.2210
C26? C 0.6667 0.3333 0.3333
H39? H 0.6667 0.3025 0.3487
H40? H 0.6667 0.3333 0.1313
loop_
_geom_bond_atom_site_label_1
_geom_bond_atom_site_label_2
_geom_bond_site_symmetry_1
_geom_bond_site_symmetry_2
Ni1 O1 1_555 1_555
O1 Ni1A 1_555 1_555
O2 C1 1_555 1_555
O3 C1 1_555 1_555
N1 Ni1 1_555 1_555
N2 C4 1_555 1_555
C1 C2 1_555 1_555
C2 C10 1_555 1_555
C3 C4 1_555 1_555
C4 C5 1_555 1_555
C5 H1 1_555 1_555
C6 C5 1_555 1_555
C7 C6 1_555 1_555
C8 C7 1_555 1_555
H2 C8 1_555 1_555
C9 N1 1_555 1_555
H3 C9 1_555 1_555
C10 H4 1_555 1_555
C11 C3 1_555 1_555
H5 C11 1_555 1_555
C12 C3 1_555 1_555
H6 C12 1_555 1_555
C13 C2 1_555 1_555
H7 C13 1_555 1_555
O4 H8 1_555 1_555
C14 O4 1_555 1_555
H9 C14 1_555 1_555
H10 C14 1_555 1_555
H11 C14 1_555 1_555
O5 H12 1_555 1_555
C15 O5 1_555 1_555
H13 C15 1_555 1_555
H14 C15 1_555 1_555
H15 C15 1_555 1_555
O6 H16 1_555 1_555
C16 O6 1_555 1_555
H17 C16 1_555 1_555
H18 C16 1_555 1_555
H19 C16 1_555 1_555
O2Q C1Q 1_555 1_555
O3Q C1Q 1_555 1_555
C1Q C2Q 1_555 1_555
C2Q C10Q 1_555 1_555
C3Q C4Q 1_555 1_555
C4Q N2 1_555 1_555
C5Q C6 1_555 1_555
H1Q C5Q 1_555 1_555
C8Q C7 1_555 1_555
H2Q C8Q 1_555 1_555
C9Q N1 1_555 1_555
H3Q C9Q 1_555 1_555
C10Q H4Q 1_555 1_555
C11Q C3Q 1_555 1_555
H5Q C11Q 1_555 1_555
C12Q C3Q 1_555 1_555
H6Q C12Q 1_555 1_555
C13Q C2Q 1_555 1_555
H7Q C13Q 1_555 1_555
Ni1A N1A 1_555 1_555
O2A C1A 1_555 1_555
O3A C1A 1_555 1_555
N1A C9A 1_555 1_555
N2A C4A 1_555 1_555
C1A C2A 1_555 1_555
C2A C10A 1_555 1_555
C3A C4A 1_555 1_555
C4A C5A 1_555 1_555
C5A H1A 1_555 1_555
C6A C5A 1_555 1_555
C7A C6A 1_555 1_555
C8A C7A 1_555 1_555
H2A C8A 1_555 1_555
C9A C8A 1_555 1_555
H3A C9A 1_555 1_555
C10A H4A 1_555 1_555
C11A C3A 1_555 1_555
H5A C11A 1_555 1_555
C12A C3A 1_555 1_555
H6A C12A 1_555 1_555
C13A C2A 1_555 1_555
H7A C13A 1_555 1_555
O2P C1P 1_555 1_555
O3P C1P 1_555 1_555
C1P C2P 1_555 1_555
C2P C10P 1_555 1_555
C3P C4P 1_555 1_555
C4P N2A 1_555 1_555
C5P C6A 1_555 1_555
H1P C5P 1_555 1_555
C8P C7A 1_555 1_555
H2P C8P 1_555 1_555
C9P N1A 1_555 1_555
H3P C9P 1_555 1_555
C10P H4P 1_555 1_555
C11P C3P 1_555 1_555
H5P C11P 1_555 1_555
C12P C3P 1_555 1_555
H6P C12P 1_555 1_555
C13P C2P 1_555 1_555
H7P C13P 1_555 1_555
Ni1B O1 1_555 1_555
O2B C1B 1_555 1_555
O3B C1B 1_555 1_555
N1B Ni1B 1_555 1_555
N2B C4B 1_555 1_555
C1B C2B 1_555 1_555
C2B C10B 1_555 1_555
C3B C4B 1_555 1_555
C4B C5B 1_555 1_555
C5B H1B 1_555 1_555
C6B C5B 1_555 1_555
C7B C6B 1_555 1_555
C8B C7B 1_555 1_555
H2B C8B 1_555 1_555
C9B N1B 1_555 1_555
H3B C9B 1_555 1_555
C10B H4B 1_555 1_555
C11B C3B 1_555 1_555
H5B C11B 1_555 1_555
C12B C3B 1_555 1_555
H6B C12B 1_555 1_555
C13B C2B 1_555 1_555
H7B C13B 1_555 1_555
O2O C1O 1_555 1_555
O3O C1O 1_555 1_555
C1O C2O 1_555 1_555
C2O C10O 1_555 1_555
C3O C4O 1_555 1_555
C4O N2B 1_555 1_555
C5O C6B 1_555 1_555
H1O C5O 1_555 1_555
C8O C7B 1_555 1_555
H2O C8O 1_555 1_555
C9O N1B 1_555 1_555
H3O C9O 1_555 1_555
C10O H4O 1_555 1_555
C11O C3O 1_555 1_555
H5O C11O 1_555 1_555
C12O C3O 1_555 1_555
H6O C12O 1_555 1_555
C13O C2O 1_555 1_555
H7O C13O 1_555 1_555
Ni1R O3 1_555 1_555
Ni1R_2 O2B 1_555 1_555
Ni1S O3A 1_555 1_555
Ni1S_2 O2 1_555 1_555
Ni1T O2A 1_555 1_555
Ni1T_2 O3B 1_555 1_555
Ni1DA O2P 1_555 1_555
Ni1DA_2 O3Q 1_555 1_555
Ni1EA O3P 1_555 1_555
Ni1EA_2 O2O 1_555 1_555
Ni1FA O3O 1_555 1_555
Ni1FA_2 O2Q 1_555 1_555
O2R Ni1A 1_555 1_555
O2S Ni1B 1_555 1_555
O2T Ni1 1_555 1_555
O2AA Ni1A 1_555 1_555
O2BA Ni1 1_555 1_555
O2CA Ni1B 1_555 1_555
O3R Ni1 1_555 1_555
O3S Ni1A 1_555 1_555
O3T Ni1B 1_555 1_555
O3AA Ni1B 1_555 1_555
O3BA Ni1A 1_555 1_555
O3CA Ni1 1_555 1_555
C8 C9 1_555 1_555
C10 C11 1_555 1_555
C12 C13 1_555 1_555
C4Q C5Q 1_555 1_555
C8Q C9Q 1_555 1_555
C10Q C11Q 1_555 1_555
C12Q C13Q 1_555 1_555
C10A C11A 1_555 1_555
C12A C13A 1_555 1_555
C4P C5P 1_555 1_555
C8P C9P 1_555 1_555
C10P C11P 1_555 1_555
C12P C13P 1_555 1_555
C8B C9B 1_555 1_555
C10B C11B 1_555 1_555
C12B C13B 1_555 1_555
C4O C5O 1_555 1_555
C8O C9O 1_555 1_555
C10O C11O 1_555 1_555
C12O C13O 1_555 1_555

#END
