
#######################################################################
#
#                 Cambridge Crystallographic Data Centre
#                                CCDC 
#
#######################################################################
#
# If this CIF has been generated from an entry in the Cambridge 
# Structural Database, then it will include bibliographic, chemical, 
# crystal, experimental, refinement or atomic coordinate data resulting 
# from the CCDC's data processing and validation procedures.
#
#######################################################################

data_KEVBUK
_chemical_formula_moiety         '(C72 H43 N6 Ni3 O13)n'
_chemical_name_systematic        
catena-(tris(\m~5~-4,4'-(4,4'-Bipyridine-2,6-diyl)dibenzoato)-(\m~3~-hydroxo)-di-nickel(ii)-nickel(iii))
_symmetry_cell_setting           rhombohedral
_symmetry_space_group_name_H-M   'R -3 c'
_symmetry_Int_Tables_number      167
_space_group_name_Hall           '-R 3 2"c'
loop_
_symmetry_equiv_pos_site_id
_symmetry_equiv_pos_as_xyz
1 x,y,z
2 -y,x-y,z
3 -x+y,-x,z
4 y,x,1/2-z
5 x-y,-y,1/2-z
6 -x,-x+y,1/2-z
7 2/3+x,1/3+y,1/3+z
8 2/3-y,1/3+x-y,1/3+z
9 2/3-x+y,1/3-x,1/3+z
10 2/3+y,1/3+x,5/6-z
11 2/3+x-y,1/3-y,5/6-z
12 2/3-x,1/3-x+y,5/6-z
13 1/3+x,2/3+y,2/3+z
14 1/3-y,2/3+x-y,2/3+z
15 1/3-x+y,2/3-x,2/3+z
16 1/3+y,2/3+x,1/6-z
17 1/3+x-y,2/3-y,1/6-z
18 1/3-x,2/3-x+y,1/6-z
19 -x,-y,-z
20 y,-x+y,-z
21 x-y,x,-z
22 -y,-x,1/2+z
23 -x+y,y,1/2+z
24 x,x-y,1/2+z
25 1/3-x,2/3-y,2/3-z
26 1/3+y,2/3-x+y,2/3-z
27 1/3+x-y,2/3+x,2/3-z
28 1/3-y,2/3-x,1/6+z
29 1/3-x+y,2/3+y,1/6+z
30 1/3+x,2/3+x-y,1/6+z
31 2/3-x,1/3-y,1/3-z
32 2/3+y,1/3-x+y,1/3-z
33 2/3+x-y,1/3+x,1/3-z
34 2/3-y,1/3-x,5/6+z
35 2/3-x+y,1/3+y,5/6+z
36 2/3+x,1/3+x-y,5/6+z
_cell_length_a                   29.884(4)
_cell_length_b                   29.884(4)
_cell_length_c                   11.8868(14)
_cell_angle_alpha                90
_cell_angle_beta                 90
_cell_angle_gamma                120
_cell_volume                     9193.33
_exptl_crystal_colour            green
_exptl_crystal_description       plate
_cell_formula_units_Z            6
loop_
_atom_site_label
_atom_site_type_symbol
_atom_site_fract_x
_atom_site_fract_y
_atom_site_fract_z
Ni1 Ni 0.6667 0.40239(3) 0.0833
O1 O 0.6667 0.3333 0.0833
O2 O 0.43332(17) 0.71092(15) 0.0349(5)
O3 O 0.39035(16) 0.62632(16) 0.0419(4)
N1 N 0.6667 0.4727(2) 0.0833
N2 N 0.6667 0.7105(2) 0.0833
C1 C 0.4303(2) 0.6689(2) 0.0495(5)
C2 C 0.4806(2) 0.66944(19) 0.0733(5)
C3 C 0.5272(2) 0.71115(19) 0.0350(5)
H1 H 0.5274 0.7405 0.0039
C4 C 0.5729(2) 0.7100(2) 0.0420(5)
H2 H 0.6042 0.7386 0.0156
C5 C 0.5730(2) 0.6670(2) 0.0877(5)
C6 C 0.5272(2) 0.6268(2) 0.1305(5)
H3 H 0.5273 0.5982 0.1653
C7 C 0.4813(2) 0.6279(2) 0.1230(5)
H4 H 0.4503 0.6000 0.1520
C8 C 0.6222(2) 0.6650(2) 0.0866(5)
C9 C 0.6205(2) 0.6176(2) 0.0848(5)
H5 H 0.5882 0.5863 0.0845
C10 C 0.6667 0.6164(2) 0.0833
C11 C 0.6667 0.5666(3) 0.0833
C12 C 0.7052(2) 0.5618(2) 0.1373(5)
H6 H 0.7325 0.5906 0.1748
C13 C 0.7037(2) 0.5149(2) 0.1364(5)
H7 H 0.7301 0.5121 0.1750
O2Q O 0.90001(17) 0.94427(23) 0.1318(5)
O3Q O 0.94298(16) 0.90264(23) 0.1248(4)
C1Q C 0.9030(2) 0.9053(3) 0.1172(5)
C2Q C 0.8527(2) 0.85551(28) 0.0934(5)
C3Q C 0.8061(2) 0.85062(28) 0.1317(5)
H1Q H 0.8059 0.8798 0.1628
C4Q C 0.7604(2) 0.8038(3) 0.1247(5)
H2Q H 0.7291 0.8011 0.1511
C5Q C 0.7603(2) 0.7607(3) 0.0790(5)
C6Q C 0.8061(2) 0.7663(3) 0.0362(5)
H3Q H 0.8060 0.7376 0.0014
C7Q C 0.8520(2) 0.8133(3) 0.0437(5)
H4Q H 0.8830 0.8164 0.0147
C8Q C 0.7111(2) 0.7095(3) 0.0801(5)
C9Q C 0.7128(2) 0.6638(3) 0.0819(5)
H5Q H 0.7451 0.6648 0.0822
C12Q C 0.6281(2) 0.5233(3) 0.0294(5)
H6Q H 0.6008 0.5248 -0.0081
C13Q C 0.6296(2) 0.4779(3) 0.0303(5)
H7Q H 0.6032 0.4487 -0.0083
Ni1A Ni 0.59761(3) 0.26431(3) 0.0833
O2A O 0.28908(15) -0.27760(23) 0.0349(5)
O3A O 0.37368(16) -0.23597(23) 0.0419(4)
N1A N 0.5273(2) 0.1940(2) 0.0833
N2A N 0.2895(2) -0.0438(2) 0.0833
C1A C 0.3311(2) -0.2386(3) 0.0495(5)
C2A C 0.33056(19) -0.18884(28) 0.0733(5)
C3A C 0.28885(19) -0.18395(28) 0.0350(5)
H1A H 0.2595 -0.2131 0.0039
C4A C 0.2900(2) -0.1371(3) 0.0420(5)
H2A H 0.2614 -0.1344 0.0156
C5A C 0.3330(2) -0.0940(3) 0.0877(5)
C6A C 0.3732(2) -0.0996(3) 0.1305(5)
H3A H 0.4018 -0.0709 0.1653
C7A C 0.3721(2) -0.1466(3) 0.1230(5)
H4A H 0.4000 -0.1497 0.1520
C8A C 0.3350(2) -0.0428(3) 0.0866(5)
C9A C 0.3824(2) 0.0029(3) 0.0848(5)
H5A H 0.4137 0.0019 0.0845
C10A C 0.3836(2) 0.0503(2) 0.0833
C11A C 0.4334(3) 0.1001(3) 0.0833
C12A C 0.4382(2) 0.1434(3) 0.1373(5)
H6A H 0.4094 0.1419 0.1748
C13A C 0.4851(2) 0.1888(3) 0.1364(5)
H7A H 0.4879 0.2180 0.1750
O2P O 0.05573(23) -0.04425(15) 0.1318(5)
O3P O 0.09736(23) 0.04035(16) 0.1248(4)
C1P C 0.0947(3) -0.0022(2) 0.1172(5)
C2P C 0.14449(28) -0.00277(19) 0.0934(5)
C3P C 0.14938(28) -0.04448(19) 0.1317(5)
H1P H 0.1202 -0.0738 0.1628
C4P C 0.1962(3) -0.0433(2) 0.1247(5)
H2P H 0.1989 -0.0719 0.1511
C5P C 0.2393(3) -0.0003(2) 0.0790(5)
C6P C 0.2337(3) 0.0399(2) 0.0362(5)
H3P H 0.2624 0.0685 0.0014
C7P C 0.1867(3) 0.0388(2) 0.0437(5)
H4P H 0.1836 0.0667 0.0147
C8P C 0.2905(3) 0.0017(2) 0.0801(5)
C9P C 0.3362(3) 0.0491(2) 0.0819(5)
H5P H 0.3352 0.0804 0.0822
C12P C 0.4767(3) 0.1049(2) 0.0294(5)
H6P H 0.4752 0.0761 -0.0081
C13P C 0.5221(3) 0.1518(2) 0.0303(5)
H7P H 0.5513 0.1546 -0.0083
Ni1B Ni 0.73569(3) 0.3333 0.0833
O2B O 1.27760(23) 0.56668(17) 0.0349(5)
O3B O 1.23597(23) 0.60965(16) 0.0419(4)
N1B N 0.8060(2) 0.3333 0.0833
N2B N 1.0438(2) 0.3333 0.0833
C1B C 1.2386(3) 0.5697(2) 0.0495(5)
C2B C 1.18884(28) 0.5194(2) 0.0733(5)
C3B C 1.18395(28) 0.4728(2) 0.0350(5)
H1B H 1.2131 0.4726 0.0039
C4B C 1.1371(3) 0.4271(2) 0.0420(5)
H2B H 1.1344 0.3958 0.0156
C5B C 1.0940(3) 0.4270(2) 0.0877(5)
C6B C 1.0996(3) 0.4728(2) 0.1305(5)
H3B H 1.0709 0.4727 0.1653
C7B C 1.1466(3) 0.5187(2) 0.1230(5)
H4B H 1.1497 0.5497 0.1520
C8B C 1.0428(3) 0.3778(2) 0.0866(5)
C9B C 0.9971(3) 0.3795(2) 0.0848(5)
H5B H 0.9981 0.4118 0.0845
C10B C 0.9497(2) 0.3333 0.0833
C11B C 0.8999(3) 0.3333 0.0833
C12B C 0.8566(3) 0.2948(2) 0.1373(5)
H6B H 0.8581 0.2675 0.1748
C13B C 0.8112(3) 0.2963(2) 0.1364(5)
H7B H 0.7820 0.2699 0.1750
O2O O 1.04425(15) 0.09999(17) 0.1318(5)
O3O O 0.95965(16) 0.05702(16) 0.1248(4)
C1O C 1.0022(2) 0.0970(2) 0.1172(5)
C2O C 1.00277(19) 0.1473(2) 0.0934(5)
C3O C 1.04448(19) 0.1939(2) 0.1317(5)
H1O H 1.0738 0.1941 0.1628
C4O C 1.0433(2) 0.2396(2) 0.1247(5)
H2O H 1.0719 0.2709 0.1511
C5O C 1.0003(2) 0.2397(2) 0.0790(5)
C6O C 0.9601(2) 0.1939(2) 0.0362(5)
H3O H 0.9315 0.1940 0.0014
C7O C 0.9612(2) 0.1480(2) 0.0437(5)
H4O H 0.9333 0.1170 0.0147
C8O C 0.9983(2) 0.2889(2) 0.0801(5)
C9O C 0.9509(2) 0.2872(2) 0.0819(5)
H5O H 0.9196 0.2549 0.0822
C12O C 0.8951(2) 0.3719(2) 0.0294(5)
H6O H 0.9239 0.3992 -0.0081
C13O C 0.8482(2) 0.3704(2) 0.0303(5)
H7O H 0.8454 0.3968 -0.0083
Ni1R Ni 0.3333 0.59761(3) -0.0833
Ni1R_2 Ni 1.3333 0.59761(3) -0.0833
Ni1S Ni 0.40239(3) -0.26431(3) -0.0833
Ni1S_2 Ni 0.40239(3) 0.73569(3) -0.0833
Ni1T Ni 0.26431(3) -0.3333 -0.0833
Ni1T_2 Ni 1.26431(3) 0.6667 -0.0833
Ni1DA Ni -0.0000 -0.06906(3) 0.2500
Ni1DA_2 Ni 1.0000 0.93094(3) 0.2500
Ni1EA Ni 0.06906(3) 0.06902(3) 0.2500
Ni1EA_2 Ni 1.06906(3) 0.06902(3) 0.2500
Ni1FA Ni 0.93098(3) 0.0000 0.2500
Ni1FA_2 Ni 0.93098(3) 1.0000 0.2500
O2R O 0.56668(17) 0.28908(15) -0.0349(5)
O2S O 0.71092(15) 0.27760(23) -0.0349(5)
O2T O 0.72240(23) 0.43332(17) -0.0349(5)
O2AA O 0.62241(15) 0.23335(17) 0.2016(5)
O2BA O 0.61093(23) 0.37759(15) 0.2016(5)
O2CA O 0.76665(17) 0.38907(23) 0.2016(5)
O3R O 0.60965(16) 0.37368(16) -0.0419(4)
O3S O 0.62632(16) 0.23597(23) -0.0419(4)
O3T O 0.76403(23) 0.39035(16) -0.0419(4)
O3AA O 0.70701(16) 0.27632(16) 0.2086(4)
O3BA O 0.56930(23) 0.29299(16) 0.2086(4)
O3CA O 0.72368(16) 0.43070(23) 0.2086(4)
H8? H 0.6667 0.3333 0.1675
loop_
_geom_bond_atom_site_label_1
_geom_bond_atom_site_label_2
_geom_bond_site_symmetry_1
_geom_bond_site_symmetry_2
Ni1 O1 1_555 1_555
O1 Ni1A 1_555 1_555
O2 C1 1_555 1_555
O3 C1 1_555 1_555
N1 Ni1 1_555 1_555
N2 C8 1_555 1_555
C1 C2 1_555 1_555
C2 C3 1_555 1_555
C3 H1 1_555 1_555
C4 C3 1_555 1_555
H2 C4 1_555 1_555
C5 C4 1_555 1_555
C6 C5 1_555 1_555
H3 C6 1_555 1_555
C7 C2 1_555 1_555
H4 C7 1_555 1_555
C8 C5 1_555 1_555
C9 C8 1_555 1_555
H5 C9 1_555 1_555
C10 C9 1_555 1_555
C11 C10 1_555 1_555
C12 C11 1_555 1_555
H6 C12 1_555 1_555
C13 N1 1_555 1_555
H7 C13 1_555 1_555
O2Q C1Q 1_555 1_555
O3Q C1Q 1_555 1_555
C1Q C2Q 1_555 1_555
C2Q C3Q 1_555 1_555
C3Q H1Q 1_555 1_555
C4Q C3Q 1_555 1_555
H2Q C4Q 1_555 1_555
C5Q C4Q 1_555 1_555
C6Q C5Q 1_555 1_555
H3Q C6Q 1_555 1_555
C7Q C2Q 1_555 1_555
H4Q C7Q 1_555 1_555
C8Q N2 1_555 1_555
C9Q C10 1_555 1_555
H5Q C9Q 1_555 1_555
C12Q C11 1_555 1_555
H6Q C12Q 1_555 1_555
C13Q N1 1_555 1_555
H7Q C13Q 1_555 1_555
Ni1A N1A 1_555 1_555
O2A C1A 1_555 1_555
O3A C1A 1_555 1_555
N1A C13A 1_555 1_555
N2A C8A 1_555 1_555
C1A C2A 1_555 1_555
C2A C3A 1_555 1_555
C3A H1A 1_555 1_555
C4A C3A 1_555 1_555
H2A C4A 1_555 1_555
C5A C4A 1_555 1_555
C6A C5A 1_555 1_555
H3A C6A 1_555 1_555
C7A C2A 1_555 1_555
H4A C7A 1_555 1_555
C8A C5A 1_555 1_555
C9A C8A 1_555 1_555
H5A C9A 1_555 1_555
C10A C9A 1_555 1_555
C11A C10A 1_555 1_555
C12A C11A 1_555 1_555
H6A C12A 1_555 1_555
C13A C12A 1_555 1_555
H7A C13A 1_555 1_555
O2P C1P 1_555 1_555
O3P C1P 1_555 1_555
C1P C2P 1_555 1_555
C2P C3P 1_555 1_555
C3P H1P 1_555 1_555
C4P C3P 1_555 1_555
H2P C4P 1_555 1_555
C5P C4P 1_555 1_555
C6P C5P 1_555 1_555
H3P C6P 1_555 1_555
C7P C2P 1_555 1_555
H4P C7P 1_555 1_555
C8P N2A 1_555 1_555
C9P C10A 1_555 1_555
H5P C9P 1_555 1_555
C12P C11A 1_555 1_555
H6P C12P 1_555 1_555
C13P N1A 1_555 1_555
H7P C13P 1_555 1_555
Ni1B O1 1_555 1_555
O2B C1B 1_555 1_555
O3B C1B 1_555 1_555
N1B Ni1B 1_555 1_555
N2B C8B 1_555 1_555
C1B C2B 1_555 1_555
C2B C3B 1_555 1_555
C3B H1B 1_555 1_555
C4B C3B 1_555 1_555
H2B C4B 1_555 1_555
C5B C4B 1_555 1_555
C6B C5B 1_555 1_555
H3B C6B 1_555 1_555
C7B C2B 1_555 1_555
H4B C7B 1_555 1_555
C8B C5B 1_555 1_555
C9B C8B 1_555 1_555
H5B C9B 1_555 1_555
C10B C9B 1_555 1_555
C11B C10B 1_555 1_555
C12B C11B 1_555 1_555
H6B C12B 1_555 1_555
C13B N1B 1_555 1_555
H7B C13B 1_555 1_555
O2O C1O 1_555 1_555
O3O C1O 1_555 1_555
C1O C2O 1_555 1_555
C2O C3O 1_555 1_555
C3O H1O 1_555 1_555
C4O C3O 1_555 1_555
H2O C4O 1_555 1_555
C5O C4O 1_555 1_555
C6O C5O 1_555 1_555
H3O C6O 1_555 1_555
C7O C2O 1_555 1_555
H4O C7O 1_555 1_555
C8O N2B 1_555 1_555
C9O C10B 1_555 1_555
H5O C9O 1_555 1_555
C12O C11B 1_555 1_555
H6O C12O 1_555 1_555
C13O N1B 1_555 1_555
H7O C13O 1_555 1_555
Ni1R O3 1_555 1_555
Ni1R_2 O2B 1_555 1_555
Ni1S O3A 1_555 1_555
Ni1S_2 O2 1_555 1_555
Ni1T O2A 1_555 1_555
Ni1T_2 O3B 1_555 1_555
Ni1DA O2P 1_555 1_555
Ni1DA_2 O3Q 1_555 1_555
Ni1EA O3P 1_555 1_555
Ni1EA_2 O2O 1_555 1_555
Ni1FA O3O 1_555 1_555
Ni1FA_2 O2Q 1_555 1_555
O2R Ni1A 1_555 1_555
O2S Ni1B 1_555 1_555
O2T Ni1 1_555 1_555
O2AA Ni1A 1_555 1_555
O2BA Ni1 1_555 1_555
O2CA Ni1B 1_555 1_555
O3R Ni1 1_555 1_555
O3S Ni1A 1_555 1_555
O3T Ni1B 1_555 1_555
O3AA Ni1B 1_555 1_555
O3BA Ni1A 1_555 1_555
O3CA Ni1 1_555 1_555
C6 C7 1_555 1_555
C12 C13 1_555 1_555
C5Q C8Q 1_555 1_555
C6Q C7Q 1_555 1_555
C8Q C9Q 1_555 1_555
C12Q C13Q 1_555 1_555
C6A C7A 1_555 1_555
C5P C8P 1_555 1_555
C6P C7P 1_555 1_555
C8P C9P 1_555 1_555
C12P C13P 1_555 1_555
C6B C7B 1_555 1_555
C12B C13B 1_555 1_555
C5O C8O 1_555 1_555
C6O C7O 1_555 1_555
C8O C9O 1_555 1_555
C12O C13O 1_555 1_555

#END
