
#######################################################################
#
#                 Cambridge Crystallographic Data Centre
#                                CCDC 
#
#######################################################################
#
# If this CIF has been generated from an entry in the Cambridge 
# Structural Database, then it will include bibliographic, chemical, 
# crystal, experimental, refinement or atomic coordinate data resulting 
# from the CCDC's data processing and validation procedures.
#
#######################################################################

data_KEVBUK01
_chemical_formula_moiety         '(C72 H43 N6 Ni3 O13)n'
_chemical_name_systematic        
catena-(tris(\m~5~-4,4'-(4,4'-Bipyridine-2,6-diyl)dibenzoato)-(\m~3~-hydroxo)-di-nickel(ii)-nickel(iii))
_symmetry_cell_setting           rhombohedral
_symmetry_space_group_name_H-M   'R -3 c'
_symmetry_Int_Tables_number      167
_space_group_name_Hall           '-R 3 2"c'
loop_
_symmetry_equiv_pos_site_id
_symmetry_equiv_pos_as_xyz
1 x,y,z
2 -y,x-y,z
3 -x+y,-x,z
4 y,x,1/2-z
5 x-y,-y,1/2-z
6 -x,-x+y,1/2-z
7 2/3+x,1/3+y,1/3+z
8 2/3-y,1/3+x-y,1/3+z
9 2/3-x+y,1/3-x,1/3+z
10 2/3+y,1/3+x,5/6-z
11 2/3+x-y,1/3-y,5/6-z
12 2/3-x,1/3-x+y,5/6-z
13 1/3+x,2/3+y,2/3+z
14 1/3-y,2/3+x-y,2/3+z
15 1/3-x+y,2/3-x,2/3+z
16 1/3+y,2/3+x,1/6-z
17 1/3+x-y,2/3-y,1/6-z
18 1/3-x,2/3-x+y,1/6-z
19 -x,-y,-z
20 y,-x+y,-z
21 x-y,x,-z
22 -y,-x,1/2+z
23 -x+y,y,1/2+z
24 x,x-y,1/2+z
25 1/3-x,2/3-y,2/3-z
26 1/3+y,2/3-x+y,2/3-z
27 1/3+x-y,2/3+x,2/3-z
28 1/3-y,2/3-x,1/6+z
29 1/3-x+y,2/3+y,1/6+z
30 1/3+x,2/3+x-y,1/6+z
31 2/3-x,1/3-y,1/3-z
32 2/3+y,1/3-x+y,1/3-z
33 2/3+x-y,1/3+x,1/3-z
34 2/3-y,1/3-x,5/6+z
35 2/3-x+y,1/3+y,5/6+z
36 2/3+x,1/3+x-y,5/6+z
_cell_length_a                   29.870(4)
_cell_length_b                   29.870(4)
_cell_length_c                   12.0337(15)
_cell_angle_alpha                90
_cell_angle_beta                 90
_cell_angle_gamma                120
_cell_volume                     9298.23
_exptl_crystal_colour            green
_exptl_crystal_description       plate
_cell_formula_units_Z            6
loop_
_atom_site_label
_atom_site_type_symbol
_atom_site_fract_x
_atom_site_fract_y
_atom_site_fract_z
Ni1 Ni 0.6667 0.40235(3) 0.0833
O1 O 0.6667 0.3333 0.0833
O2 O 0.43364(16) 0.71109(14) 0.0340(4)
O3 O 0.39051(16) 0.62649(15) 0.0413(4)
N1 N 0.6667 0.4727(2) 0.0833
N2 N 0.6667 0.7105(2) 0.0833
C1 C 0.4308(2) 0.6692(2) 0.0491(5)
C2 C 0.4807(2) 0.6695(2) 0.0717(5)
C3 C 0.5274(2) 0.7112(2) 0.0346(6)
H1 H 0.5278 0.7402 0.0048
C4 C 0.5728(2) 0.7099(2) 0.0420(6)
H2 H 0.6035 0.7378 0.0167
C5 C 0.5732(2) 0.6671(2) 0.0868(5)
C6 C 0.5271(2) 0.6268(2) 0.1285(5)
H3 H 0.5271 0.5987 0.1619
C7 C 0.4815(2) 0.6277(2) 0.1213(5)
H4 H 0.4512 0.6003 0.1496
C8 C 0.6222(2) 0.6650(2) 0.0861(5)
C9 C 0.6206(2) 0.6175(2) 0.0845(5)
H5 H 0.5890 0.5869 0.0843
C10 C 0.6667 0.6161(3) 0.0833
C11 C 0.6667 0.5665(3) 0.0833
C12 C 0.7047(2) 0.5617(2) 0.1373(6)
H6 H 0.7311 0.5898 0.1744
C13 C 0.7033(2) 0.5147(2) 0.1358(6)
H7 H 0.7291 0.5121 0.1732
O2Q O 0.89969(16) 0.94412(21) 0.1327(4)
O3Q O 0.94282(16) 0.90265(22) 0.1254(4)
C1Q C 0.9025(2) 0.9051(3) 0.1176(5)
C2Q C 0.8526(2) 0.8555(3) 0.0950(5)
C3Q C 0.8059(2) 0.8505(3) 0.1321(6)
H1Q H 0.8055 0.8791 0.1619
C4Q C 0.7605(2) 0.8038(3) 0.1247(6)
H2Q H 0.7298 0.8010 0.1500
C5Q C 0.7601(2) 0.7606(3) 0.0799(5)
C6Q C 0.8062(2) 0.7664(3) 0.0382(5)
H3Q H 0.8062 0.7383 0.0048
C7Q C 0.8518(2) 0.8129(3) 0.0454(5)
H4Q H 0.8821 0.8158 0.0171
C8Q C 0.7111(2) 0.7095(3) 0.0806(5)
C9Q C 0.7127(2) 0.6636(3) 0.0822(5)
H5Q H 0.7443 0.6646 0.0824
C12Q C 0.6286(2) 0.5237(3) 0.0294(6)
H6Q H 0.6022 0.5254 -0.0077
C13Q C 0.6300(2) 0.4781(3) 0.0309(6)
H7Q H 0.6042 0.4497 -0.0065
Ni1A Ni 0.59765(3) 0.26435(3) 0.0833
O2A O 0.28891(14) -0.27745(21) 0.0340(4)
O3A O 0.37351(15) -0.23598(22) 0.0413(4)
N1A N 0.5273(2) 0.1940(2) 0.0833
N2A N 0.2895(2) -0.0438(2) 0.0833
C1A C 0.3308(2) -0.2384(3) 0.0491(5)
C2A C 0.3305(2) -0.1888(3) 0.0717(5)
C3A C 0.2888(2) -0.1838(3) 0.0346(6)
H1A H 0.2598 -0.2124 0.0048
C4A C 0.2901(2) -0.1371(3) 0.0420(6)
H2A H 0.2622 -0.1343 0.0167
C5A C 0.3329(2) -0.0939(3) 0.0868(5)
C6A C 0.3732(2) -0.0997(3) 0.1285(5)
H3A H 0.4013 -0.0716 0.1619
C7A C 0.3723(2) -0.1462(3) 0.1213(5)
H4A H 0.3997 -0.1491 0.1496
C8A C 0.3350(2) -0.0428(3) 0.0861(5)
C9A C 0.3825(2) 0.0031(3) 0.0845(5)
H5A H 0.4131 0.0021 0.0843
C10A C 0.3839(3) 0.0506(3) 0.0833
C11A C 0.4335(3) 0.1002(3) 0.0833
C12A C 0.4383(2) 0.1430(3) 0.1373(6)
H6A H 0.4102 0.1413 0.1744
C13A C 0.4853(2) 0.1886(3) 0.1358(6)
H7A H 0.4879 0.2170 0.1732
O2P O 0.05588(21) -0.04442(14) 0.1327(4)
O3P O 0.09735(22) 0.04018(15) 0.1254(4)
C1P C 0.0949(3) -0.0025(2) 0.1176(5)
C2P C 0.1445(3) -0.0028(2) 0.0950(5)
C3P C 0.1495(3) -0.0445(2) 0.1321(6)
H1P H 0.1209 -0.0735 0.1619
C4P C 0.1962(3) -0.0432(2) 0.1247(6)
H2P H 0.1990 -0.0711 0.1500
C5P C 0.2394(3) -0.0004(2) 0.0799(5)
C6P C 0.2336(3) 0.0399(2) 0.0382(5)
H3P H 0.2617 0.0680 0.0048
C7P C 0.1871(3) 0.0390(2) 0.0454(5)
H4P H 0.1842 0.0664 0.0171
C8P C 0.2905(3) 0.0017(2) 0.0806(5)
C9P C 0.3364(3) 0.0492(2) 0.0822(5)
H5P H 0.3354 0.0798 0.0824
C12P C 0.4763(3) 0.1050(2) 0.0294(6)
H6P H 0.4746 0.0769 -0.0077
C13P C 0.5219(3) 0.1520(2) 0.0309(6)
H7P H 0.5503 0.1546 -0.0065
Ni1B Ni 0.73565(3) 0.3333 0.0833
O2B O 1.27745(21) 0.56636(16) 0.0340(4)
O3B O 1.23598(22) 0.60949(16) 0.0413(4)
N1B N 0.8060(2) 0.3333 0.0833
N2B N 1.0438(2) 0.3333 0.0833
C1B C 1.2384(3) 0.5692(2) 0.0491(5)
C2B C 1.1888(3) 0.5193(2) 0.0717(5)
C3B C 1.1838(3) 0.4726(2) 0.0346(6)
H1B H 1.2124 0.4722 0.0048
C4B C 1.1371(3) 0.4272(2) 0.0420(6)
H2B H 1.1343 0.3965 0.0167
C5B C 1.0939(3) 0.4268(2) 0.0868(5)
C6B C 1.0997(3) 0.4729(2) 0.1285(5)
H3B H 1.0716 0.4729 0.1619
C7B C 1.1462(3) 0.5185(2) 0.1213(5)
H4B H 1.1491 0.5488 0.1496
C8B C 1.0428(3) 0.3778(2) 0.0861(5)
C9B C 0.9969(3) 0.3794(2) 0.0845(5)
H5B H 0.9979 0.4110 0.0843
C10B C 0.9494(3) 0.3333 0.0833
C11B C 0.8998(3) 0.3333 0.0833
C12B C 0.8570(3) 0.2953(2) 0.1373(6)
H6B H 0.8587 0.2689 0.1744
C13B C 0.8114(3) 0.2967(2) 0.1358(6)
H7B H 0.7830 0.2709 0.1732
O2O O 1.04442(14) 0.10031(16) 0.1327(4)
O3O O 0.95982(15) 0.05718(16) 0.1254(4)
C1O C 1.0025(2) 0.0975(2) 0.1176(5)
C2O C 1.0028(2) 0.1474(2) 0.0950(5)
C3O C 1.0445(2) 0.1941(2) 0.1321(6)
H1O H 1.0735 0.1945 0.1619
C4O C 1.0432(2) 0.2395(2) 0.1247(6)
H2O H 1.0711 0.2702 0.1500
C5O C 1.0004(2) 0.2399(2) 0.0799(5)
C6O C 0.9601(2) 0.1938(2) 0.0382(5)
H3O H 0.9320 0.1938 0.0048
C7O C 0.9610(2) 0.1482(2) 0.0454(5)
H4O H 0.9336 0.1179 0.0171
C8O C 0.9983(2) 0.2889(2) 0.0806(5)
C9O C 0.9508(2) 0.2873(2) 0.0822(5)
H5O H 0.9202 0.2557 0.0824
C12O C 0.8950(2) 0.3714(2) 0.0294(6)
H6O H 0.9231 0.3978 -0.0077
C13O C 0.8480(2) 0.3700(2) 0.0309(6)
H7O H 0.8454 0.3958 -0.0065
Ni1R Ni 0.3333 0.59765(3) -0.0833
Ni1R_2 Ni 1.3333 0.59765(3) -0.0833
Ni1S Ni 0.40235(3) -0.26435(3) -0.0833
Ni1S_2 Ni 0.40235(3) 0.73565(3) -0.0833
Ni1T Ni 0.26435(3) -0.3333 -0.0833
Ni1T_2 Ni 1.26435(3) 0.6667 -0.0833
Ni1DA Ni -0.0000 -0.06902(3) 0.2500
Ni1DA_2 Ni 1.0000 0.93098(3) 0.2500
Ni1EA Ni 0.06902(3) 0.06898(3) 0.2500
Ni1EA_2 Ni 1.06902(3) 0.06898(3) 0.2500
Ni1FA Ni 0.93102(3) 0.0000 0.2500
Ni1FA_2 Ni 0.93102(3) 1.0000 0.2500
O2R O 0.56636(16) 0.28891(14) -0.0340(4)
O2S O 0.71109(14) 0.27745(21) -0.0340(4)
O2T O 0.72255(21) 0.43364(16) -0.0340(4)
O2AA O 0.62224(14) 0.23303(16) 0.2007(4)
O2BA O 0.61078(21) 0.37776(14) 0.2007(4)
O2CA O 0.76697(16) 0.38922(21) 0.2007(4)
O3R O 0.60949(16) 0.37351(15) -0.0413(4)
O3S O 0.62649(15) 0.23598(22) -0.0413(4)
O3T O 0.76402(22) 0.39051(16) -0.0413(4)
O3AA O 0.70684(15) 0.27616(16) 0.2080(4)
O3BA O 0.56931(22) 0.29316(15) 0.2080(4)
O3CA O 0.72384(16) 0.43069(22) 0.2080(4)
H8? H 0.6667 0.3333 0.0019
loop_
_geom_bond_atom_site_label_1
_geom_bond_atom_site_label_2
_geom_bond_site_symmetry_1
_geom_bond_site_symmetry_2
Ni1 O1 1_555 1_555
O1 Ni1A 1_555 1_555
O2 C1 1_555 1_555
O3 C1 1_555 1_555
N1 Ni1 1_555 1_555
N2 C8 1_555 1_555
C1 C2 1_555 1_555
C2 C3 1_555 1_555
C3 H1 1_555 1_555
C4 C3 1_555 1_555
H2 C4 1_555 1_555
C5 C4 1_555 1_555
C6 C5 1_555 1_555
H3 C6 1_555 1_555
C7 C2 1_555 1_555
H4 C7 1_555 1_555
C8 C5 1_555 1_555
C9 C8 1_555 1_555
H5 C9 1_555 1_555
C10 C9 1_555 1_555
C11 C10 1_555 1_555
C12 C11 1_555 1_555
H6 C12 1_555 1_555
C13 N1 1_555 1_555
H7 C13 1_555 1_555
O2Q C1Q 1_555 1_555
O3Q C1Q 1_555 1_555
C1Q C2Q 1_555 1_555
C2Q C3Q 1_555 1_555
C3Q H1Q 1_555 1_555
C4Q C3Q 1_555 1_555
H2Q C4Q 1_555 1_555
C5Q C4Q 1_555 1_555
C6Q C5Q 1_555 1_555
H3Q C6Q 1_555 1_555
C7Q C2Q 1_555 1_555
H4Q C7Q 1_555 1_555
C8Q N2 1_555 1_555
C9Q C10 1_555 1_555
H5Q C9Q 1_555 1_555
C12Q C11 1_555 1_555
H6Q C12Q 1_555 1_555
C13Q N1 1_555 1_555
H7Q C13Q 1_555 1_555
Ni1A N1A 1_555 1_555
O2A C1A 1_555 1_555
O3A C1A 1_555 1_555
N1A C13A 1_555 1_555
N2A C8A 1_555 1_555
C1A C2A 1_555 1_555
C2A C3A 1_555 1_555
C3A H1A 1_555 1_555
C4A C3A 1_555 1_555
H2A C4A 1_555 1_555
C5A C4A 1_555 1_555
C6A C5A 1_555 1_555
H3A C6A 1_555 1_555
C7A C2A 1_555 1_555
H4A C7A 1_555 1_555
C8A C5A 1_555 1_555
C9A C8A 1_555 1_555
H5A C9A 1_555 1_555
C10A C9A 1_555 1_555
C11A C10A 1_555 1_555
C12A C11A 1_555 1_555
H6A C12A 1_555 1_555
C13A C12A 1_555 1_555
H7A C13A 1_555 1_555
O2P C1P 1_555 1_555
O3P C1P 1_555 1_555
C1P C2P 1_555 1_555
C2P C3P 1_555 1_555
C3P H1P 1_555 1_555
C4P C3P 1_555 1_555
H2P C4P 1_555 1_555
C5P C4P 1_555 1_555
C6P C5P 1_555 1_555
H3P C6P 1_555 1_555
C7P C2P 1_555 1_555
H4P C7P 1_555 1_555
C8P N2A 1_555 1_555
C9P C10A 1_555 1_555
H5P C9P 1_555 1_555
C12P C11A 1_555 1_555
H6P C12P 1_555 1_555
C13P N1A 1_555 1_555
H7P C13P 1_555 1_555
Ni1B O1 1_555 1_555
O2B C1B 1_555 1_555
O3B C1B 1_555 1_555
N1B Ni1B 1_555 1_555
N2B C8B 1_555 1_555
C1B C2B 1_555 1_555
C2B C3B 1_555 1_555
C3B H1B 1_555 1_555
C4B C3B 1_555 1_555
H2B C4B 1_555 1_555
C5B C4B 1_555 1_555
C6B C5B 1_555 1_555
H3B C6B 1_555 1_555
C7B C2B 1_555 1_555
H4B C7B 1_555 1_555
C8B C5B 1_555 1_555
C9B C8B 1_555 1_555
H5B C9B 1_555 1_555
C10B C9B 1_555 1_555
C11B C10B 1_555 1_555
C12B C11B 1_555 1_555
H6B C12B 1_555 1_555
C13B N1B 1_555 1_555
H7B C13B 1_555 1_555
O2O C1O 1_555 1_555
O3O C1O 1_555 1_555
C1O C2O 1_555 1_555
C2O C3O 1_555 1_555
C3O H1O 1_555 1_555
C4O C3O 1_555 1_555
H2O C4O 1_555 1_555
C5O C4O 1_555 1_555
C6O C5O 1_555 1_555
H3O C6O 1_555 1_555
C7O C2O 1_555 1_555
H4O C7O 1_555 1_555
C8O N2B 1_555 1_555
C9O C10B 1_555 1_555
H5O C9O 1_555 1_555
C12O C11B 1_555 1_555
H6O C12O 1_555 1_555
C13O N1B 1_555 1_555
H7O C13O 1_555 1_555
Ni1R O3 1_555 1_555
Ni1R_2 O2B 1_555 1_555
Ni1S O3A 1_555 1_555
Ni1S_2 O2 1_555 1_555
Ni1T O2A 1_555 1_555
Ni1T_2 O3B 1_555 1_555
Ni1DA O2P 1_555 1_555
Ni1DA_2 O3Q 1_555 1_555
Ni1EA O3P 1_555 1_555
Ni1EA_2 O2O 1_555 1_555
Ni1FA O3O 1_555 1_555
Ni1FA_2 O2Q 1_555 1_555
O2R Ni1A 1_555 1_555
O2S Ni1B 1_555 1_555
O2T Ni1 1_555 1_555
O2AA Ni1A 1_555 1_555
O2BA Ni1 1_555 1_555
O2CA Ni1B 1_555 1_555
O3R Ni1 1_555 1_555
O3S Ni1A 1_555 1_555
O3T Ni1B 1_555 1_555
O3AA Ni1B 1_555 1_555
O3BA Ni1A 1_555 1_555
O3CA Ni1 1_555 1_555
C6 C7 1_555 1_555
C12 C13 1_555 1_555
C5Q C8Q 1_555 1_555
C6Q C7Q 1_555 1_555
C8Q C9Q 1_555 1_555
C12Q C13Q 1_555 1_555
C6A C7A 1_555 1_555
C5P C8P 1_555 1_555
C6P C7P 1_555 1_555
C8P C9P 1_555 1_555
C12P C13P 1_555 1_555
C6B C7B 1_555 1_555
C12B C13B 1_555 1_555
C5O C8O 1_555 1_555
C6O C7O 1_555 1_555
C8O C9O 1_555 1_555
C12O C13O 1_555 1_555

#END
