
#######################################################################
#
#                 Cambridge Crystallographic Data Centre
#                                CCDC 
#
#######################################################################
#
# If this CIF has been generated from an entry in the Cambridge 
# Structural Database, then it will include bibliographic, chemical, 
# crystal, experimental, refinement or atomic coordinate data resulting 
# from the CCDC's data processing and validation procedures.
#
#######################################################################

data_FIBKEI
_chemical_formula_moiety         '(C63 H39 Cu6 N3 O30)n'
_chemical_name_systematic        
"catena-(tris(\m~8~-5,5'-(Pyridine-3,5-diyl)di-isophthalato)-hexa-aqua-hexa-copper unknown solvate)"
_symmetry_cell_setting           orthorhombic
_symmetry_space_group_name_H-M   'C m c m'
_symmetry_Int_Tables_number      63
_space_group_name_Hall           '-C 2c 2'
loop_
_symmetry_equiv_pos_site_id
_symmetry_equiv_pos_as_xyz
1 x,y,z
2 -x,-y,1/2+z
3 x,-y,-z
4 -x,y,1/2-z
5 1/2+x,1/2+y,z
6 1/2-x,1/2-y,1/2+z
7 1/2+x,1/2-y,-z
8 1/2-x,1/2+y,1/2-z
9 -x,-y,-z
10 x,y,1/2-z
11 -x,y,z
12 x,-y,1/2+z
13 1/2-x,1/2-y,-z
14 1/2+x,1/2+y,1/2-z
15 1/2-x,1/2+y,z
16 1/2+x,1/2-y,1/2+z
_cell_length_a                   24.650(7)
_cell_length_b                   33.494(9)
_cell_length_c                   18.529(5)
_cell_angle_alpha                90
_cell_angle_beta                 90
_cell_angle_gamma                90
_cell_volume                     15298
_cell_formula_units_Z            4
loop_
_atom_site_label
_atom_site_type_symbol
_atom_site_fract_x
_atom_site_fract_y
_atom_site_fract_z
Cu1 Cu 0.0000 0.439176(10) 0.2500
O1 O 0.05702(4) 0.43273(3) 0.32400(7)
N1 N 0.30790(9) 0.5000 0.5000
C1 C 0.07393(7) 0.39938(5) 0.34380(11)
Cu2 Cu 0.0000 0.360212(11) 0.2500
O2 O 0.05437(6) 0.36573(4) 0.32398(9)
C2 C 0.12097(7) 0.39695(4) 0.39399(10)
Cu3 Cu 0.210020(7) 0.232733(5) 0.463671(9)
O3 O 0.24936(5) 0.31657(3) 0.51496(7)
C3 C 0.14801(7) 0.43150(5) 0.41501(10)
H1 H 0.1348 0.4569 0.4003
O4 O 0.18241(6) 0.28692(5) 0.45465(8)
C4 C 0.19461(7) 0.42895(5) 0.45779(10)
O5 O 0.32370(5) 0.27223(3) 0.44150(6)
C5 C 0.21331(7) 0.39168(5) 0.47918(9)
H2 H 0.2454 0.3897 0.5073
O6 O 0.25586(5) 0.24346(4) 0.38052(6)
C6 C 0.18553(7) 0.35751(5) 0.45981(9)
O7 O 0.0000 0.50296(7) 0.2500
C7 C 0.13963(7) 0.36061(5) 0.41590(10)
H3 H 0.1212 0.3371 0.4011
C8 C 0.20689(7) 0.31655(5) 0.47883(9)
C9 C 0.22315(7) 0.46606(5) 0.47939(10)
C10 C 0.19527(9) 0.5000 0.5000
H4 H 0.1567 0.5000 0.5000
C11 C 0.28010(7) 0.46763(6) 0.47937(13)
H5 H 0.2997 0.4447 0.4641
C12 C 0.30006(7) 0.26134(5) 0.38454(9)
C13 C 0.32742(6) 0.27159(4) 0.31460(9)
C14 C 0.30433(9) 0.26046(6) 0.2500
H6 H 0.2721 0.2449 0.2500
C15 C 0.37520(6) 0.29358(5) 0.31471(9)
H7 H 0.3916 0.3008 0.3593
C16 C 0.39936(8) 0.30516(7) 0.2500
C17 C 0.45211(10) 0.32713(8) 0.2500
C18 C 0.5000 0.31042(10) 0.2500
H8 H 0.5000 0.2821 0.2500
N2 N 0.5000 0.38085(12) 0.3156(3)
C19 C 0.45493(13) 0.36262(10) 0.29901(19)
H9 H 0.4221 0.3724 0.3191
O8 O 0.14648(5) 0.19777(4) 0.41495(8)
O9 O 0.0000 0.29581(8) 0.2500
O1B O 0.05702(4) 0.56727(3) 0.67600(7)
C1B C 0.07393(7) 0.60062(5) 0.65620(11)
O2B O 0.05437(6) 0.63427(4) 0.67602(9)
C2B C 0.12097(7) 0.60305(4) 0.60601(10)
O3B O 0.24936(5) 0.68343(3) 0.48504(7)
C3B C 0.14801(7) 0.56850(5) 0.58499(10)
H1B H 0.1348 0.5431 0.5997
O4B O 0.18241(6) 0.71308(5) 0.54535(8)
C4B C 0.19461(7) 0.57105(5) 0.54221(10)
C5B C 0.21331(7) 0.60832(5) 0.52082(9)
H2B H 0.2454 0.6103 0.4927
C6B C 0.18553(7) 0.64249(5) 0.54019(9)
C7B C 0.13963(7) 0.63939(5) 0.58410(10)
H3B H 0.1212 0.6629 0.5989
C8B C 0.20689(7) 0.68345(5) 0.52117(9)
C9B C 0.22315(7) 0.53394(5) 0.52061(10)
C11B C 0.28010(7) 0.53237(6) 0.52063(13)
H5B H 0.2997 0.5553 0.5359
O5C O 0.67630(5) 0.27223(3) 0.05850(6)
O6C O 0.74414(5) 0.24346(4) 0.11948(6)
C12C C 0.69994(7) 0.26134(5) 0.11546(9)
C13C C 0.67258(6) 0.27159(4) 0.18540(9)
C14C C 0.69567(9) 0.26046(6) 0.2500
H6C H 0.7279 0.2449 0.2500
C15C C 0.62480(6) 0.29358(5) 0.18529(9)
H7C H 0.6084 0.3008 0.1407
C16C C 0.60064(8) 0.30516(7) 0.2500
C17C C 0.54789(10) 0.32713(8) 0.2500
N2C N 0.5000 0.38085(12) 0.1844(3)
C19C C 0.54507(13) 0.36262(10) 0.20099(19)
H9C H 0.5779 0.3724 0.1809
O5I O 0.32370(5) 0.27223(3) 0.05850(6)
O6I O 0.25586(5) 0.24346(4) 0.11948(6)
C12I C 0.30006(7) 0.26134(5) 0.11546(9)
C13I C 0.32742(6) 0.27159(4) 0.18540(9)
C15I C 0.37520(6) 0.29358(5) 0.18529(9)
H7I H 0.3916 0.3008 0.1407
C19I C 0.45493(13) 0.36262(10) 0.20099(19)
H9I H 0.4221 0.3724 0.1809
O5J O 0.67630(5) 0.27223(3) 0.44150(6)
O6J O 0.74414(5) 0.24346(4) 0.38052(6)
C12J C 0.69994(7) 0.26134(5) 0.38454(9)
C13J C 0.67258(6) 0.27159(4) 0.31460(9)
C15J C 0.62480(6) 0.29358(5) 0.31471(9)
H7J H 0.6084 0.3008 0.3593
C19J C 0.54507(13) 0.36262(10) 0.29901(19)
H9J H 0.5779 0.3724 0.3191
Cu3B Cu 0.210020(7) 0.767267(5) 0.536329(9)
O8B O 0.14648(5) 0.80223(4) 0.58505(8)
O1H O -0.05702(4) 0.56727(3) 0.67600(7)
N1H N -0.30790(9) 0.5000 0.5000
C1H C -0.07393(7) 0.60062(5) 0.65620(11)
O2H O -0.05437(6) 0.63427(4) 0.67602(9)
C2H C -0.12097(7) 0.60305(4) 0.60601(10)
Cu3H Cu -0.210020(7) 0.767267(5) 0.536329(9)
O3H O -0.24936(5) 0.68343(3) 0.48504(7)
C3H C -0.14801(7) 0.56850(5) 0.58499(10)
H1H H -0.1348 0.5431 0.5997
O4H O -0.18241(6) 0.71308(5) 0.54535(8)
C4H C -0.19461(7) 0.57105(5) 0.54221(10)
C5H C -0.21331(7) 0.60832(5) 0.52082(9)
H2H H -0.2454 0.6103 0.4927
C6H C -0.18553(7) 0.64249(5) 0.54019(9)
C7H C -0.13963(7) 0.63939(5) 0.58410(10)
H3H H -0.1212 0.6629 0.5989
C8H C -0.20689(7) 0.68345(5) 0.52117(9)
C9H C -0.22315(7) 0.53394(5) 0.52061(10)
C10H C -0.19527(9) 0.5000 0.5000
H4H H -0.1567 0.5000 0.5000
C11H C -0.28010(7) 0.53237(6) 0.52063(13)
H5H H -0.2997 0.5553 0.5359
O8H O -0.14648(5) 0.80223(4) 0.58505(8)
O1J O -0.05702(4) 0.43273(3) 0.32400(7)
C1J C -0.07393(7) 0.39938(5) 0.34380(11)
O2J O -0.05437(6) 0.36573(4) 0.32398(9)
C2J C -0.12097(7) 0.39695(4) 0.39399(10)
O3J O -0.24936(5) 0.31657(3) 0.51496(7)
C3J C -0.14801(7) 0.43150(5) 0.41501(10)
H1J H -0.1348 0.4569 0.4003
O4J O -0.18241(6) 0.28692(5) 0.45465(8)
C4J C -0.19461(7) 0.42895(5) 0.45779(10)
C5J C -0.21331(7) 0.39168(5) 0.47918(9)
H2J H -0.2454 0.3897 0.5073
C6J C -0.18553(7) 0.35751(5) 0.45981(9)
C7J C -0.13963(7) 0.36061(5) 0.41590(10)
H3J H -0.1212 0.3371 0.4011
C8J C -0.20689(7) 0.31655(5) 0.47883(9)
C9J C -0.22315(7) 0.46606(5) 0.47939(10)
C11J C -0.28010(7) 0.46763(6) 0.47937(13)
H5J H -0.2997 0.4447 0.4641
Cu3J Cu -0.210020(7) 0.232733(5) 0.463671(9)
O8J O -0.14648(5) 0.19777(4) 0.41495(8)
Cu1A Cu 0.0000 0.560824(10) 0.7500
O1C O -0.05702(4) 0.43273(3) 0.17600(7)
O1I O 0.05702(4) 0.43273(3) 0.17600(7)
Cu2A Cu 0.0000 0.639788(11) 0.7500
O2C O -0.05437(6) 0.36573(4) 0.17602(9)
O2I O 0.05437(6) 0.36573(4) 0.17602(9)
Cu3C Cu 0.789980(7) 0.232733(5) 0.036329(9)
Cu3D Cu -0.289980(7) 0.732733(5) 0.463671(9)
Cu3E Cu 0.289980(7) 0.267267(5) -0.036329(9)
Cu3F Cu -0.289980(7) 0.267267(5) 0.536329(9)
Cu3F_2 Cu 0.710020(7) 0.267267(5) 0.536329(9)
Cu3I Cu 0.210020(7) 0.232733(5) 0.036329(9)
Cu3J_2 Cu 0.789980(7) 0.232733(5) 0.463671(9)
Cu3L Cu 0.289980(7) 0.267267(5) 0.536329(9)
Cu3N Cu 0.289980(7) 0.732733(5) 0.463671(9)
Cu3O Cu 0.710020(7) 0.267267(5) -0.036329(9)
O3D O -0.25064(5) 0.81657(3) 0.51496(7)
O3F O -0.25064(5) 0.18343(3) 0.48504(7)
O3L O 0.25064(5) 0.18343(3) 0.48504(7)
O3N O 0.25064(5) 0.81657(3) 0.51496(7)
O5D O -0.17630(5) 0.77223(3) 0.44150(6)
O5F O -0.17630(5) 0.22777(3) 0.55850(6)
O5L O 0.17630(5) 0.22777(3) 0.55850(6)
O5N O 0.17630(5) 0.77223(3) 0.44150(6)
O6B O 0.25586(5) 0.75654(4) 0.61948(6)
O6H O -0.25586(5) 0.75654(4) 0.61948(6)
O6J_2 O -0.25586(5) 0.24346(4) 0.38052(6)
loop_
_geom_bond_atom_site_label_1
_geom_bond_atom_site_label_2
_geom_bond_site_symmetry_1
_geom_bond_site_symmetry_2
Cu1 O1 1_555 1_555
O1 C1 1_555 1_555
N1 C11 1_555 1_555
C1 O2 1_555 1_555
Cu2 O2 1_555 1_555
C2 C1 1_555 1_555
Cu3 O4 1_555 1_555
O3 C8 1_555 1_555
C3 C2 1_555 1_555
H1 C3 1_555 1_555
O4 C8 1_555 1_555
C4 C3 1_555 1_555
O5 C12 1_555 1_555
C5 C4 1_555 1_555
H2 C5 1_555 1_555
O6 Cu3 1_555 1_555
C6 C5 1_555 1_555
O7 Cu1 1_555 1_555
C7 C2 1_555 1_555
H3 C7 1_555 1_555
C8 C6 1_555 1_555
C9 C4 1_555 1_555
C10 C9 1_555 1_555
H4 C10 1_555 1_555
C11 C9 1_555 1_555
H5 C11 1_555 1_555
C12 O6 1_555 1_555
C13 C12 1_555 1_555
C14 C13 1_555 1_555
H6 C14 1_555 1_555
C15 C13 1_555 1_555
H7 C15 1_555 1_555
C16 C15 1_555 1_555
C17 C16 1_555 1_555
C18 C17 1_555 1_555
H8 C18 1_555 1_555
N2 C19 1_555 1_555
C19 C17 1_555 1_555
H9 C19 1_555 1_555
O8 Cu3 1_555 1_555
O9 Cu2 1_555 1_555
O1B C1B 1_555 1_555
C1B O2B 1_555 1_555
O2B Cu2A 1_555 1_555
C2B C1B 1_555 1_555
O3B C8B 1_555 1_555
C3B C2B 1_555 1_555
H1B C3B 1_555 1_555
O4B C8B 1_555 1_555
C4B C3B 1_555 1_555
C5B C4B 1_555 1_555
H2B C5B 1_555 1_555
C6B C5B 1_555 1_555
C7B C2B 1_555 1_555
H3B C7B 1_555 1_555
C8B C6B 1_555 1_555
C9B C10 1_555 1_555
C11B N1 1_555 1_555
H5B C11B 1_555 1_555
O5C C12C 1_555 1_555
O6C C12C 1_555 1_555
C12C C13C 1_555 1_555
C13C C14C 1_555 1_555
C14C H6C 1_555 1_555
C15C C13C 1_555 1_555
H7C C15C 1_555 1_555
C16C C15C 1_555 1_555
C17C C18 1_555 1_555
N2C C19C 1_555 1_555
C19C C17C 1_555 1_555
H9C C19C 1_555 1_555
O5I C12I 1_555 1_555
O6I C12I 1_555 1_555
C12I C13I 1_555 1_555
C13I C14 1_555 1_555
C15I C16 1_555 1_555
H7I C15I 1_555 1_555
C19I C17 1_555 1_555
H9I C19I 1_555 1_555
O5J C12J 1_555 1_555
O6J C12J 1_555 1_555
C12J C13J 1_555 1_555
C13J C14C 1_555 1_555
C15J C16C 1_555 1_555
H7J C15J 1_555 1_555
C19J N2 1_555 1_555
H9J C19J 1_555 1_555
Cu3B O4B 1_555 1_555
O8B Cu3B 1_555 1_555
O1H C1H 1_555 1_555
N1H C11H 1_555 1_555
C1H O2H 1_555 1_555
O2H Cu2A 1_555 1_555
C2H C1H 1_555 1_555
Cu3H O4H 1_555 1_555
O3H C8H 1_555 1_555
C3H C2H 1_555 1_555
H1H C3H 1_555 1_555
O4H C8H 1_555 1_555
C4H C3H 1_555 1_555
C5H C4H 1_555 1_555
H2H C5H 1_555 1_555
C6H C5H 1_555 1_555
C7H C2H 1_555 1_555
H3H C7H 1_555 1_555
C8H C6H 1_555 1_555
C9H C4H 1_555 1_555
C10H C9H 1_555 1_555
H4H C10H 1_555 1_555
C11H C9H 1_555 1_555
H5H C11H 1_555 1_555
O8H Cu3H 1_555 1_555
O1J Cu1 1_555 1_555
C1J O1J 1_555 1_555
O2J Cu2 1_555 1_555
C2J C1J 1_555 1_555
O3J C8J 1_555 1_555
C3J C2J 1_555 1_555
H1J C3J 1_555 1_555
O4J C8J 1_555 1_555
C4J C3J 1_555 1_555
C5J C4J 1_555 1_555
H2J C5J 1_555 1_555
C6J C5J 1_555 1_555
C7J C2J 1_555 1_555
H3J C7J 1_555 1_555
C8J C6J 1_555 1_555
C9J C10H 1_555 1_555
C11J N1H 1_555 1_555
H5J C11J 1_555 1_555
Cu3J O4J 1_555 1_555
O8J Cu3J 1_555 1_555
Cu1A O1B 1_555 1_555
O1C Cu1 1_555 1_555
O1I Cu1 1_555 1_555
O2C Cu2 1_555 1_555
O2I Cu2 1_555 1_555
Cu3C O6C 1_555 1_555
Cu3D O3H 1_555 1_555
Cu3E O5I 1_555 1_555
Cu3F O3J 1_555 1_555
Cu3F_2 O5J 1_555 1_555
Cu3I O6I 1_555 1_555
Cu3J_2 O6J 1_555 1_555
Cu3L O3 1_555 1_555
Cu3N O3B 1_555 1_555
Cu3O O5C 1_555 1_555
O3D Cu3H 1_555 1_555
O3F Cu3J 1_555 1_555
O3L Cu3 1_555 1_555
O3N Cu3B 1_555 1_555
O5D Cu3H 1_555 1_555
O5F Cu3J 1_555 1_555
O5L Cu3 1_555 1_555
O5N Cu3B 1_555 1_555
O6B Cu3B 1_555 1_555
O6H Cu3H 1_555 1_555
O6J_2 Cu3J 1_555 1_555
O5 Cu3L 1_555 1_555
C6 C7 1_555 1_555
C4B C9B 1_555 1_555
C6B C7B 1_555 1_555
C9B C11B 1_555 1_555
C16C C17C 1_555 1_555
C17C C19J 1_555 1_555
N2C C19I 1_555 1_555
C13I C15I 1_555 1_555
C13J C15J 1_555 1_555
O1H Cu1A 1_555 1_555
C6H C7H 1_555 1_555
C1J O2J 1_555 1_555
C4J C9J 1_555 1_555
C6J C7J 1_555 1_555
C9J C11J 1_555 1_555

#END
