
#######################################################################
#
#                 Cambridge Crystallographic Data Centre
#                                CCDC 
#
#######################################################################
#
# If this CIF has been generated from an entry in the Cambridge 
# Structural Database, then it will include bibliographic, chemical, 
# crystal, experimental, refinement or atomic coordinate data resulting 
# from the CCDC's data processing and validation procedures.
#
#######################################################################

data_KIYTOD
_chemical_name_common            ZJU-21
_chemical_formula_moiety         '(C52 H28 Cu4 N4 Ni1 O20)n'
_chemical_name_systematic        
'catena-[(\m~17~-5,10,15,20-tetrakis(3,5-Dicarboxylatophenyl)porphyrinato)-tetra-aqua-tetra-copper(ii)-nickel(ii) unknown solvate]'
_symmetry_cell_setting           tetragonal
_symmetry_space_group_name_H-M   'P 4/m b m'
_symmetry_Int_Tables_number      127
_space_group_name_Hall           '-P 4 2ab'
loop_
_symmetry_equiv_pos_site_id
_symmetry_equiv_pos_as_xyz
1 x,y,z
2 -x,-y,z
3 -y,x,z
4 y,-x,z
5 1/2-x,1/2+y,-z
6 1/2+x,1/2-y,-z
7 1/2+y,1/2+x,-z
8 1/2-y,1/2-x,-z
9 -x,-y,-z
10 x,y,-z
11 y,-x,-z
12 -y,x,-z
13 1/2+x,1/2-y,z
14 1/2-x,1/2+y,z
15 1/2-y,1/2-x,z
16 1/2+y,1/2+x,z
_cell_length_a                   28.5500(4)
_cell_length_b                   28.5500(4)
_cell_length_c                   27.0594(10)
_cell_angle_alpha                90
_cell_angle_beta                 90
_cell_angle_gamma                90
_cell_volume                     22056.2
_exptl_crystal_colour            brown
_exptl_crystal_description       block
_cell_formula_units_Z            8
loop_
_atom_site_label
_atom_site_type_symbol
_atom_site_fract_x
_atom_site_fract_y
_atom_site_fract_z
Cu1 Cu 0.03505(5) 0.26338(5) 0.21372(6)
Cu2 Cu 0.02790(4) 0.20507(4) 0.29091(5)
Ni1 Ni -0.22587(6) 0.27413(6) 0.0000
Ni2 Ni -0.20647(6) 0.29353(6) 0.5000
O1 O -0.02157(19) 0.2311(2) 0.1933(2)
O2 O -0.02604(17) 0.17992(18) 0.2542(2)
O3 O -0.16417(19) 0.06963(19) 0.2560(2)
O4 O -0.2130(2) 0.0735(2) 0.1898(2)
O5 O -0.2876(3) 0.0899(3) 0.2449(3)
O6 O -0.2401(2) 0.0836(2) 0.3122(2)
O7 O -0.0014(3) 0.3037(3) 0.2493(3)
O8 O -0.0117(2) 0.2559(3) 0.3155(3)
O9 O 0.0388(3) 0.3037(4) 0.1465(4)
O10 O 0.0236(2) 0.1613(3) 0.3561(2)
N1 N -0.2253(2) 0.2747(2) 0.0720(3)
N2 N -0.1774(3) 0.2254(3) 0.0000
N3 N -0.2555(3) 0.2445(3) 0.5000
N4 N -0.2067(3) 0.2933(3) 0.4292(4)
N5 N -0.1596(3) 0.3404(3) 0.5000
C1 C -0.2096(3) 0.2571(3) 0.1543(3)
H1 H -0.1953 0.2439 0.1819
C2 C -0.2002(3) 0.2458(3) 0.1031(3)
C3 C -0.1682(3) 0.2136(3) 0.0885(3)
C4 C -0.1568(3) 0.2049(3) 0.0399(3)
C5 C -0.1240(3) 0.1688(3) 0.0242(3)
H2 H -0.1064 0.1494 0.0447
C6 C -0.1441(3) 0.1858(3) 0.1310(3)
C7 C -0.1031(3) 0.2018(3) 0.1516(3)
H3 H -0.0883 0.2280 0.1383
C8 C -0.0835(3) 0.1790(3) 0.1921(3)
C9 C -0.1072(3) 0.1406(3) 0.2121(3)
H4 H -0.0955 0.1255 0.2400
C10 C -0.1487(3) 0.1252(3) 0.1897(3)
C11 C -0.1664(3) 0.1476(3) 0.1489(3)
H5 H -0.1935 0.1367 0.1337
C12 C -0.0400(3) 0.1971(3) 0.2142(3)
C13 C -0.1758(3) 0.0858(3) 0.2151(4)
C14 C -0.3102(3) 0.1898(3) 0.4759(4)
H6 H -0.3287 0.1713 0.4555
C15 C -0.2758(3) 0.2242(3) 0.4600(5)
C16 C -0.2650(3) 0.2350(3) 0.4117(5)
C17 C -0.2328(3) 0.2672(3) 0.3974(6)
C18 C -0.2234(4) 0.2766(4) 0.3473(8)
H7 H -0.2374 0.2626 0.3201
C19 C -0.1924(7) 0.3076(7) 0.3467(8)
H8 H -0.1784 0.3216 0.3193
C20 C -0.1835(5) 0.3165(5) 0.3970(10)
C21 C -0.1482(6) 0.3518(6) 0.4121(9)
C22 C -0.1389(4) 0.3611(4) 0.4646(6)
C23 C -0.1039(4) 0.3961(4) 0.4756(4)
H9 H -0.0860 0.4140 0.4540
C24 C -0.2918(3) 0.2082(3) 0.3726(5)
C25 C -0.2718(3) 0.1667(3) 0.3513(4)
H10 H -0.2441 0.1541 0.3637
C26 C -0.2954(4) 0.1453(4) 0.3109(4)
C27 C -0.3336(4) 0.1664(4) 0.2875(5)
H11 H -0.3445 0.1555 0.2573
C28 C -0.2740(4) 0.1024(4) 0.2876(5)
C29 C -0.0964(5) 0.3556(6) 0.3744(5)
C30 C -0.0982(3) 0.4018(3) 0.3587(5)
C31 C -0.0677(7) 0.4323(7) 0.3134(6)
C32 C -0.0339(8) 0.3871(9) 0.3037(8)
H12 H -0.0045 0.3939 0.2908
C33 C -0.0448(6) 0.3308(7) 0.3137(5)
C34 C -0.0715(6) 0.3217(6) 0.3521(6)
H13 H -0.0732 0.2912 0.3640
C35 C -0.0177(3) 0.2957(4) 0.2900(4)
O1I O -0.02157(19) 0.2311(2) -0.1933(2)
O2I O -0.02604(17) 0.17992(18) -0.2542(2)
O3I O -0.16417(19) 0.06963(19) -0.2560(2)
O4I O -0.2130(2) 0.0735(2) -0.1898(2)
N1F N -0.2253(2) 0.2747(2) -0.0720(3)
C1I C -0.2096(3) 0.2571(3) -0.1543(3)
H1I H -0.1953 0.2439 -0.1819
C2I C -0.2002(3) 0.2458(3) -0.1031(3)
C3I C -0.1682(3) 0.2136(3) -0.0885(3)
C4I C -0.1568(3) 0.2049(3) -0.0399(3)
C5I C -0.1240(3) 0.1688(3) -0.0242(3)
H2I H -0.1064 0.1494 -0.0447
C6I C -0.1441(3) 0.1858(3) -0.1310(3)
C7I C -0.1031(3) 0.2018(3) -0.1516(3)
H3I H -0.0883 0.2280 -0.1383
C8I C -0.0835(3) 0.1790(3) -0.1921(3)
C9I C -0.1072(3) 0.1406(3) -0.2121(3)
H4I H -0.0955 0.1255 -0.2400
C10I C -0.1487(3) 0.1252(3) -0.1897(3)
C11I C -0.1664(3) 0.1476(3) -0.1489(3)
H5I H -0.1935 0.1367 -0.1337
C12I C -0.0400(3) 0.1971(3) -0.2142(3)
C13I C -0.1758(3) 0.0858(3) -0.2151(4)
O1O O -0.2689(2) 0.47843(19) 0.1933(2)
O2O O -0.32008(18) 0.47396(17) 0.2542(2)
O3O O -0.43037(19) 0.33583(19) 0.2560(2)
O4O O -0.4265(2) 0.2870(2) 0.1898(2)
N2F N -0.2746(3) 0.3226(3) 0.0000
C1O C -0.2429(3) 0.2904(3) 0.1543(3)
H1O H -0.2561 0.3047 0.1819
C2O C -0.2542(3) 0.2998(3) 0.1031(3)
C3O C -0.2864(3) 0.3318(3) 0.0885(3)
C4O C -0.2951(3) 0.3432(3) 0.0399(3)
C5O C -0.3312(3) 0.3760(3) 0.0242(3)
H2O H -0.3506 0.3936 0.0447
C6O C -0.3142(3) 0.3559(3) 0.1310(3)
C7O C -0.2982(3) 0.3969(3) 0.1516(3)
H3O H -0.2720 0.4117 0.1383
C8O C -0.3210(3) 0.4165(3) 0.1921(3)
C9O C -0.3594(3) 0.3928(3) 0.2121(3)
H4O H -0.3745 0.4045 0.2400
C10O C -0.3748(3) 0.3513(3) 0.1897(3)
C11O C -0.3524(3) 0.3336(3) 0.1489(3)
H5O H -0.3633 0.3065 0.1337
C12O C -0.3029(3) 0.4600(3) 0.2142(3)
C13O C -0.4142(3) 0.3242(3) 0.2151(4)
O1F O -0.2689(2) 0.47843(19) -0.1933(2)
O2F O -0.32008(18) 0.47396(17) -0.2542(2)
O3F O -0.43037(19) 0.33583(19) -0.2560(2)
O4F O -0.4265(2) 0.2870(2) -0.1898(2)
C1F C -0.2429(3) 0.2904(3) -0.1543(3)
H1F H -0.2561 0.3047 -0.1819
C2F C -0.2542(3) 0.2998(3) -0.1031(3)
C3F C -0.2864(3) 0.3318(3) -0.0885(3)
C4F C -0.2951(3) 0.3432(3) -0.0399(3)
C5F C -0.3312(3) 0.3760(3) -0.0242(3)
H2F H -0.3506 0.3936 -0.0447
C6F C -0.3142(3) 0.3559(3) -0.1310(3)
C7F C -0.2982(3) 0.3969(3) -0.1516(3)
H3F H -0.2720 0.4117 -0.1383
C8F C -0.3210(3) 0.4165(3) -0.1921(3)
C9F C -0.3594(3) 0.3928(3) -0.2121(3)
H4F H -0.3745 0.4045 -0.2400
C10F C -0.3748(3) 0.3513(3) -0.1897(3)
C11F C -0.3524(3) 0.3336(3) -0.1489(3)
H5F H -0.3633 0.3065 -0.1337
C12F C -0.3029(3) 0.4600(3) -0.2142(3)
C13F C -0.4142(3) 0.3242(3) -0.2151(4)
O5F O -0.4101(3) 0.2124(3) 0.7551(3)
O6F O -0.4164(2) 0.2599(2) 0.6878(2)
O7F O -0.1963(3) 0.4986(3) 0.7507(3)
O8F O -0.2441(3) 0.4883(2) 0.6845(3)
N4F N -0.2067(3) 0.2933(3) 0.5708(4)
C14F C -0.3102(3) 0.1898(3) 0.5241(4)
H6F H -0.3287 0.1713 0.5445
C15F C -0.2758(3) 0.2242(3) 0.5400(5)
C16F C -0.2650(3) 0.2350(3) 0.5883(5)
C17F C -0.2328(3) 0.2672(3) 0.6026(6)
C18F C -0.2234(4) 0.2766(4) 0.6527(8)
H7F H -0.2374 0.2626 0.6799
C19F C -0.1924(7) 0.3076(7) 0.6533(8)
H8F H -0.1784 0.3216 0.6807
C20F C -0.1835(5) 0.3165(5) 0.6030(10)
C21F C -0.1482(6) 0.3518(6) 0.5879(9)
C22F C -0.1389(4) 0.3611(4) 0.5354(6)
C23F C -0.1039(4) 0.3961(4) 0.5244(4)
H9F H -0.0860 0.4140 0.5460
C24F C -0.2918(3) 0.2082(3) 0.6274(5)
C25F C -0.3333(3) 0.2282(3) 0.6487(4)
H10F H -0.3459 0.2559 0.6363
C26F C -0.3547(4) 0.2046(4) 0.6891(4)
C27F C -0.3336(4) 0.1664(4) 0.7125(5)
H11F H -0.3445 0.1555 0.7427
C28F C -0.3976(4) 0.2260(4) 0.7124(5)
C29F C -0.1444(6) 0.4036(5) 0.6256(5)
C30F C -0.0982(3) 0.4018(3) 0.6413(5)
C31F C -0.0677(7) 0.4323(7) 0.6866(6)
C32F C -0.1129(9) 0.4661(8) 0.6963(8)
H12F H -0.1061 0.4955 0.7092
C33F C -0.1692(7) 0.4552(6) 0.6863(5)
C34F C -0.1783(6) 0.4285(6) 0.6479(6)
H13F H -0.2088 0.4268 0.6360
C35F C -0.2043(4) 0.4823(3) 0.7100(4)
O5I O -0.2876(3) 0.0899(3) 0.7551(3)
O6I O -0.2401(2) 0.0836(2) 0.6878(2)
O7I O -0.0014(3) 0.3037(3) 0.7507(3)
O8I O -0.0117(2) 0.2559(3) 0.6845(3)
C25I C -0.2718(3) 0.1667(3) 0.6487(4)
H10I H -0.2441 0.1541 0.6363
C26I C -0.2954(4) 0.1453(4) 0.6891(4)
C28I C -0.2740(4) 0.1024(4) 0.7124(5)
C29I C -0.0964(5) 0.3556(6) 0.6256(5)
C32I C -0.0339(8) 0.3871(9) 0.6963(8)
H12I H -0.0045 0.3939 0.7092
C33I C -0.0448(6) 0.3308(7) 0.6863(5)
C34I C -0.0715(6) 0.3217(6) 0.6479(6)
H13I H -0.0732 0.2912 0.6360
C35I C -0.0177(3) 0.2957(4) 0.7100(4)
O5O O -0.4101(3) 0.2124(3) 0.2449(3)
O6O O -0.4164(2) 0.2599(2) 0.3122(2)
O7O O -0.1963(3) 0.4986(3) 0.2493(3)
O8O O -0.2441(3) 0.4883(2) 0.3155(3)
C25O C -0.3333(3) 0.2282(3) 0.3513(4)
H10O H -0.3459 0.2559 0.3637
C26O C -0.3547(4) 0.2046(4) 0.3109(4)
C28O C -0.3976(4) 0.2260(4) 0.2876(5)
C29O C -0.1444(6) 0.4036(5) 0.3744(5)
C32O C -0.1129(9) 0.4661(8) 0.3037(8)
H12O H -0.1061 0.4955 0.2908
C33O C -0.1692(7) 0.4552(6) 0.3137(5)
C34O C -0.1783(6) 0.4285(6) 0.3521(6)
H13O H -0.2088 0.4268 0.3640
C35O C -0.2043(4) 0.4823(3) 0.2900(4)
Cu1B Cu -0.26338(5) 0.03505(5) 0.21372(6)
Cu2B Cu -0.20507(4) 0.02790(4) 0.29091(5)
O9B O -0.3037(4) 0.0388(3) 0.1465(4)
O10B O -0.1613(3) 0.0236(2) 0.3561(2)
Cu1I Cu 0.03505(5) 0.26338(5) -0.21372(6)
Cu2I Cu 0.02790(4) 0.20507(4) -0.29091(5)
O9I O 0.0388(3) 0.3037(4) -0.1465(4)
O10I O 0.0236(2) 0.1613(3) -0.3561(2)
Cu1K Cu -0.26338(5) 0.03505(5) -0.21372(6)
Cu2K Cu -0.20507(4) 0.02790(4) -0.29091(5)
O9K O -0.3037(4) 0.0388(3) -0.1465(4)
O10K O -0.1613(3) 0.0236(2) -0.3561(2)
Cu1E Cu -0.46495(5) 0.23662(5) -0.21372(6)
Cu1E_2 Cu -0.46495(5) 0.23662(5) 0.78628(6)
Cu1F Cu -0.23662(5) 0.53505(5) -0.21372(6)
Cu1F_2 Cu -0.23662(5) 0.53505(5) 0.78628(6)
Cu1I_2 Cu 0.03505(5) 0.26338(5) 0.78628(6)
Cu1K_2 Cu -0.26338(5) 0.03505(5) 0.78628(6)
Cu1L Cu -0.46495(5) 0.23662(5) 0.21372(6)
Cu1O Cu -0.23662(5) 0.53505(5) 0.21372(6)
Cu2E Cu -0.47210(4) 0.29493(4) -0.29091(5)
Cu2E_2 Cu -0.47210(4) 0.29493(4) 0.70909(5)
Cu2F Cu -0.29493(4) 0.52790(4) -0.29091(5)
Cu2F_2 Cu -0.29493(4) 0.52790(4) 0.70909(5)
Cu2I_2 Cu 0.02790(4) 0.20507(4) 0.70909(5)
Cu2K_2 Cu -0.20507(4) 0.02790(4) 0.70909(5)
Cu2L Cu -0.47210(4) 0.29493(4) 0.29091(5)
Cu2O Cu -0.29493(4) 0.52790(4) 0.29091(5)
O1B O -0.2311(2) -0.02157(19) 0.1933(2)
O1K O -0.2311(2) -0.02157(19) -0.1933(2)
O2B O -0.17992(18) -0.02604(17) 0.2542(2)
O2K O -0.17992(18) -0.02604(17) -0.2542(2)
O3C O 0.06963(19) 0.16417(19) 0.2560(2)
O3J O 0.06963(19) 0.16417(19) -0.2560(2)
O4C O 0.0735(2) 0.2130(2) 0.1898(2)
O4J O 0.0735(2) 0.2130(2) -0.1898(2)
O5C O 0.0899(3) 0.2876(3) 0.2449(3)
O5I_2 O -0.2876(3) 0.0899(3) -0.2449(3)
O5J O 0.0899(3) 0.2876(3) -0.2449(3)
O6C O 0.0836(2) 0.2401(2) 0.3122(2)
O6I_2 O -0.2401(2) 0.0836(2) -0.3122(2)
O6J O 0.0836(2) 0.2401(2) -0.3122(2)
O7B O -0.3037(3) -0.0014(3) 0.2493(3)
O7I_2 O -0.0014(3) 0.3037(3) -0.2493(3)
O7K O -0.3037(3) -0.0014(3) -0.2493(3)
O8B O -0.2559(3) -0.0117(2) 0.3155(3)
O8I_2 O -0.0117(2) 0.2559(3) -0.3155(3)
O8K O -0.2559(3) -0.0117(2) -0.3155(3)
loop_
_geom_bond_atom_site_label_1
_geom_bond_atom_site_label_2
_geom_bond_site_symmetry_1
_geom_bond_site_symmetry_2
Cu1 Cu2 1_555 1_555
Cu2 O2 1_555 1_555
Ni1 N1 1_555 1_555
Ni2 N3 1_555 1_555
O1 Cu1 1_555 1_555
O2 C12 1_555 1_555
O3 C13 1_555 1_555
O4 C13 1_555 1_555
O5 C28 1_555 1_555
O6 C28 1_555 1_555
O7 Cu1 1_555 1_555
O8 Cu2 1_555 1_555
O9 Cu1 1_555 1_555
O10 Cu2 1_555 1_555
N1 C2 1_555 1_555
N2 Ni1 1_555 1_555
N3 C15 1_555 1_555
N4 Ni2 1_555 1_555
N5 Ni2 1_555 1_555
C1 H1 1_555 1_555
C2 C1 1_555 1_555
C3 C2 1_555 1_555
C4 N2 1_555 1_555
C5 C4 1_555 1_555
H2 C5 1_555 1_555
C6 C3 1_555 1_555
C7 C6 1_555 1_555
H3 C7 1_555 1_555
C8 C7 1_555 1_555
C9 C8 1_555 1_555
H4 C9 1_555 1_555
C10 C9 1_555 1_555
C11 C6 1_555 1_555
H5 C11 1_555 1_555
C12 O1 1_555 1_555
C13 C10 1_555 1_555
C14 H6 1_555 1_555
C15 C14 1_555 1_555
C16 C15 1_555 1_555
C17 N4 1_555 1_555
C18 C17 1_555 1_555
H7 C18 1_555 1_555
C19 C18 1_555 1_555
H8 C19 1_555 1_555
C20 N4 1_555 1_555
C21 C20 1_555 1_555
C22 N5 1_555 1_555
C23 C22 1_555 1_555
H9 C23 1_555 1_555
C24 C16 1_555 1_555
C25 C24 1_555 1_555
H10 C25 1_555 1_555
C26 C25 1_555 1_555
C27 C26 1_555 1_555
H11 C27 1_555 1_555
C28 C26 1_555 1_555
C29 C21 1_555 1_555
C30 C29 1_555 1_555
C31 C30 1_555 1_555
C32 C31 1_555 1_555
H12 C32 1_555 1_555
C33 C32 1_555 1_555
C34 C29 1_555 1_555
H13 C34 1_555 1_555
C35 O7 1_555 1_555
O1I C12I 1_555 1_555
O2I C12I 1_555 1_555
O3I C13I 1_555 1_555
O4I C13I 1_555 1_555
N1F Ni1 1_555 1_555
C1I H1I 1_555 1_555
C2I N1F 1_555 1_555
C3I C2I 1_555 1_555
C4I N2 1_555 1_555
C5I C5 1_555 1_555
H2I C5I 1_555 1_555
C6I C3I 1_555 1_555
C7I C6I 1_555 1_555
H3I C7I 1_555 1_555
C8I C7I 1_555 1_555
C9I C8I 1_555 1_555
H4I C9I 1_555 1_555
C10I C9I 1_555 1_555
C11I C6I 1_555 1_555
H5I C11I 1_555 1_555
C12I C8I 1_555 1_555
C13I C10I 1_555 1_555
O1O C12O 1_555 1_555
O2O C12O 1_555 1_555
O3O C13O 1_555 1_555
O4O C13O 1_555 1_555
N2F Ni1 1_555 1_555
C1O C1 1_555 1_555
H1O C1O 1_555 1_555
C2O N1 1_555 1_555
C3O C2O 1_555 1_555
C4O N2F 1_555 1_555
C5O C4O 1_555 1_555
H2O C5O 1_555 1_555
C6O C3O 1_555 1_555
C7O C6O 1_555 1_555
H3O C7O 1_555 1_555
C8O C7O 1_555 1_555
C9O C8O 1_555 1_555
H4O C9O 1_555 1_555
C10O C9O 1_555 1_555
C11O C6O 1_555 1_555
H5O C11O 1_555 1_555
C12O C8O 1_555 1_555
C13O C10O 1_555 1_555
O1F C12F 1_555 1_555
O2F C12F 1_555 1_555
O3F C13F 1_555 1_555
O4F C13F 1_555 1_555
C1F C1I 1_555 1_555
H1F C1F 1_555 1_555
C2F N1F 1_555 1_555
C3F C2F 1_555 1_555
C4F N2F 1_555 1_555
C5F C5O 1_555 1_555
H2F C5F 1_555 1_555
C6F C3F 1_555 1_555
C7F C6F 1_555 1_555
H3F C7F 1_555 1_555
C8F C7F 1_555 1_555
C9F C8F 1_555 1_555
H4F C9F 1_555 1_555
C10F C9F 1_555 1_555
C11F C6F 1_555 1_555
H5F C11F 1_555 1_555
C12F C8F 1_555 1_555
C13F C10F 1_555 1_555
O5F C28F 1_555 1_555
O6F C28F 1_555 1_555
O7F C35F 1_555 1_555
O8F C35F 1_555 1_555
N4F Ni2 1_555 1_555
C14F C14 1_555 1_555
H6F C14F 1_555 1_555
C15F N3 1_555 1_555
C16F C15F 1_555 1_555
C17F N4F 1_555 1_555
C18F C17F 1_555 1_555
H7F C18F 1_555 1_555
C19F C18F 1_555 1_555
H8F C19F 1_555 1_555
C20F N4F 1_555 1_555
C21F C20F 1_555 1_555
C22F N5 1_555 1_555
C23F C23 1_555 1_555
H9F C23F 1_555 1_555
C24F C16F 1_555 1_555
C25F C24F 1_555 1_555
H10F C25F 1_555 1_555
C26F C25F 1_555 1_555
C27F C26F 1_555 1_555
H11F C27F 1_555 1_555
C28F C26F 1_555 1_555
C29F C21F 1_555 1_555
C30F C29F 1_555 1_555
C31F C30F 1_555 1_555
C32F C31F 1_555 1_555
H12F C32F 1_555 1_555
C33F C32F 1_555 1_555
C34F C29F 1_555 1_555
H13F C34F 1_555 1_555
C35F C33F 1_555 1_555
O5I C28I 1_555 1_555
O6I C28I 1_555 1_555
O7I C35I 1_555 1_555
O8I C35I 1_555 1_555
C25I C24F 1_555 1_555
H10I C25I 1_555 1_555
C26I C27F 1_555 1_555
C28I C26I 1_555 1_555
C29I C21F 1_555 1_555
C32I C31F 1_555 1_555
H12I C32I 1_555 1_555
C33I C32I 1_555 1_555
C34I C29I 1_555 1_555
H13I C34I 1_555 1_555
C35I C33I 1_555 1_555
O5O C28O 1_555 1_555
O6O C28O 1_555 1_555
O7O C35O 1_555 1_555
O8O C35O 1_555 1_555
C25O C24 1_555 1_555
H10O C25O 1_555 1_555
C26O C27 1_555 1_555
C28O C26O 1_555 1_555
C29O C21 1_555 1_555
C32O C31 1_555 1_555
H12O C32O 1_555 1_555
C33O C32O 1_555 1_555
C34O C29O 1_555 1_555
H13O C34O 1_555 1_555
C35O C33O 1_555 1_555
Cu1B O4 1_555 1_555
Cu2B O3 1_555 1_555
O9B Cu1B 1_555 1_555
O10B Cu2B 1_555 1_555
Cu1I O1I 1_555 1_555
Cu2I O2I 1_555 1_555
O9I Cu1I 1_555 1_555
O10I Cu2I 1_555 1_555
Cu1K O4I 1_555 1_555
Cu2K O3I 1_555 1_555
O9K Cu1K 1_555 1_555
O10K Cu2K 1_555 1_555
Cu1E O4F 1_555 1_555
Cu1E_2 O5F 1_555 1_555
Cu1F O1F 1_555 1_555
Cu1F_2 O7F 1_555 1_555
Cu1I_2 O7I 1_555 1_555
Cu1K_2 O5I 1_555 1_555
Cu1L O4O 1_555 1_555
Cu1O O1O 1_555 1_555
Cu2E O3F 1_555 1_555
Cu2E_2 O6F 1_555 1_555
Cu2F O2F 1_555 1_555
Cu2F_2 O8F 1_555 1_555
Cu2I_2 O8I 1_555 1_555
Cu2K_2 O6I 1_555 1_555
Cu2L O3O 1_555 1_555
Cu2O O2O 1_555 1_555
O1B Cu1B 1_555 1_555
O1K Cu1K 1_555 1_555
O2B Cu2B 1_555 1_555
O2K Cu2K 1_555 1_555
O3C Cu2 1_555 1_555
O3J Cu2I 1_555 1_555
O4C Cu1 1_555 1_555
O4J Cu1I 1_555 1_555
O5C Cu1 1_555 1_555
O5I_2 Cu1K 1_555 1_555
O5J Cu1I 1_555 1_555
O6C Cu2 1_555 1_555
O6I_2 Cu2K 1_555 1_555
O6J Cu2I 1_555 1_555
O7B Cu1B 1_555 1_555
O7I_2 Cu1I 1_555 1_555
O7K Cu1K 1_555 1_555
O8B Cu2B 1_555 1_555
O8I_2 Cu2I 1_555 1_555
O8K Cu2K 1_555 1_555
O5 Cu1B 1_555 1_555
O6 Cu2B 1_555 1_555
O8 C35 1_555 1_555
C3 C4 1_555 1_555
C8 C12 1_555 1_555
C10 C11 1_555 1_555
C16 C17 1_555 1_555
C19 C20 1_555 1_555
C21 C22 1_555 1_555
C30 C29O 1_555 1_555
C33 C34 1_555 1_555
C33 C35 1_555 1_555
C1I C2I 1_555 1_555
C3I C4I 1_555 1_555
C4I C5I 1_555 1_555
C10I C11I 1_555 1_555
C1O C2O 1_555 1_555
C3O C4O 1_555 1_555
C10O C11O 1_555 1_555
C1F C2F 1_555 1_555
C3F C4F 1_555 1_555
C4F C5F 1_555 1_555
C10F C11F 1_555 1_555
C14F C15F 1_555 1_555
C16F C17F 1_555 1_555
C19F C20F 1_555 1_555
C21F C22F 1_555 1_555
C22F C23F 1_555 1_555
C30F C29I 1_555 1_555
C33F C34F 1_555 1_555
C25I C26I 1_555 1_555
C33I C34I 1_555 1_555
O5O Cu1L 1_555 1_555
O6O Cu2L 1_555 1_555
O7O Cu1O 1_555 1_555
O8O Cu2O 1_555 1_555
C25O C26O 1_555 1_555
C33O C34O 1_555 1_555
Cu1B Cu2B 1_555 1_555
Cu1I Cu2I 1_555 1_555
Cu1K Cu2K 1_555 1_555
Cu1E Cu2E 1_555 1_555
Cu1E_2 Cu2E_2 1_555 1_555
Cu1F Cu2F 1_555 1_555
Cu1F_2 Cu2F_2 1_555 1_555
Cu1I_2 Cu2I_2 1_555 1_555
Cu1K_2 Cu2K_2 1_555 1_555
Cu1L Cu2L 1_555 1_555
Cu1O Cu2O 1_555 1_555

#END
