
#######################################################################
#
#                 Cambridge Crystallographic Data Centre
#                                CCDC 
#
#######################################################################
#
# If this CIF has been generated from an entry in the Cambridge 
# Structural Database, then it will include bibliographic, chemical, 
# crystal, experimental, refinement or atomic coordinate data resulting 
# from the CCDC's data processing and validation procedures.
#
#######################################################################

data_CAKBOH
_chemical_formula_moiety         '(C12 H28 Cr3 Ge1 K1 Mo12 O57)n,9n(H2 O1)'
_chemical_name_systematic        
'catena-(tetrakis(\m~4~-oxo)-bis(\m~3~-acetato)-tetrakis(\m~2~-acetato)-bis(\m~3~-oxo)-bis(\m~2~-hydroxo)-tetracosakis(\m~2~-oxo)-(\m~2~-aqua)-triaqua-nonaoxo-germanium-tri-chromium-potassium-dodeca-molybdenum nonahydrate)'
_symmetry_cell_setting           monoclinic
_symmetry_space_group_name_H-M   'P 21/c'
_symmetry_Int_Tables_number      14
_space_group_name_Hall           '-P 2ybc'
loop_
_symmetry_equiv_pos_site_id
_symmetry_equiv_pos_as_xyz
1 x,y,z
2 -x,1/2+y,1/2-z
3 -x,-y,-z
4 x,1/2-y,1/2+z
_cell_length_a                   14.4610(11)
_cell_length_b                   17.9550(13)
_cell_length_c                   32.6121(18)
_cell_angle_alpha                90
_cell_angle_beta                 105.898(3)
_cell_angle_gamma                90
_cell_volume                     8143.76
_exptl_crystal_colour            green
_exptl_crystal_description       prism
_cell_formula_units_Z            4
loop_
_atom_site_label
_atom_site_type_symbol
_atom_site_fract_x
_atom_site_fract_y
_atom_site_fract_z
C1 C 0.9644(8) 0.3134(6) 0.0765(3)
C2 C 0.8789(9) 0.2915(6) 0.1950(4)
C3 C 0.9134(9) 0.0760(7) 0.1898(4)
C4 C 0.9850(9) 0.1082(7) 0.0714(4)
C5 C 0.6723(9) 0.0830(7) 0.0676(4)
C6 C 0.6472(9) 0.2756(7) 0.0766(4)
C7 C 0.5602(9) 0.3262(8) 0.0626(4)
H1 H 0.5579 0.3476 0.0354
H2 H 0.5648 0.3651 0.0832
H3 H 0.5028 0.2978 0.0604
C8 C 0.8831(10) 0.3615(7) 0.2206(4)
H4 H 0.8506 0.3538 0.2423
H5 H 0.8525 0.4013 0.2022
H6 H 0.9491 0.3744 0.2337
C9 C 0.9445(9) 0.0027(7) 0.2110(4)
H7 H 1.0125 -0.0033 0.2155
H8 H 0.9111 -0.0369 0.1933
H9 H 0.9298 0.0014 0.2380
C10 C 1.0392(10) 0.0499(7) 0.0537(4)
H10 H 1.0284 0.0576 0.0236
H11 H 1.0168 0.0012 0.0586
H12 H 1.1067 0.0538 0.0676
C11 C 1.0106(9) 0.3785(7) 0.0619(4)
H13 H 0.9869 0.3831 0.0314
H14 H 1.0790 0.3714 0.0696
H15 H 0.9957 0.4229 0.0751
C12 C 0.5976(10) 0.0284(7) 0.0464(5)
H16 H 0.6207 -0.0010 0.0267
H17 H 0.5404 0.0544 0.0314
H18 H 0.5834 -0.0036 0.0675
Cr1 Cr 0.97779(12) 0.20075(10) 0.14503(5)
Cr2 Cr 0.80847(13) 0.20020(10) 0.05495(5)
Cr3 Cr 0.75394(13) 0.17383(10) 0.14499(6)
Ge1 Ge 0.83475(8) 0.67833(6) 0.10503(3)
K1 K 0.7213(2) 0.36783(17) -0.01086(10)
Mo1 Mo 0.80205(8) 0.59903(6) 0.19949(3)
Mo2 Mo 0.85240(8) 0.78058(5) 0.19954(3)
Mo3 Mo 0.86572(9) 0.87343(6) 0.09861(3)
Mo4 Mo 0.80289(9) 0.56870(6) 0.01296(4)
Mo5 Mo 0.61215(7) 0.59435(6) 0.05026(4)
Mo6 Mo 1.04437(8) 0.63799(7) 0.07345(3)
Mo7 Mo 1.06412(8) 0.75010(7) 0.15709(4)
Mo8 Mo 0.79251(9) 0.48479(6) 0.10305(3)
Mo9 Mo 0.85897(9) 0.77066(6) 0.01246(3)
Mo10 Mo 0.63673(8) 0.71948(8) 0.14418(4)
Mo11 Mo 0.65864(8) 0.79769(6) 0.04196(4)
Mo12 Mo 1.02421(8) 0.56789(7) 0.16528(4)
O1 O 0.9717(6) 0.7221(4) 0.0421(2)
O2 O 0.9215(6) 0.5079(4) 0.1272(2)
O3 O 0.8063(6) 0.6691(4) 0.0007(2)
O4 O 0.7940(5) 0.6902(4) 0.1503(2)
O5 O 0.8489(5) 0.6922(4) 0.2307(2)
O6 O 0.9576(5) 0.6617(4) 0.1212(2)
O7 O 0.7363(6) 0.8855(4) 0.0694(3)
O8 O 0.8396(5) 0.8460(4) 0.1499(2)
O9 O 0.6396(6) 0.7819(4) 0.0991(3)
O10 O 0.6261(6) 0.6986(4) 0.0330(2)
O11 O 0.6093(6) 0.6394(4) 0.1032(2)
O12 O 0.7767(5) 0.6027(4) 0.0758(2)
O13 O 0.8116(5) 0.7575(4) 0.0736(2)
O14 O 0.9886(6) 0.8203(4) 0.1223(2)
O15 O 0.6660(6) 0.5675(4) 0.0037(3)
O16 O 0.6767(6) 0.6378(5) 0.1878(2)
O17 O 0.9738(6) 0.7589(4) 0.1925(2)
O18 O 0.7240(6) 0.8027(4) -0.0011(3)
O19 O 1.0826(6) 0.5659(5) 0.1164(3)
O20 O 0.8052(6) 0.4765(4) 0.0473(2)
O21 O 0.8770(6) 0.8423(4) 0.2394(2)
O22 O 0.7121(6) 0.7845(4) 0.1865(2)
O23 O 0.7698(6) 0.5332(4) 0.1542(2)
O24 O 1.1001(6) 0.6520(5) 0.1867(3)
O25 O 0.8935(6) 0.8604(4) 0.0426(2)
O26 O 0.9355(6) 0.5871(4) 0.1950(2)
O27 O 1.1161(6) 0.7133(5) 0.1140(3)
O28 O 0.6522(6) 0.5030(4) 0.0765(2)
O29 O 0.9389(6) 0.5800(4) 0.0433(2)
O30 O 0.8045(6) 0.5445(5) 0.2411(3)
O31 O 0.4947(6) 0.5787(5) 0.0272(3)
O32 O 1.1247(6) 0.6255(5) 0.0461(3)
O33 O 0.7844(7) 0.3947(5) 0.1158(3)
O34 O 0.8085(7) 0.5269(5) -0.0322(3)
O35 O 0.8793(7) 0.7910(5) -0.0344(3)
O36 O 0.9019(7) 0.9620(5) 0.1075(3)
O37 O 1.1588(6) 0.7991(6) 0.1862(3)
O38 O 0.5558(6) 0.8428(5) 0.0183(3)
O39 O 1.0922(6) 0.4997(5) 0.1939(3)
O40 O 0.8465(5) 0.1917(4) 0.1146(2)
O41 O 0.9076(6) 0.1321(5) 0.0470(2)
O42 O 1.0238(6) 0.1300(4) 0.1081(2)
O43 O 0.9536(6) 0.2748(4) 0.1850(2)
O44 O 0.8015(6) 0.2546(5) 0.1856(3)
O45 O 0.8275(6) 0.0949(5) 0.1810(3)
O46 O 0.9786(6) 0.1148(4) 0.1816(2)
O47 O 0.7174(6) 0.1154(5) 0.0446(3)
O48 O 0.6853(6) 0.0939(5) 0.1061(3)
O49 O 0.6581(6) 0.2442(5) 0.1118(3)
O50 O 0.6982(6) 0.2676(4) 0.0519(2)
O51 O 0.8873(6) 0.2886(4) 0.0520(2)
O52 O 1.0079(5) 0.2858(4) 0.1120(2)
O53 O 0.5268(6) 0.7349(6) 0.1512(3)
O54 O 1.1189(5) 0.2109(4) 0.1806(2)
O55 O 0.6550(6) 0.1558(5) 0.1785(3)
O56 O 0.7686(8) 0.2113(7) -0.0105(4)
O59 O 0.6257(16) 0.3746(15) -0.0932(6)
K1B K 0.2787(2) 0.63217(17) 0.01086(10)
K1B_2 K 1.2787(2) 0.63217(17) 0.01086(10)
O31B O 0.5053(6) 0.4213(5) -0.0272(3)
O32B O 0.8753(6) 0.3745(5) -0.0461(3)
O57 O 0.7579(16) 0.4199(13) 0.3723(7)
O58 O 0.7537(11) 0.9678(12) 0.3684(5)
O60 O 0.8767(9) 0.1431(7) 0.9452(4)
O61 O 0.3116(16) 0.7558(15) 0.1293(8)
O62 O 0.4017(15) 0.4537(12) 0.0900(6)
O63 O 0.7131(12) 0.1235(10) 0.2613(6)
O64 O 0.597(2) 0.1930(15) 0.9431(9)
O65 O 0.691(3) 0.426(2) 0.2753(13)
O66 O 0.6204(13) 0.3303(11) 0.1909(6)
O67 O 0.748(3) 0.621(3) 0.3450(14)
O68 O 0.6737(12) 0.9534(9) 0.1558(5)
O69 O 0.7840(16) 0.0008(12) 0.9906(7)
O70 O 0.5638(13) 0.4797(11) 0.1534(6)
O71 O 1.342(3) 0.299(2) 0.2273(12)
O72 O 1.300(2) 0.4504(19) 0.2547(10)
O73 O 1.1608(5) 0.3610(4) 0.1788(2)
O74 O 0.4881(17) 0.0769(14) 0.1479(8)
O75 O 0.4776(15) 0.9112(13) 0.1257(7)
O76 O 0.340(3) 0.099(3) 0.0734(16)
O77 O 1.396(5) 0.172(4) 0.240(2)
O78 O 1.592(3) 0.247(2) 0.2815(13)
O79 O 1.609(5) 0.339(4) 0.324(2)
O80 O 0.860(3) 0.504(2) 0.3342(12)
loop_
_geom_bond_atom_site_label_1
_geom_bond_atom_site_label_2
_geom_bond_site_symmetry_1
_geom_bond_site_symmetry_2
C1 C11 1_555 1_555
C2 C8 1_555 1_555
C3 C9 1_555 1_555
C4 C10 1_555 1_555
C5 C12 1_555 1_555
C6 C7 1_555 1_555
C7 H1 1_555 1_555
H2 C7 1_555 1_555
H3 C7 1_555 1_555
C8 H4 1_555 1_555
H5 C8 1_555 1_555
H6 C8 1_555 1_555
C9 H7 1_555 1_555
H8 C9 1_555 1_555
H9 C9 1_555 1_555
C10 H10 1_555 1_555
H11 C10 1_555 1_555
H12 C10 1_555 1_555
C11 H13 1_555 1_555
H14 C11 1_555 1_555
H15 C11 1_555 1_555
C12 H16 1_555 1_555
H17 C12 1_555 1_555
H18 C12 1_555 1_555
Cr1 O40 1_555 1_555
Cr2 O40 1_555 1_555
Cr3 O40 1_555 1_555
Ge1 O4 1_555 1_555
K1 O20 1_555 1_555
Mo1 O4 1_555 1_555
Mo2 O4 1_555 1_555
Mo3 O7 1_555 1_555
Mo4 O3 1_555 1_555
Mo5 O10 1_555 1_555
Mo6 O1 1_555 1_555
Mo7 O6 1_555 1_555
Mo8 O2 1_555 1_555
Mo9 O1 1_555 1_555
Mo10 O4 1_555 1_555
Mo11 O7 1_555 1_555
Mo12 O2 1_555 1_555
O3 Mo9 1_555 1_555
O5 Mo1 1_555 1_555
O6 Ge1 1_555 1_555
O8 Mo2 1_555 1_555
O9 Mo10 1_555 1_555
O10 Mo11 1_555 1_555
O11 Mo5 1_555 1_555
O12 Ge1 1_555 1_555
O13 Ge1 1_555 1_555
O14 Mo3 1_555 1_555
O15 Mo4 1_555 1_555
O16 Mo1 1_555 1_555
O17 Mo2 1_555 1_555
O18 Mo9 1_555 1_555
O19 Mo6 1_555 1_555
O20 Mo4 1_555 1_555
O21 Mo2 1_555 1_555
O22 Mo2 1_555 1_555
O23 Mo1 1_555 1_555
O24 Mo7 1_555 1_555
O25 Mo3 1_555 1_555
O26 Mo1 1_555 1_555
O27 Mo6 1_555 1_555
O28 Mo5 1_555 1_555
O29 Mo4 1_555 1_555
O30 Mo1 1_555 1_555
O31 Mo5 1_555 1_555
O32 Mo6 1_555 1_555
O33 Mo8 1_555 1_555
O34 K1 1_555 1_555
O35 Mo9 1_555 1_555
O36 Mo3 1_555 1_555
O37 Mo7 1_555 1_555
O38 Mo11 1_555 1_555
O39 Mo12 1_555 1_555
O41 C4 1_555 1_555
O42 C4 1_555 1_555
O43 C2 1_555 1_555
O44 C2 1_555 1_555
O45 C3 1_555 1_555
O46 C3 1_555 1_555
O47 C5 1_555 1_555
O48 C5 1_555 1_555
O49 C6 1_555 1_555
O50 C6 1_555 1_555
O51 C1 1_555 1_555
O52 C1 1_555 1_555
O53 Mo10 1_555 1_555
O54 Cr1 1_555 1_555
O55 Cr3 1_555 1_555
O56 Cr2 1_555 1_555
O59 K1 1_555 1_555
K1B O31 1_555 1_555
K1B_2 O32 1_555 1_555
O31B K1 1_555 1_555
O32B K1 1_555 1_555
Cr1 O42 1_555 1_555
Cr1 O43 1_555 1_555
Cr1 O46 1_555 1_555
Cr1 O52 1_555 1_555
Cr2 O41 1_555 1_555
Cr2 O47 1_555 1_555
Cr2 O50 1_555 1_555
Cr2 O51 1_555 1_555
Cr3 O44 1_555 1_555
Cr3 O45 1_555 1_555
Cr3 O48 1_555 1_555
Cr3 O49 1_555 1_555
K1 O50 1_555 1_555
K1 O51 1_555 1_555
K1 O56 1_555 1_555
Mo2 O5 1_555 1_555
Mo3 O8 1_555 1_555
Mo3 O13 1_555 1_555
Mo4 O12 1_555 1_555
Mo4 O34 1_555 1_555
Mo5 O12 1_555 1_555
Mo5 O15 1_555 1_555
Mo6 O6 1_555 1_555
Mo6 O29 1_555 1_555
Mo7 O14 1_555 1_555
Mo7 O17 1_555 1_555
Mo7 O27 1_555 1_555
Mo8 O12 1_555 1_555
Mo8 O20 1_555 1_555
Mo8 O23 1_555 1_555
Mo8 O28 1_555 1_555
Mo9 O13 1_555 1_555
Mo9 O25 1_555 1_555
Mo10 O11 1_555 1_555
Mo10 O16 1_555 1_555
Mo10 O22 1_555 1_555
Mo11 O9 1_555 1_555
Mo11 O13 1_555 1_555
Mo11 O18 1_555 1_555
Mo12 O6 1_555 1_555
Mo12 O19 1_555 1_555
Mo12 O24 1_555 1_555
Mo12 O26 1_555 1_555

#END
