
#######################################################################
#
#                 Cambridge Crystallographic Data Centre
#                                CCDC 
#
#######################################################################
#
# If this CIF has been generated from an entry in the Cambridge 
# Structural Database, then it will include bibliographic, chemical, 
# crystal, experimental, refinement or atomic coordinate data resulting 
# from the CCDC's data processing and validation procedures.
#
#######################################################################

data_MARNIE
_chemical_formula_moiety         '(C36 H22 Co2 N4 O8)n,2n(H2 O1)'
_chemical_name_systematic        
"catena-(bis(\m~3~-2-(Pyridin-3-yl)terephthalato)-(\m~2~-4,4'-bipyridine)-di-cobalt dihydrate)"
_symmetry_cell_setting           monoclinic
_symmetry_space_group_name_H-M   'P 2/c'
_symmetry_Int_Tables_number      13
_space_group_name_Hall           '-P 2yc'
loop_
_symmetry_equiv_pos_site_id
_symmetry_equiv_pos_as_xyz
1 x,y,z
2 -x,y,1/2-z
3 -x,-y,-z
4 x,-y,1/2+z
_cell_length_a                   13.1622(15)
_cell_length_b                   7.2427(8)
_cell_length_c                   17.7408(19)
_cell_angle_alpha                90
_cell_angle_beta                 103.584(2)
_cell_angle_gamma                90
_cell_volume                     1643.92
_exptl_crystal_colour            red
_exptl_crystal_description       block
_cell_formula_units_Z            2
loop_
_atom_site_label
_atom_site_type_symbol
_atom_site_fract_x
_atom_site_fract_y
_atom_site_fract_z
Co1 Co 0.21497(3) 0.42354(5) 0.40245(2)
O1 O 0.26732(16) 0.2774(3) 0.49644(11)
O2 O 0.15403(16) 0.0745(3) 0.43256(11)
O3 O 0.37307(17) -0.3454(4) 0.81214(13)
O4 O 0.20236(15) -0.3389(3) 0.79660(11)
N1 N 0.31714(16) 0.6397(3) 0.43396(12)
N2 N -0.06286(17) -0.5111(3) 0.61100(13)
C1 C 0.2179(2) 0.1236(4) 0.49168(16)
C2 C 0.24013(19) 0.0043(4) 0.56254(15)
C3 C 0.3216(2) 0.0444(4) 0.62621(16)
H1 H 0.3651 0.1449 0.6248
C4 C 0.3376(2) -0.0657(4) 0.69131(16)
H2 H 0.3936 -0.0407 0.7329
C5 C 0.27138(19) -0.2142(4) 0.69630(14)
C6 C 0.18994(18) -0.2571(3) 0.63182(14)
C7 C 0.17671(18) -0.1466(3) 0.56581(14)
H3 H 0.1237 -0.1752 0.5227
C8 C 0.2852(2) -0.3096(4) 0.77361(15)
C9 C 0.1169(2) -0.4136(3) 0.63212(14)
C10 C 0.01056(19) -0.3800(4) 0.61104(15)
H4 H -0.0118 -0.2609 0.5961
C11 C -0.0295(2) -0.6827(4) 0.63207(17)
H5 H -0.0787 -0.7744 0.6327
C12 C 0.0749(2) -0.7284(4) 0.65276(18)
H6 H 0.0955 -0.8491 0.6664
C13 C 0.1489(2) -0.5927(4) 0.65301(18)
H7 H 0.2197 -0.6213 0.6671
C14 C 0.3843(2) 0.6330(4) 0.50397(17)
H8 H 0.3814 0.5321 0.5358
C15 C 0.4572(2) 0.7686(4) 0.53065(16)
H9 H 0.5029 0.7566 0.5791
C16 C 0.46288(19) 0.9226(3) 0.48575(15)
C17 C 0.3948(2) 0.9271(4) 0.41331(17)
H10 H 0.3964 1.0262 0.3803
C18 C 0.3246(2) 0.7853(4) 0.38987(17)
H11 H 0.2802 0.7917 0.3407
Co1C Co 0.21497(3) -0.42354(5) -0.09755(2)
Co1C_2 Co 0.21497(3) -0.42354(5) 0.90245(2)
Co1B Co -0.21497(3) -0.42354(5) 0.59755(2)
Co1B_2 Co 0.78503(3) 1.57646(5) 0.59755(2)
Co1A Co -0.21497(3) 0.42354(5) 0.09755(2)
O1C O 0.26732(16) -0.2774(3) -0.00356(11)
O2C O 0.15403(16) -0.0745(3) -0.06744(11)
O3C O 0.37307(17) 0.3454(4) 0.31214(13)
O4C O 0.20236(15) 0.3389(3) 0.29660(11)
O4_2 O 0.20236(15) -0.3389(3) -0.20340(11)
N1B N 0.68286(16) 1.3603(3) 0.56604(12)
N1C N 0.31714(16) -0.6397(3) -0.06604(12)
N2C N -0.06286(17) 0.5111(3) 0.11100(13)
N2B N 0.06286(17) 0.5111(3) 0.38900(13)
N2A N 0.06286(17) -0.5111(3) -0.11100(13)
C1C C 0.2179(2) -0.1236(4) -0.00832(16)
C2C C 0.24013(19) -0.0043(4) 0.06254(15)
C3C C 0.3216(2) -0.0444(4) 0.12621(16)
H1C H 0.3651 -0.1449 0.1248
C4C C 0.3376(2) 0.0657(4) 0.19131(16)
H2C H 0.3936 0.0407 0.2329
C5C C 0.27138(19) 0.2142(4) 0.19630(14)
C6C C 0.18994(18) 0.2571(3) 0.13182(14)
C7C C 0.17671(18) 0.1466(3) 0.06581(14)
H3C H 0.1237 0.1752 0.0227
C8C C 0.2852(2) 0.3096(4) 0.27361(15)
C9C C 0.1169(2) 0.4136(3) 0.13212(14)
C10C C 0.01056(19) 0.3800(4) 0.11104(15)
H4C H -0.0118 0.2609 0.0961
C11C C -0.0295(2) 0.6827(4) 0.13207(17)
H5C H -0.0787 0.7744 0.1327
C12C C 0.0749(2) 0.7284(4) 0.15276(18)
H6C H 0.0955 0.8491 0.1664
C13C C 0.1489(2) 0.5927(4) 0.15301(18)
H7C H 0.2197 0.6213 0.1671
C14B C 0.6157(2) 1.3670(4) 0.49603(17)
H8B H 0.6186 1.4679 0.4642
C15B C 0.5428(2) 1.2314(4) 0.46935(16)
H9B H 0.4971 1.2434 0.4209
C16B C 0.53712(19) 1.0774(3) 0.51425(15)
C17B C 0.6052(2) 1.0729(4) 0.58669(17)
H10B H 0.6036 0.9738 0.6197
C18B C 0.6754(2) 1.2147(4) 0.61013(17)
H11B H 0.7198 1.2083 0.6593
O5 O 0.5000 0.6111(9) 0.2500
O6 O 0.0000 0.0841(6) 0.2500
loop_
_geom_bond_atom_site_label_1
_geom_bond_atom_site_label_2
_geom_bond_site_symmetry_1
_geom_bond_site_symmetry_2
Co1 O1 1_555 1_555
O1 C1 1_555 1_555
O2 C1 1_555 1_555
O3 C8 1_555 1_555
O4 C8 1_555 1_555
N1 Co1 1_555 1_555
N2 C10 1_555 1_555
C1 C2 1_555 1_555
C2 C3 1_555 1_555
C3 H1 1_555 1_555
C4 C3 1_555 1_555
H2 C4 1_555 1_555
C5 C4 1_555 1_555
C6 C5 1_555 1_555
C7 C2 1_555 1_555
H3 C7 1_555 1_555
C8 C5 1_555 1_555
C9 C6 1_555 1_555
C10 C9 1_555 1_555
H4 C10 1_555 1_555
C11 N2 1_555 1_555
H5 C11 1_555 1_555
C12 C11 1_555 1_555
H6 C12 1_555 1_555
C13 C9 1_555 1_555
H7 C13 1_555 1_555
C14 N1 1_555 1_555
H8 C14 1_555 1_555
C15 C14 1_555 1_555
H9 C15 1_555 1_555
C16 C15 1_555 1_555
C17 C16 1_555 1_555
H10 C17 1_555 1_555
C18 N1 1_555 1_555
H11 C18 1_555 1_555
Co1C O1C 1_555 1_555
Co1C_2 O4 1_555 1_555
Co1B N2 1_555 1_555
Co1B_2 N1B 1_555 1_555
Co1A N2C 1_555 1_555
O1C C1C 1_555 1_555
O2C C1C 1_555 1_555
O3C C8C 1_555 1_555
O4C Co1 1_555 1_555
O4_2 Co1C 1_555 1_555
N1B C14B 1_555 1_555
N1C Co1C 1_555 1_555
N2C C10C 1_555 1_555
N2B Co1 1_555 1_555
N2A Co1C 1_555 1_555
C1C C2C 1_555 1_555
C2C C3C 1_555 1_555
C3C H1C 1_555 1_555
C4C C3C 1_555 1_555
H2C C4C 1_555 1_555
C5C C4C 1_555 1_555
C6C C5C 1_555 1_555
C7C C2C 1_555 1_555
H3C C7C 1_555 1_555
C8C O4C 1_555 1_555
C9C C6C 1_555 1_555
C10C C9C 1_555 1_555
H4C C10C 1_555 1_555
C11C N2C 1_555 1_555
H5C C11C 1_555 1_555
C12C C11C 1_555 1_555
H6C C12C 1_555 1_555
C13C C9C 1_555 1_555
H7C C13C 1_555 1_555
C14B H8B 1_555 1_555
C15B C14B 1_555 1_555
H9B C15B 1_555 1_555
C16B C16 1_555 1_555
C17B C16B 1_555 1_555
H10B C17B 1_555 1_555
C18B N1B 1_555 1_555
H11B C18B 1_555 1_555
C6 C7 1_555 1_555
C12 C13 1_555 1_555
C17 C18 1_555 1_555
C5C C8C 1_555 1_555
C6C C7C 1_555 1_555
C12C C13C 1_555 1_555
C15B C16B 1_555 1_555
C17B C18B 1_555 1_555

#END
