
#######################################################################
#
#                 Cambridge Crystallographic Data Centre
#                                CCDC 
#
#######################################################################
#
# If this CIF has been generated from an entry in the Cambridge 
# Structural Database, then it will include bibliographic, chemical, 
# crystal, experimental, refinement or atomic coordinate data resulting 
# from the CCDC's data processing and validation procedures.
#
#######################################################################

data_MARNOK
_chemical_formula_moiety         '(C36 H26 Co2 N4 O10)n,4n(H2 O1)'
_chemical_name_systematic        
"catena-(bis(\m~3~-2-(pyridin-3-yl)terephthalato)-(\m~2~-4,4'-bipyridine)-diaqua-di-cobalt tetrahydrate)"
_symmetry_cell_setting           monoclinic
_symmetry_space_group_name_H-M   'C 2/c'
_symmetry_Int_Tables_number      15
_space_group_name_Hall           '-C 2yc'
loop_
_symmetry_equiv_pos_site_id
_symmetry_equiv_pos_as_xyz
1 x,y,z
2 -x,y,1/2-z
3 1/2+x,1/2+y,z
4 1/2-x,1/2+y,1/2-z
5 -x,-y,-z
6 x,-y,1/2+z
7 1/2-x,1/2-y,-z
8 1/2+x,1/2-y,1/2+z
_cell_length_a                   17.795(2)
_cell_length_b                   14.8776(19)
_cell_length_c                   16.052(2)
_cell_angle_alpha                90
_cell_angle_beta                 109.140(2)
_cell_angle_gamma                90
_cell_volume                     4014.79
_exptl_crystal_colour            red
_exptl_crystal_description       rod
_cell_formula_units_Z            4
loop_
_atom_site_label
_atom_site_type_symbol
_atom_site_fract_x
_atom_site_fract_y
_atom_site_fract_z
Co1 Co -0.13285(4) 0.40671(4) -0.04604(4)
N1 N -0.1689(2) 0.5401(3) -0.0323(3)
N2 N -0.1983(2) 0.3637(3) 0.0385(3)
O1 O 0.0576(2) 0.2880(2) 0.5251(2)
O2 O 0.02335(19) 0.4030(2) 0.4355(2)
O3 O -0.2941(3) 0.0706(3) 0.2685(3)
O4 O -0.27163(19) 0.1264(2) 0.1498(2)
C1 C 0.0107(3) 0.3236(3) 0.4576(3)
C2 C -0.0595(3) 0.2721(3) 0.4000(3)
C3 C -0.0840(3) 0.1923(3) 0.4290(3)
H1 H -0.0564 0.1700 0.4848
C4 C -0.1490(3) 0.1467(3) 0.3748(3)
H2 H -0.1659 0.0945 0.3951
C5 C -0.1900(3) 0.1774(3) 0.2897(3)
C6 C -0.1664(3) 0.2574(3) 0.2598(3)
C7 C -0.1010(3) 0.3038(3) 0.3161(3)
H3 H -0.0848 0.3572 0.2969
C8 C -0.2587(3) 0.1204(3) 0.2319(3)
C9 C -0.2090(3) 0.3006(3) 0.1727(3)
C10 C -0.1673(3) 0.3209(3) 0.1158(3)
H4 H -0.1142 0.3037 0.1324
C11 C -0.2758(3) 0.3865(4) 0.0159(4)
H5 H -0.2997 0.4146 -0.0381
C12 C -0.3203(3) 0.3699(4) 0.0686(4)
H6 H -0.3732 0.3883 0.0511
C13 C -0.2874(3) 0.3260(4) 0.1477(4)
H7 H -0.3178 0.3138 0.1837
C14 C -0.1442(3) 0.5828(3) 0.0450(4)
H8 H -0.1048 0.5559 0.0915
C15 C -0.1737(3) 0.6641(4) 0.0598(4)
H9 H -0.1537 0.6912 0.1149
C16 C -0.2326(3) 0.7057(3) -0.0065(3)
C17 C -0.2588(3) 0.6615(3) -0.0868(3)
H10 H -0.2994 0.6862 -0.1336
C18 C -0.2251(3) 0.5815(3) -0.0972(4)
H11 H -0.2423 0.5544 -0.1525
O5 O -0.0706(2) 0.4488(2) -0.1327(2)
H12 H -0.0439 0.4962 -0.1129
H13 H -0.1034 0.4602 -0.1836
Co1F Co -0.36715(4) 1.09329(4) 0.04604(4)
Co1A Co 0.13285(4) 0.40671(4) 0.54604(4)
Co1F_2 Co -0.36715(4) 0.09329(4) 0.04604(4)
Co1G Co 0.36715(4) 0.09329(4) 0.45396(4)
N1F N -0.3311(2) 0.9599(3) 0.0323(3)
N2A N 0.1983(2) 0.3637(3) 0.4615(3)
N2F N -0.3017(2) 1.1363(3) -0.0385(3)
O1A O -0.0576(2) 0.2880(2) -0.0251(2)
O1G O -0.4424(2) 1.2120(2) 0.0251(2)
O2A O -0.02335(19) 0.4030(2) 0.0645(2)
O2G O -0.47665(19) 1.0970(2) -0.0645(2)
O3A O 0.2941(3) 0.0706(3) 0.2315(3)
O4A O 0.27163(19) 0.1264(2) 0.3502(2)
O4F O -0.22837(19) 0.3736(2) -0.1498(2)
O4_2 O -0.27163(19) 1.1264(2) 0.1498(2)
C1A C -0.0107(3) 0.3236(3) 0.0424(3)
C2A C 0.0595(3) 0.2721(3) 0.1000(3)
C3A C 0.0840(3) 0.1923(3) 0.0710(3)
H1A H 0.0564 0.1700 0.0152
C4A C 0.1490(3) 0.1467(3) 0.1252(3)
H2A H 0.1659 0.0945 0.1049
C5A C 0.1900(3) 0.1774(3) 0.2103(3)
C6A C 0.1664(3) 0.2574(3) 0.2402(3)
C7A C 0.1010(3) 0.3038(3) 0.1839(3)
H3A H 0.0848 0.3572 0.2031
C8A C 0.2587(3) 0.1204(3) 0.2681(3)
C9A C 0.2090(3) 0.3006(3) 0.3273(3)
C10A C 0.1673(3) 0.3209(3) 0.3842(3)
H4A H 0.1142 0.3037 0.3676
C11A C 0.2758(3) 0.3865(4) 0.4841(4)
H5A H 0.2997 0.4146 0.5381
C12A C 0.3203(3) 0.3699(4) 0.4314(4)
H6A H 0.3732 0.3883 0.4489
C13A C 0.2874(3) 0.3260(4) 0.3523(4)
H7A H 0.3178 0.3138 0.3163
C14F C -0.3558(3) 0.9172(3) -0.0450(4)
H8F H -0.3952 0.9441 -0.0915
C15F C -0.3263(3) 0.8359(4) -0.0598(4)
H9F H -0.3463 0.8088 -0.1149
C16F C -0.2674(3) 0.7943(3) 0.0065(3)
C17F C -0.2412(3) 0.8385(3) 0.0868(3)
H10F H -0.2006 0.8138 0.1336
C18F C -0.2749(3) 0.9185(3) 0.0972(4)
H11F H -0.2577 0.9456 0.1525
O5F O -0.4294(2) 1.0512(2) 0.1327(2)
H12F H -0.4561 1.0038 0.1129
H13F H -0.3966 1.0398 0.1836
O6 O 0.9433(5) 0.2459(6) 0.7902(5)
O7? O 0.5381(7) 0.5104(7) 0.7876(9)
loop_
_geom_bond_atom_site_label_1
_geom_bond_atom_site_label_2
_geom_bond_site_symmetry_1
_geom_bond_site_symmetry_2
Co1 N1 1_555 1_555
N1 C14 1_555 1_555
N2 Co1 1_555 1_555
O1 C1 1_555 1_555
O2 C1 1_555 1_555
O3 C8 1_555 1_555
O4 C8 1_555 1_555
C1 C2 1_555 1_555
C2 C3 1_555 1_555
C3 H1 1_555 1_555
C4 C3 1_555 1_555
H2 C4 1_555 1_555
C5 C4 1_555 1_555
C6 C5 1_555 1_555
C7 C2 1_555 1_555
H3 C7 1_555 1_555
C8 C5 1_555 1_555
C9 C6 1_555 1_555
C10 N2 1_555 1_555
H4 C10 1_555 1_555
C11 N2 1_555 1_555
H5 C11 1_555 1_555
C12 C11 1_555 1_555
H6 C12 1_555 1_555
C13 C9 1_555 1_555
H7 C13 1_555 1_555
C14 H8 1_555 1_555
C15 C14 1_555 1_555
H9 C15 1_555 1_555
C16 C15 1_555 1_555
C17 C16 1_555 1_555
H10 C17 1_555 1_555
C18 N1 1_555 1_555
H11 C18 1_555 1_555
O5 Co1 1_555 1_555
H12 O5 1_555 1_555
H13 O5 1_555 1_555
Co1F N1F 1_555 1_555
Co1A O1 1_555 1_555
Co1F_2 O4 1_555 1_555
Co1G O4A 1_555 1_555
N1F C14F 1_555 1_555
N2A Co1A 1_555 1_555
N2F Co1F 1_555 1_555
O1A Co1 1_555 1_555
O1G Co1F 1_555 1_555
O2A Co1 1_555 1_555
O2G Co1F 1_555 1_555
O3A C8A 1_555 1_555
O4A C8A 1_555 1_555
O4F Co1 1_555 1_555
O4_2 Co1F 1_555 1_555
C1A O1A 1_555 1_555
C2A C1A 1_555 1_555
C3A C2A 1_555 1_555
H1A C3A 1_555 1_555
C4A C3A 1_555 1_555
H2A C4A 1_555 1_555
C5A C4A 1_555 1_555
C6A C5A 1_555 1_555
C7A C2A 1_555 1_555
H3A C7A 1_555 1_555
C8A C5A 1_555 1_555
C9A C6A 1_555 1_555
C10A N2A 1_555 1_555
H4A C10A 1_555 1_555
C11A N2A 1_555 1_555
H5A C11A 1_555 1_555
C12A C11A 1_555 1_555
H6A C12A 1_555 1_555
C13A C9A 1_555 1_555
H7A C13A 1_555 1_555
C14F H8F 1_555 1_555
C15F C14F 1_555 1_555
H9F C15F 1_555 1_555
C16F C16 1_555 1_555
C17F C16F 1_555 1_555
H10F C17F 1_555 1_555
C18F N1F 1_555 1_555
H11F C18F 1_555 1_555
O5F Co1F 1_555 1_555
H12F O5F 1_555 1_555
H13F O5F 1_555 1_555
O2 Co1A 1_555 1_555
C6 C7 1_555 1_555
C9 C10 1_555 1_555
C12 C13 1_555 1_555
C17 C18 1_555 1_555
O2A C1A 1_555 1_555
C6A C7A 1_555 1_555
C9A C10A 1_555 1_555
C12A C13A 1_555 1_555
C15F C16F 1_555 1_555
C17F C18F 1_555 1_555

#END
