
#######################################################################
#
#                 Cambridge Crystallographic Data Centre
#                                CCDC 
#
#######################################################################
#
# If this CIF has been generated from an entry in the Cambridge 
# Structural Database, then it will include bibliographic, chemical, 
# crystal, experimental, refinement or atomic coordinate data resulting 
# from the CCDC's data processing and validation procedures.
#
#######################################################################

data_HOWQUH
_chemical_formula_moiety         
'(C20 H12 Ag1 Co1 N10 O4 2+)n,2(B1 F4 1-),2(H2 O1)'
_chemical_name_systematic        
'catena-[bis(\m-bis(pyrazin-2-ylcarbonyl)amido)-cobalt-silver bis(tetrafluoroborate) dihydrate]'
_symmetry_cell_setting           orthorhombic
_symmetry_space_group_name_H-M   'C m c m'
_symmetry_Int_Tables_number      63
_space_group_name_Hall           '-C 2c 2'
loop_
_symmetry_equiv_pos_site_id
_symmetry_equiv_pos_as_xyz
1 x,y,z
2 -x,-y,1/2+z
3 -x,y,1/2-z
4 x,-y,-z
5 1/2+x,1/2+y,z
6 1/2-x,1/2-y,1/2+z
7 1/2-x,1/2+y,1/2-z
8 1/2+x,1/2-y,-z
9 -x,-y,-z
10 x,y,1/2-z
11 x,-y,1/2+z
12 -x,y,z
13 1/2-x,1/2-y,-z
14 1/2+x,1/2+y,1/2-z
15 1/2+x,1/2-y,1/2+z
16 1/2-x,1/2+y,z
_cell_length_a                   13.708(3)
_cell_length_b                   14.079(2)
_cell_length_c                   13.798(3)
_cell_angle_alpha                90
_cell_angle_beta                 90
_cell_angle_gamma                90
_cell_volume                     2662.94
_cell_formula_units_Z            4
loop_
_atom_site_label
_atom_site_type_symbol
_atom_site_fract_x
_atom_site_fract_y
_atom_site_fract_z
O3 O 0.7765(8) 0.6942(9) 0.4621(7)
H7 H 0.735(8) 0.665(7) 0.499(10)
H8 H 0.756(9) 0.752(3) 0.460(10)
Ag1 Ag 0.5000 0.62525(4) 0.2500
N1 N 0.1641(3) 0.1481(3) 0.2500
N2 N 0.5000 0.2755(3) 0.5849(3)
O1 O 0.5000 0.4746(2) 0.3528(3)
C1 C 0.5000 0.3904(4) 0.3379(3)
N3 N 0.5000 0.3437(4) 0.2500
C2 C 0.5000 0.3183(3) 0.4174(3)
Co1 Co 0.5000 0.20961(6) 0.2500
N4 N 0.5000 0.2267(3) 0.3895(3)
C3 C 0.5000 0.3417(4) 0.5144(4)
N5 N 0.5000 0.0753(4) 0.2500
N6 N 0.3605(3) 0.1945(3) 0.2500
C4 C 0.5000 0.1607(4) 0.4586(3)
H1 H 0.5000 0.4069 0.5323
C5 C 0.4109(4) 0.0300(3) 0.2500
C6 C 0.3306(4) 0.1026(3) 0.2500
C7 C 0.2918(4) 0.2613(3) 0.2500
C8 C 0.5000 0.1863(4) 0.5557(4)
H2 H 0.5000 0.0954 0.4413
O2 O 0.3953(3) -0.0541(3) 0.2500
C9 C 0.2329(4) 0.0807(3) 0.2500
C10 C 0.1942(4) 0.2377(4) 0.2500
H3 H 0.3104 0.3263 0.2500
H4 H 0.5000 0.1375 0.6033
H5 H 0.2137 0.0159 0.2500
H6 H 0.1470 0.2871 0.2500
O1B O 0.5000 0.4746(2) 0.1472(3)
C1B C 0.5000 0.3904(4) 0.1621(3)
C2B C 0.5000 0.3183(3) 0.0826(3)
N4B N 0.5000 0.2267(3) 0.1105(3)
C3B C 0.5000 0.3417(4) -0.0144(4)
C4B C 0.5000 0.1607(4) 0.0414(3)
H1B H 0.5000 0.4069 -0.0323
C8B C 0.5000 0.1863(4) -0.0557(4)
H2B H 0.5000 0.0954 0.0587
H4B H 0.5000 0.1375 -0.1033
N2B N 0.5000 0.2755(3) -0.0849(3)
N6B N 0.6395(3) 0.1945(3) 0.2500
C6B C 0.6694(4) 0.1026(3) 0.2500
C7B C 0.7082(4) 0.2613(3) 0.2500
C9B C 0.7671(4) 0.0807(3) 0.2500
C10B C 0.8058(4) 0.2377(4) 0.2500
H3B H 0.6896 0.3263 0.2500
H5B H 0.7863 0.0159 0.2500
H6B H 0.8530 0.2871 0.2500
C5B C 0.5891(4) 0.0300(3) 0.2500
O2B O 0.6047(3) -0.0541(3) 0.2500
N1B N 0.8359(3) 0.1481(3) 0.2500
Ag1A Ag 0.5000 0.37475(4) -0.2500
Ag1A_2 Ag 0.5000 0.37475(4) 0.7500
Ag1D Ag 0.0000 0.12525(4) 0.2500
Ag1D_2 Ag 1.0000 0.12525(4) 0.2500
N1D N 0.6641(3) 0.6481(3) 0.2500
N1F N 0.3359(3) 0.6481(3) 0.2500
N2A N 0.5000 0.7245(3) 0.0849(3)
N2C N 0.5000 0.7245(3) 0.4151(3)
B1? B 0.7677(7) 0.5527(7) 0.5116(6)
F1? F 0.7847(5) 0.6311(5) 0.4551(4)
F2? F 0.7141(5) 0.5795(4) 0.5934(4)
F3? F 0.8552(4) 0.5123(4) 0.5401(4)
F4? F 0.7141(5) 0.4868(5) 0.4579(4)
loop_
_geom_bond_atom_site_label_1
_geom_bond_atom_site_label_2
_geom_bond_site_symmetry_1
_geom_bond_site_symmetry_2
Ag1 O1 1_555 1_555
N1 C9 1_555 1_555
N2 C3 1_555 1_555
O1 C1 1_555 1_555
C1 N3 1_555 1_555
N3 Co1 1_555 1_555
C2 C1 1_555 1_555
Co1 N4 1_555 1_555
N4 C2 1_555 1_555
C3 C2 1_555 1_555
N5 Co1 1_555 1_555
N6 Co1 1_555 1_555
C4 N4 1_555 1_555
H1 C3 1_555 1_555
C5 N5 1_555 1_555
C6 N6 1_555 1_555
C7 N6 1_555 1_555
C8 N2 1_555 1_555
H2 C4 1_555 1_555
O2 C5 1_555 1_555
C9 C6 1_555 1_555
C10 N1 1_555 1_555
H3 C7 1_555 1_555
H4 C8 1_555 1_555
H5 C9 1_555 1_555
H6 C10 1_555 1_555
O3 H7 1_555 1_555
H8 O3 1_555 1_555
O1B Ag1 1_555 1_555
C1B N3 1_555 1_555
C2B C1B 1_555 1_555
N4B Co1 1_555 1_555
C3B C2B 1_555 1_555
C4B N4B 1_555 1_555
H1B C3B 1_555 1_555
C8B C4B 1_555 1_555
H2B C4B 1_555 1_555
H4B C8B 1_555 1_555
N2B C3B 1_555 1_555
N6B Co1 1_555 1_555
C6B N6B 1_555 1_555
C7B N6B 1_555 1_555
C9B C6B 1_555 1_555
C10B C7B 1_555 1_555
H3B C7B 1_555 1_555
H5B C9B 1_555 1_555
H6B C10B 1_555 1_555
C5B N5 1_555 1_555
O2B C5B 1_555 1_555
N1B C9B 1_555 1_555
Ag1A N2B 1_555 1_555
Ag1A_2 N2 1_555 1_555
Ag1D N1 1_555 1_555
Ag1D_2 N1B 1_555 1_555
N1D Ag1 1_555 1_555
N1F Ag1 1_555 1_555
N2A Ag1 1_555 1_555
N2C Ag1 1_555 1_555
C4 C8 1_555 1_555
C5 C6 1_555 1_555
C7 C10 1_555 1_555
O1B C1B 1_555 1_555
C2B N4B 1_555 1_555
C8B N2B 1_555 1_555
C6B C5B 1_555 1_555
C10B N1B 1_555 1_555

#END
