
#######################################################################
#
#                 Cambridge Crystallographic Data Centre
#                                CCDC 
#
#######################################################################
#
# If this CIF has been generated from an entry in the Cambridge 
# Structural Database, then it will include bibliographic, chemical, 
# crystal, experimental, refinement or atomic coordinate data resulting 
# from the CCDC's data processing and validation procedures.
#
#######################################################################

data_HOWQER
_chemical_formula_moiety         '(C20 H12 Ag1 Co1 N10 O4 2+)n,2(B1 F4 1-)'
_chemical_name_systematic        
'catena-[bis(\m-bis(pyrazin-2-ylcarbonyl)amido)-cobalt-silver bis(tetrafluoroborate)]'
_symmetry_cell_setting           orthorhombic
_symmetry_space_group_name_H-M   'C m c m'
_symmetry_Int_Tables_number      63
_space_group_name_Hall           '-C 2c 2'
loop_
_symmetry_equiv_pos_site_id
_symmetry_equiv_pos_as_xyz
1 x,y,z
2 -x,-y,1/2+z
3 -x,y,1/2-z
4 x,-y,-z
5 1/2+x,1/2+y,z
6 1/2-x,1/2-y,1/2+z
7 1/2-x,1/2+y,1/2-z
8 1/2+x,1/2-y,-z
9 -x,-y,-z
10 x,y,1/2-z
11 x,-y,1/2+z
12 -x,y,z
13 1/2-x,1/2-y,-z
14 1/2+x,1/2+y,1/2-z
15 1/2+x,1/2-y,1/2+z
16 1/2-x,1/2+y,z
_cell_length_a                   13.6516(2)
_cell_length_b                   13.98500(10)
_cell_length_c                   13.75720(10)
_cell_angle_alpha                90
_cell_angle_beta                 90
_cell_angle_gamma                90
_cell_volume                     2626.49
_cell_formula_units_Z            4
loop_
_atom_site_label
_atom_site_type_symbol
_atom_site_fract_x
_atom_site_fract_y
_atom_site_fract_z
B1 B 0.7355(7) 0.5564(7) 0.5113(6)
F1 F 0.7873(6) 0.5805(4) 0.5946(4)
F2 F 0.7166(5) 0.6410(6) 0.4588(4)
F3 F 0.6486(5) 0.5109(5) 0.5410(5)
F4 F 0.7905(6) 0.4908(6) 0.4568(5)
B1C B 0.7355(7) 0.4436(7) 0.4887(6)
F1C F 0.7873(6) 0.4195(4) 0.4054(4)
F2C F 0.7166(5) 0.3590(6) 0.5412(4)
F3C F 0.6486(5) 0.4891(5) 0.4590(5)
F4C F 0.7905(6) 0.5092(6) 0.5432(5)
Co1 Co 0.5000 0.29076(4) 0.7500
Ag1 Ag 0.5000 -0.12501(3) 0.7500
N1 N 0.3601(3) 0.30607(18) 0.7500
C1 C 0.2918(3) 0.2379(2) 0.7500
H1 H 0.3106 0.1725 0.7500
C2 C 0.1939(4) 0.2622(3) 0.7500
H2 H 0.1463 0.2126 0.7500
N2 N 0.1637(3) 0.3525(2) 0.7500
C3 C 0.2321(3) 0.4206(2) 0.7500
H3 H 0.2128 0.4858 0.7500
C4 C 0.3310(3) 0.3977(2) 0.7500
C5 C 0.4111(3) 0.4714(2) 0.7500
O1 O 0.3952(3) 0.5563(2) 0.7500
N3 N 0.5000 0.4264(3) 0.7500
N4 N 0.5000 0.27432(18) 0.61018(19)
C6 C 0.5000 0.3405(2) 0.5409(3)
H4 H 0.5000 0.4063 0.5581
C7 C 0.5000 0.3140(3) 0.4433(3)
H5 H 0.5000 0.3627 0.3951
N5 N 0.5000 0.2234(3) 0.4151(2)
C8 C 0.5000 0.1574(3) 0.4853(3)
H6 H 0.5000 0.0916 0.4679
C9 C 0.5000 0.1820(2) 0.5823(2)
C10 C 0.5000 0.1100(2) 0.6619(3)
O2 O 0.5000 0.02503(19) 0.6469(2)
N6 N 0.5000 0.1557(2) 0.7500
N1B N 0.6399(3) 0.30607(18) 0.7500
C1B C 0.7082(3) 0.2379(2) 0.7500
H1B H 0.6894 0.1725 0.7500
C2B C 0.8061(4) 0.2622(3) 0.7500
H2B H 0.8537 0.2126 0.7500
N2B N 0.8363(3) 0.3525(2) 0.7500
C3B C 0.7679(3) 0.4206(2) 0.7500
H3B H 0.7872 0.4858 0.7500
C4B C 0.6690(3) 0.3977(2) 0.7500
C5B C 0.5889(3) 0.4714(2) 0.7500
O1B O 0.6048(3) 0.5563(2) 0.7500
N4B N 0.5000 0.27432(18) 0.88982(19)
C6B C 0.5000 0.3405(2) 0.9591(3)
H4B H 0.5000 0.4063 0.9419
C7B C 0.5000 0.3140(3) 1.0567(3)
H5B H 0.5000 0.3627 1.1049
N5B N 0.5000 0.2234(3) 1.0849(2)
C8B C 0.5000 0.1574(3) 1.0147(3)
H6B H 0.5000 0.0916 1.0321
C9B C 0.5000 0.1820(2) 0.9177(2)
C10B C 0.5000 0.1100(2) 0.8381(3)
O2B O 0.5000 0.02503(19) 0.8531(2)
Ag1A Ag 0.5000 0.12501(3) 0.2500
Ag1A_2 Ag 0.5000 0.12501(3) 1.2500
Ag1D Ag 0.0000 0.37499(3) 0.7500
Ag1D_2 Ag 1.0000 0.37499(3) 0.7500
N2D N 0.6637(3) -0.1475(2) 0.7500
N2F N 0.3363(3) -0.1475(2) 0.7500
N5A N 0.5000 -0.2234(3) 0.9151(2)
N5C N 0.5000 -0.2234(3) 0.5849(2)
loop_
_geom_bond_atom_site_label_1
_geom_bond_atom_site_label_2
_geom_bond_site_symmetry_1
_geom_bond_site_symmetry_2
Co1 N1 1_555 1_555
Ag1 O2 1_555 1_555
N1 C1 1_555 1_555
C1 H1 1_555 1_555
C2 C1 1_555 1_555
H2 C2 1_555 1_555
N2 C2 1_555 1_555
C3 N2 1_555 1_555
H3 C3 1_555 1_555
C4 N1 1_555 1_555
C5 C4 1_555 1_555
O1 C5 1_555 1_555
N3 Co1 1_555 1_555
N4 Co1 1_555 1_555
C6 N4 1_555 1_555
H4 C6 1_555 1_555
C7 C6 1_555 1_555
H5 C7 1_555 1_555
N5 C7 1_555 1_555
C8 N5 1_555 1_555
H6 C8 1_555 1_555
C9 N4 1_555 1_555
C10 C9 1_555 1_555
O2 C10 1_555 1_555
N6 Co1 1_555 1_555
B1 F1 1_555 1_555
F1 F4C 1_555 1_555
F2 B1 1_555 1_555
F3 B1 1_555 1_555
F4 B1 1_555 1_555
N1B Co1 1_555 1_555
C1B N1B 1_555 1_555
H1B C1B 1_555 1_555
C2B C1B 1_555 1_555
H2B C2B 1_555 1_555
N2B C2B 1_555 1_555
C3B N2B 1_555 1_555
H3B C3B 1_555 1_555
C4B N1B 1_555 1_555
C5B N3 1_555 1_555
O1B C5B 1_555 1_555
N4B Co1 1_555 1_555
C6B N4B 1_555 1_555
H4B C6B 1_555 1_555
C7B C6B 1_555 1_555
H5B C7B 1_555 1_555
N5B C7B 1_555 1_555
C8B N5B 1_555 1_555
H6B C8B 1_555 1_555
C9B N4B 1_555 1_555
C10B N6 1_555 1_555
O2B Ag1 1_555 1_555
Ag1A N5 1_555 1_555
Ag1A_2 N5B 1_555 1_555
Ag1D N2 1_555 1_555
Ag1D_2 N2B 1_555 1_555
N2D Ag1 1_555 1_555
N2F Ag1 1_555 1_555
N5A Ag1 1_555 1_555
N5C Ag1 1_555 1_555
B1C B1 1_555 1_555
F1C F4 1_555 1_555
F2C B1C 1_555 1_555
F3C B1 1_555 1_555
F4C B1 1_555 1_555
C3 C4 1_555 1_555
C5 N3 1_555 1_555
C8 C9 1_555 1_555
C10 N6 1_555 1_555
F3 B1C 1_555 1_555
F3 F3C 1_555 1_555
F4 B1C 1_555 1_555
F4 F4C 1_555 1_555
C3B C4B 1_555 1_555
C4B C5B 1_555 1_555
C8B C9B 1_555 1_555
C9B C10B 1_555 1_555
C10B O2B 1_555 1_555
B1C F1C 1_555 1_555
B1C F3C 1_555 1_555
B1C F4C 1_555 1_555

#END
