
#######################################################################
#
#                 Cambridge Crystallographic Data Centre
#                                CCDC 
#
#######################################################################
#
# If this CIF has been generated from an entry in the Cambridge 
# Structural Database, then it will include bibliographic, chemical, 
# crystal, experimental, refinement or atomic coordinate data resulting 
# from the CCDC's data processing and validation procedures.
#
#######################################################################

data_HOWQER02
_chemical_formula_moiety         '(C20 H12 Ag1 Co1 N10 O4 2+)n,2(B1 F4 1-)'
_chemical_name_systematic        
'catena-[bis(\m-bis(pyrazin-2-ylcarbonyl)amido)-cobalt-silver bis(tetrafluoroborate)]'
_symmetry_cell_setting           orthorhombic
_symmetry_space_group_name_H-M   'C m c m'
_symmetry_Int_Tables_number      63
_space_group_name_Hall           '-C 2c 2'
loop_
_symmetry_equiv_pos_site_id
_symmetry_equiv_pos_as_xyz
1 x,y,z
2 -x,-y,1/2+z
3 -x,y,1/2-z
4 x,-y,-z
5 1/2+x,1/2+y,z
6 1/2-x,1/2-y,1/2+z
7 1/2-x,1/2+y,1/2-z
8 1/2+x,1/2-y,-z
9 -x,-y,-z
10 x,y,1/2-z
11 x,-y,1/2+z
12 -x,y,z
13 1/2-x,1/2-y,-z
14 1/2+x,1/2+y,1/2-z
15 1/2+x,1/2-y,1/2+z
16 1/2-x,1/2+y,z
_cell_length_a                   13.7009(6)
_cell_length_b                   14.0524(5)
_cell_length_c                   13.9539(6)
_cell_angle_alpha                90
_cell_angle_beta                 90
_cell_angle_gamma                90
_cell_volume                     2686.55
_cell_formula_units_Z            4
loop_
_atom_site_label
_atom_site_type_symbol
_atom_site_fract_x
_atom_site_fract_y
_atom_site_fract_z
B1 B 0.2363(14) 0.5408(11) 0.9828(14)
F1 F 0.2752(14) 0.5765(8) 0.9066(11)
F2 F 0.1457(9) 0.5045(11) 0.9585(8)
F3 F 0.2172(16) 0.6155(11) 1.0400(13)
F4 F 0.2956(12) 0.5165(14) 1.0448(11)
B1C B 0.2363(14) 0.4592(11) 1.0172(14)
F1C F 0.2752(14) 0.4235(8) 1.0934(11)
F2C F 0.1457(9) 0.4955(11) 1.0415(8)
F3C F 0.2172(16) 0.3845(11) 0.9600(13)
F4C F 0.2956(12) 0.4835(14) 0.9552(11)
Ag1 Ag 0.5000 0.37355(3) 0.7500
N1 N 0.3354(3) 0.3501(3) 0.7500
N2 N 0.5000 0.2789(3) 0.9192(3)
O1 O 0.5000 0.52336(18) 0.6487(3)
C1 C 0.5000 0.6081(2) 0.6634(3)
N3 N 0.5000 0.6536(2) 0.7500
C2 C 0.5000 0.6797(2) 0.5837(2)
Co1 Co 0.5000 0.78892(3) 0.7500
N4 N 0.5000 0.77203(17) 0.6111(2)
C3 C 0.5000 0.6553(3) 0.4878(3)
N5 N 0.6398(2) 0.80443(18) 0.7500
N6 N 0.5000 0.9245(2) 0.7500
C4 C 0.5000 0.8380(3) 0.5422(3)
H1 H 0.5000 0.5913 0.4708
C5 C 0.7080(3) 0.7362(2) 0.7500
C6 C 0.6688(3) 0.8955(2) 0.7500
C7 C 0.5887(3) 0.9691(2) 0.7500
C8 C 0.5000 0.8100(4) 0.4466(3)
H2 H 0.5000 0.9023 0.5581
H3 H 0.6894 0.6726 0.7500
C9 C 0.8055(3) 0.7598(3) 0.7500
C10 C 0.7676(3) 0.9179(2) 0.7500
O2 O 0.6042(3) 1.0534(2) 0.7500
H4 H 0.5000 0.8571 0.3998
H5 H 0.8519 0.7115 0.7500
H6 H 0.7866 0.9815 0.7500
N1B N 0.6646(3) 0.3501(3) 0.7500
N2B N 0.5000 0.2789(3) 0.5808(3)
O1B O 0.5000 0.52336(18) 0.8513(3)
C1B C 0.5000 0.6081(2) 0.8366(3)
C2B C 0.5000 0.6797(2) 0.9163(2)
N4B N 0.5000 0.77203(17) 0.8889(2)
C3B C 0.5000 0.6553(3) 1.0122(3)
N5B N 0.3602(2) 0.80443(18) 0.7500
N2A N 0.5000 0.7211(3) 0.4192(3)
C4B C 0.5000 0.8380(3) 0.9578(3)
H1B H 0.5000 0.5913 1.0292
N2C N 0.5000 0.7211(3) 1.0808(3)
Ag1A Ag 0.5000 0.62645(3) 1.2500
Ag1A_2 Ag 0.5000 0.62645(3) 0.2500
C7B C 0.4113(3) 0.9691(2) 0.7500
C5B C 0.2920(3) 0.7362(2) 0.7500
C6B C 0.3312(3) 0.8955(2) 0.7500
H2B H 0.5000 0.9023 0.9419
C8B C 0.5000 0.8100(4) 1.0534(3)
O2B O 0.3958(3) 1.0534(2) 0.7500
C9B C 0.1945(3) 0.7598(3) 0.7500
H3B H 0.3106 0.6726 0.7500
C10B C 0.2324(3) 0.9179(2) 0.7500
H4B H 0.5000 0.8571 1.1002
N1D N 0.8354(3) 0.8501(3) 0.7500
H5B H 0.1481 0.7115 0.7500
N1F N 0.1646(3) 0.8501(3) 0.7500
H6B H 0.2134 0.9815 0.7500
Ag1D Ag 1.0000 0.87355(3) 0.7500
Ag1D_2 Ag 0.0000 0.87355(3) 0.7500
loop_
_geom_bond_atom_site_label_1
_geom_bond_atom_site_label_2
_geom_bond_site_symmetry_1
_geom_bond_site_symmetry_2
Ag1 N1 1_555 1_555
N2 Ag1 1_555 1_555
O1 Ag1 1_555 1_555
C1 O1 1_555 1_555
N3 C1 1_555 1_555
C2 C1 1_555 1_555
Co1 N3 1_555 1_555
N4 C2 1_555 1_555
C3 C2 1_555 1_555
N5 Co1 1_555 1_555
N6 Co1 1_555 1_555
C4 N4 1_555 1_555
H1 C3 1_555 1_555
C5 N5 1_555 1_555
C6 N5 1_555 1_555
C7 N6 1_555 1_555
C8 C4 1_555 1_555
H2 C4 1_555 1_555
H3 C5 1_555 1_555
C9 C5 1_555 1_555
C10 C6 1_555 1_555
O2 C7 1_555 1_555
H4 C8 1_555 1_555
H5 C9 1_555 1_555
H6 C10 1_555 1_555
B1 F1 1_555 1_555
F1 F4C 1_555 1_555
F2 B1 1_555 1_555
F3 B1 1_555 1_555
F4 B1 1_555 1_555
N1B Ag1 1_555 1_555
N2B Ag1 1_555 1_555
O1B Ag1 1_555 1_555
C1B N3 1_555 1_555
C2B C1B 1_555 1_555
N4B Co1 1_555 1_555
C3B C2B 1_555 1_555
N5B Co1 1_555 1_555
N2A C3 1_555 1_555
C4B N4B 1_555 1_555
H1B C3B 1_555 1_555
N2C C3B 1_555 1_555
Ag1A N2C 1_555 1_555
Ag1A_2 N2A 1_555 1_555
C7B N6 1_555 1_555
C5B N5B 1_555 1_555
C6B N5B 1_555 1_555
H2B C4B 1_555 1_555
C8B C4B 1_555 1_555
O2B C7B 1_555 1_555
C9B C5B 1_555 1_555
H3B C5B 1_555 1_555
C10B C6B 1_555 1_555
H4B C8B 1_555 1_555
N1D C9 1_555 1_555
H5B C9B 1_555 1_555
N1F C9B 1_555 1_555
H6B C10B 1_555 1_555
Ag1D N1D 1_555 1_555
Ag1D_2 N1F 1_555 1_555
B1C B1 1_555 1_555
F1C F4 1_555 1_555
F2C B1 1_555 1_555
F3C B1C 1_555 1_555
F4C B1 1_555 1_555
Co1 N4 1_555 1_555
C6 C7 1_555 1_555
C8 N2A 1_555 1_555
C10 N1D 1_555 1_555
F2 B1C 1_555 1_555
F2 F2C 1_555 1_555
F4 B1C 1_555 1_555
F4 F4C 1_555 1_555
O1B C1B 1_555 1_555
C2B N4B 1_555 1_555
N2C C8B 1_555 1_555
C7B C6B 1_555 1_555
C10B N1F 1_555 1_555
B1C F1C 1_555 1_555
B1C F2C 1_555 1_555
B1C F4C 1_555 1_555

#END
