
#######################################################################
#
#                 Cambridge Crystallographic Data Centre
#                                CCDC 
#
#######################################################################
#
# If this CIF has been generated from an entry in the Cambridge 
# Structural Database, then it will include bibliographic, chemical, 
# crystal, experimental, refinement or atomic coordinate data resulting 
# from the CCDC's data processing and validation procedures.
#
#######################################################################

data_HOWRAO
_chemical_formula_moiety         
'(C20 H12 Ag1 N10 Ni1 O4 1+)n,0.5(C3 H6 O1),B1 F4 1-'
_chemical_name_systematic        
'catena-[bis(\m-bis(pyrazin-2-ylcarbonyl)amido)-nickel-silver tetrafluoroborate acetone solvate]'
_symmetry_cell_setting           orthorhombic
_symmetry_space_group_name_H-M   'C m c m'
_symmetry_Int_Tables_number      63
_space_group_name_Hall           '-C 2c 2'
loop_
_symmetry_equiv_pos_site_id
_symmetry_equiv_pos_as_xyz
1 x,y,z
2 -x,-y,1/2+z
3 -x,y,1/2-z
4 x,-y,-z
5 1/2+x,1/2+y,z
6 1/2-x,1/2-y,1/2+z
7 1/2-x,1/2+y,1/2-z
8 1/2+x,1/2-y,-z
9 -x,-y,-z
10 x,y,1/2-z
11 x,-y,1/2+z
12 -x,y,z
13 1/2-x,1/2-y,-z
14 1/2+x,1/2+y,1/2-z
15 1/2+x,1/2-y,1/2+z
16 1/2-x,1/2+y,z
_cell_length_a                   14.0140(14)
_cell_length_b                   14.4385(14)
_cell_length_c                   13.6760(14)
_cell_angle_alpha                90
_cell_angle_beta                 90
_cell_angle_gamma                90
_cell_volume                     2767.22
_exptl_crystal_colour            orange
_exptl_crystal_description       Needle
_cell_formula_units_Z            4
loop_
_atom_site_label
_atom_site_type_symbol
_atom_site_fract_x
_atom_site_fract_y
_atom_site_fract_z
B1 B 0.2504(13) -0.0754(11) 0.4795(12)
F1 F 0.1702(11) -0.0257(10) 0.4619(11)
F2 F 0.2317(13) -0.1499(10) 0.5364(11)
F3 F 0.2866(15) -0.1100(11) 0.3945(10)
F4 F 0.3151(11) -0.0203(10) 0.5218(12)
B1C B 0.2504(13) 0.0754(11) 0.5205(12)
F1C F 0.1702(11) 0.0257(10) 0.5381(11)
F2C F 0.2317(13) 0.1499(10) 0.4636(11)
F3C F 0.2866(15) 0.1100(11) 0.6055(10)
F4C F 0.3151(11) 0.0203(10) 0.4782(12)
Ag1 Ag 0.5000 0.10454(6) 0.2500
Ni1 Ni 0.0000 0.19833(10) 0.2500
N1 N 0.0000 0.2255(5) 0.0986(5)
C1 C 0.0000 0.1677(6) 0.0223(7)
H1 H 0.0000 0.1028 0.0340
C2 C 0.0000 0.1991(6) -0.0729(7)
H2 H 0.0000 0.1557 -0.1251
N2 N 0.0000 0.2909(5) -0.0931(5)
C3 C 0.0000 0.3494(6) -0.0189(6)
H3 H 0.0000 0.4142 -0.0310
C4 C 0.0000 0.3162(5) 0.0787(6)
C5 C 0.0000 0.3833(6) 0.1614(7)
O1 O 0.0000 0.4659(4) 0.1468(5)
N3 N 0.0000 0.3398(7) 0.2500
N4 N 0.1436(5) 0.1745(4) 0.2500
C6 C 0.2131(7) 0.2366(6) 0.2500
H4 H 0.1977 0.3007 0.2500
C7 C 0.3091(7) 0.2095(7) 0.2500
H5 H 0.3578 0.2553 0.2500
N5 N 0.3324(6) 0.1212(5) 0.2500
C8 C 0.2639(7) 0.0579(6) 0.2500
H6 H 0.2804 -0.0059 0.2500
C9 C 0.1677(6) 0.0835(5) 0.2500
C10 C 0.0866(6) 0.0146(6) 0.2500
O2 O 0.1041(5) -0.0667(4) 0.2500
N6 N 0.0000 0.0574(8) 0.2500
N1B N 0.0000 0.2255(5) 0.4014(5)
C1B C 0.0000 0.1677(6) 0.4777(7)
H1B H 0.0000 0.1028 0.4660
C2B C 0.0000 0.1991(6) 0.5729(7)
H2B H 0.0000 0.1557 0.6251
N2B N 0.0000 0.2909(5) 0.5931(5)
C3B C 0.0000 0.3494(6) 0.5189(6)
H3B H 0.0000 0.4142 0.5310
C4B C 0.0000 0.3162(5) 0.4213(6)
C5B C 0.0000 0.3833(6) 0.3386(7)
O1B O 0.0000 0.4659(4) 0.3532(5)
N4B N -0.1436(5) 0.1745(4) 0.2500
C6B C -0.2131(7) 0.2366(6) 0.2500
H4B H -0.1977 0.3007 0.2500
C7B C -0.3091(7) 0.2095(7) 0.2500
H5B H -0.3578 0.2553 0.2500
N5B N -0.3324(6) 0.1212(5) 0.2500
C8B C -0.2639(7) 0.0579(6) 0.2500
H6B H -0.2804 -0.0059 0.2500
C9B C -0.1677(6) 0.0835(5) 0.2500
C10B C -0.0866(6) 0.0146(6) 0.2500
O2B O -0.1041(5) -0.0667(4) 0.2500
Ag1_2 Ag -0.5000 0.10454(6) 0.2500
Ag1D Ag 0.0000 0.60454(6) 0.2500
Ag1E Ag 0.0000 0.39546(6) -0.2500
Ag1E_2 Ag 0.0000 0.39546(6) 0.7500
N2E N 0.5000 0.2091(5) 0.4069(5)
N2G N 0.5000 0.2091(5) 0.0931(5)
O1D O 0.5000 -0.0341(4) 0.1468(5)
O1F O 0.5000 -0.0341(4) 0.3532(5)
N5B_2 N 0.6676(6) 0.1212(5) 0.2500
O3? O 0.127(2) 0.0000 0.5000
C11? C 0.208(3) 0.0000 0.5000
C12? C 0.255(3) -0.099(3) 0.482(3)
H7? H 0.2425 -0.1395 0.5381
H8? H 0.3239 -0.0925 0.4728
H9? H 0.2271 -0.1274 0.4229
loop_
_geom_bond_atom_site_label_1
_geom_bond_atom_site_label_2
_geom_bond_site_symmetry_1
_geom_bond_site_symmetry_2
Ag1 N5 1_555 1_555
Ni1 N1 1_555 1_555
N1 C1 1_555 1_555
C1 H1 1_555 1_555
C2 C1 1_555 1_555
H2 C2 1_555 1_555
N2 C2 1_555 1_555
C3 N2 1_555 1_555
H3 C3 1_555 1_555
C4 N1 1_555 1_555
C5 C4 1_555 1_555
O1 C5 1_555 1_555
N3 Ni1 1_555 1_555
N4 Ni1 1_555 1_555
C6 N4 1_555 1_555
H4 C6 1_555 1_555
C7 C6 1_555 1_555
H5 C7 1_555 1_555
N5 C7 1_555 1_555
C8 N5 1_555 1_555
H6 C8 1_555 1_555
C9 N4 1_555 1_555
C10 C9 1_555 1_555
O2 C10 1_555 1_555
N6 Ni1 1_555 1_555
B1 F1 1_555 1_555
F1 F1C 1_555 1_555
F2 B1 1_555 1_555
F3 B1 1_555 1_555
F4 B1 1_555 1_555
N1B Ni1 1_555 1_555
C1B N1B 1_555 1_555
H1B C1B 1_555 1_555
C2B C1B 1_555 1_555
H2B C2B 1_555 1_555
N2B C2B 1_555 1_555
C3B N2B 1_555 1_555
H3B C3B 1_555 1_555
C4B N1B 1_555 1_555
C5B N3 1_555 1_555
O1B C5B 1_555 1_555
N4B Ni1 1_555 1_555
C6B N4B 1_555 1_555
H4B C6B 1_555 1_555
C7B C6B 1_555 1_555
H5B C7B 1_555 1_555
N5B C7B 1_555 1_555
C8B N5B 1_555 1_555
H6B C8B 1_555 1_555
C9B N4B 1_555 1_555
C10B N6 1_555 1_555
O2B C10B 1_555 1_555
Ag1_2 N5B 1_555 1_555
Ag1D O1 1_555 1_555
Ag1E N2 1_555 1_555
Ag1E_2 N2B 1_555 1_555
N2E Ag1 1_555 1_555
N2G Ag1 1_555 1_555
O1D Ag1 1_555 1_555
O1F Ag1 1_555 1_555
N5B_2 Ag1 1_555 1_555
B1C F4 1_555 1_555
F1C B1C 1_555 1_555
F2C B1C 1_555 1_555
F3C B1C 1_555 1_555
F4C B1 1_555 1_555
C3 C4 1_555 1_555
C5 N3 1_555 1_555
C8 C9 1_555 1_555
C10 N6 1_555 1_555
F4 F4C 1_555 1_555
C3B C4B 1_555 1_555
C4B C5B 1_555 1_555
O1B Ag1D 1_555 1_555
C8B C9B 1_555 1_555
C9B C10B 1_555 1_555
B1C F4C 1_555 1_555

#END
