
#######################################################################
#
#                 Cambridge Crystallographic Data Centre
#                                CCDC 
#
#######################################################################
#
# If this CIF has been generated from an entry in the Cambridge 
# Structural Database, then it will include bibliographic, chemical, 
# crystal, experimental, refinement or atomic coordinate data resulting 
# from the CCDC's data processing and validation procedures.
#
#######################################################################

data_TEHCAM
_chemical_formula_moiety         '(C7 H3 Ba1 N1 O4)n'
_chemical_name_systematic        
catena-((\m~7~-Pyridine-2,5-dicarboxylato)-barium)
_symmetry_cell_setting           orthorhombic
_symmetry_space_group_name_H-M   'P b c a'
_symmetry_Int_Tables_number      61
_space_group_name_Hall           '-P 2ac 2ab'
loop_
_symmetry_equiv_pos_site_id
_symmetry_equiv_pos_as_xyz
1 x,y,z
2 1/2+x,1/2-y,-z
3 -x,1/2+y,1/2-z
4 1/2-x,-y,1/2+z
5 -x,-y,-z
6 1/2-x,1/2+y,z
7 x,1/2-y,1/2+z
8 1/2+x,y,1/2-z
_cell_length_a                   7.76250(10)
_cell_length_b                   10.5067(2)
_cell_length_c                   18.3021(4)
_cell_angle_alpha                90
_cell_angle_beta                 90
_cell_angle_gamma                90
_cell_volume                     1492.69
_exptl_crystal_colour            colorless
_exptl_crystal_description       block
_cell_formula_units_Z            8
loop_
_atom_site_label
_atom_site_type_symbol
_atom_site_fract_x
_atom_site_fract_y
_atom_site_fract_z
_atom_site_U_iso_or_equiv
_atom_site_thermal_displace_type
Ba1 Ba 0.04130(3) 0.70498(2) 0.468243(12) 0.0146 Uani
O1 O 0.2086(3) 0.8828(3) 0.54982(14) 0.0179 Uani
O2 O 0.1651(4) 1.0875(3) 0.52312(15) 0.0185 Uani
C1 C 0.1737(5) 0.9954(4) 0.5665(2) 0.0139 Uani
C2 C 0.1463(5) 1.0235(4) 0.6470(2) 0.0158 Uani
N1 N 0.0865(5) 1.1385(3) 0.66586(18) 0.0211 Uani
C3 C 0.1241(5) 1.0799(4) 0.7923(2) 0.0169 Uani
C4 C 0.0775(6) 1.1636(4) 0.7377(2) 0.0212 Uani
C5 C 0.1899(6) 0.9320(4) 0.6978(2) 0.0240 Uani
C6 C 0.1800(6) 0.9600(4) 0.7719(2) 0.0243 Uani
O3 O 0.1582(4) 1.2245(3) 0.89116(15) 0.0233 Uani
C7 C 0.1083(5) 1.1157(4) 0.8718(2) 0.0168 Uani
O4 O 0.0425(4) 1.0349(3) 0.91372(15) 0.0210 Uani
H1 H 0.205(5) 0.898(4) 0.808(2) 0.0130 Uiso
H2 H 0.044(6) 1.240(5) 0.751(3) 0.0260 Uiso
H3 H 0.222(5) 0.858(4) 0.682(2) 0.0110 Uiso
Ba1A Ba 0.54130(3) 0.79502(2) 0.531757(12) 0.0146 Uani
Ba1D Ba -0.04130(3) 1.29502(2) 0.531757(12) 0.0146 Uani
Ba1E Ba 0.45870(3) 1.20498(2) 0.468243(12) 0.0146 Uani
Ba1B Ba -0.04130(3) 1.20498(2) 1.031757(12) 0.0146 Uani
Ba1C Ba 0.45870(3) 1.29502(2) 0.968243(12) 0.0146 Uani
Ba1F Ba 0.04130(3) 0.79502(2) 0.968243(12) 0.0146 Uani
O1A O -0.2914(3) 0.6172(3) 0.45018(14) 0.0179 Uani
O2D O -0.1651(4) 0.9125(3) 0.47688(15) 0.0185 Uani
O2E O 0.3349(4) 0.5875(3) 0.52312(15) 0.0185 Uani
N1D N -0.0865(5) 0.8615(3) 0.33414(18) 0.0211 Uani
O3B O -0.1582(4) 0.7245(3) 0.60884(15) 0.0233 Uani
O3C O 0.3418(4) 0.7755(3) 0.39116(15) 0.0233 Uani
O4F O 0.0425(4) 0.4651(3) 0.41372(15) 0.0210 Uani
O4B O -0.0425(4) 0.5349(3) 0.58628(15) 0.0210 Uani
loop_
_atom_site_aniso_label
_atom_site_aniso_U_11
_atom_site_aniso_U_22
_atom_site_aniso_U_33
_atom_site_aniso_U_23
_atom_site_aniso_U_13
_atom_site_aniso_U_12
Ba1 0.01549(11) 0.01216(12) 0.01620(12) -0.00118(9) 0.00031(9) -0.00027(8)
O1 0.0203(14) 0.0147(14) 0.0188(13) -0.0038(11) 0.0007(11) 0.0005(11)
O2 0.0221(14) 0.0163(14) 0.0171(13) 0.0025(11) 0.0009(11) 0.0019(11)
C1 0.0126(17) 0.0125(18) 0.0166(18) -0.0022(14) -0.0015(14) -0.0003(14)
C2 0.0164(18) 0.0159(19) 0.0150(18) -0.0010(14) 0.0016(15) -0.0005(15)
N1 0.0301(19) 0.0148(17) 0.0184(17) 0.0004(13) 0.0049(15) 0.0059(14)
C3 0.0181(19) 0.0174(19) 0.0152(18) 0.0021(15) 0.0020(15) -0.0042(16)
C4 0.031(2) 0.0125(19) 0.020(2) -0.0010(15) 0.0041(17) 0.0032(17)
C5 0.036(3) 0.016(2) 0.020(2) 0.0002(16) 0.0056(18) 0.0037(18)
C6 0.036(2) 0.019(2) 0.018(2) 0.0043(16) 0.0007(18) 0.0034(19)
O3 0.0314(16) 0.0189(15) 0.0195(14) -0.0038(12) -0.0023(12) -0.0063(12)
C7 0.0159(18) 0.019(2) 0.0155(18) 0.0002(15) 0.0003(15) 0.0010(16)
O4 0.0266(15) 0.0190(15) 0.0173(13) 0.0027(11) 0.0030(12) -0.0032(12)
Ba1A 0.01549 0.01216 0.0162 -0.00118 -0.00031 0.00027
Ba1D 0.01549 0.01216 0.0162 -0.00118 0.00031 -0.00027
Ba1E 0.01549 0.01216 0.0162 -0.00118 -0.00031 0.00027
Ba1B 0.01549 0.01216 0.0162 0.00118 0.00031 0.00027
Ba1C 0.01549 0.01216 0.0162 0.00118 -0.00031 -0.00027
Ba1F 0.01549 0.01216 0.0162 0.00118 0.00031 0.00027
O1A 0.0203 0.0147 0.0188 -0.0038 -0.0007 -0.0005
O2D 0.0221 0.0163 0.0171 0.0025 0.0009 0.0019
O2E 0.0221 0.0163 0.0171 0.0025 -0.0009 -0.0019
N1D 0.0301 0.0148 0.0184 0.0004 0.0049 0.0059
O3B 0.0314 0.0189 0.0195 0.0038 -0.0023 0.0063
O3C 0.0314 0.0189 0.0195 0.0038 0.0023 -0.0063
O4F 0.0266 0.019 0.0173 -0.0027 0.003 0.0032
O4B 0.0266 0.019 0.0173 -0.0027 0.003 0.0032
loop_
_geom_bond_atom_site_label_1
_geom_bond_atom_site_label_2
_geom_bond_site_symmetry_1
_geom_bond_site_symmetry_2
Ba1 O1 1_555 1_555
O1 C1 1_555 1_555
O2 C1 1_555 1_555
C1 C2 1_555 1_555
C2 N1 1_555 1_555
N1 C4 1_555 1_555
C3 C4 1_555 1_555
C4 H2 1_555 1_555
C5 C2 1_555 1_555
C6 C3 1_555 1_555
O3 C7 1_555 1_555
C7 C3 1_555 1_555
O4 C7 1_555 1_555
H1 C6 1_555 1_555
H3 C5 1_555 1_555
Ba1A O1 1_555 1_555
Ba1D O2 1_555 1_555
Ba1E O2 1_555 1_555
Ba1B O3 1_555 1_555
Ba1C O3 1_555 1_555
Ba1F O4 1_555 1_555
O1A Ba1 1_555 1_555
O2D Ba1 1_555 1_555
O2E Ba1 1_555 1_555
N1D Ba1 1_555 1_555
O3B Ba1 1_555 1_555
O3C Ba1 1_555 1_555
O4F Ba1 1_555 1_555
O4B Ba1 1_555 1_555
N1 Ba1D 1_555 1_555
C5 C6 1_555 1_555
O4 Ba1B 1_555 1_555
Ba1A O2E 1_555 1_555
Ba1A O3C 1_555 1_555

#END
