
#######################################################################
#
#                 Cambridge Crystallographic Data Centre
#                                CCDC 
#
#######################################################################
#
# If this CIF has been generated from an entry in the Cambridge 
# Structural Database, then it will include bibliographic, chemical, 
# crystal, experimental, refinement or atomic coordinate data resulting 
# from the CCDC's data processing and validation procedures.
#
#######################################################################

data_CUQDUP
_chemical_formula_moiety         '(C28 H18 N4 O12 Zn2)n'
_chemical_name_systematic        
"catena-[bis(\m~3~-5-nitroisophthalato)-(\m~2~-2,2'-dimethyl-4,4'-bipyridine)-di-zinc unknown solvate]"
_symmetry_cell_setting           monoclinic
_symmetry_space_group_name_H-M   'C 2/c'
_symmetry_Int_Tables_number      15
_space_group_name_Hall           '-C 2yc'
loop_
_symmetry_equiv_pos_site_id
_symmetry_equiv_pos_as_xyz
1 x,y,z
2 -x,y,1/2-z
3 1/2+x,1/2+y,z
4 1/2-x,1/2+y,1/2-z
5 -x,-y,-z
6 x,-y,1/2+z
7 1/2-x,1/2-y,-z
8 1/2+x,1/2-y,1/2+z
_cell_length_a                   18.203(5)
_cell_length_b                   29.089(8)
_cell_length_c                   7.637(2)
_cell_angle_alpha                90
_cell_angle_beta                 103.008(6)
_cell_angle_gamma                90
_cell_volume                     3940.07
_exptl_crystal_colour            colorless
_exptl_crystal_description       block
_cell_formula_units_Z            4
_exptl_crystal_recrystallization_method 'hydrothermal synthesis'
_exptl_crystal_preparation       
'drug delivery and highly selective CO2 adsorption'
loop_
_atom_site_label
_atom_site_type_symbol
_atom_site_fract_x
_atom_site_fract_y
_atom_site_fract_z
_atom_site_U_iso_or_equiv
_atom_site_thermal_displace_type
C1 C 0.26217(14) 0.19511(8) 0.3986(3) 0.0286 Uani
C2 C 0.31124(13) 0.22615(8) 0.3430(3) 0.0267 Uani
H1 H 0.3001 0.2372 0.2257 0.0320 Uiso
C3 C 0.37658(13) 0.24049(8) 0.4629(3) 0.0244 Uani
C4 C 0.39287(13) 0.22393(8) 0.6379(3) 0.0290 Uani
H2 H 0.4365 0.2331 0.7192 0.0350 Uiso
C5 C 0.34337(15) 0.19374(9) 0.6889(3) 0.0346 Uani
C6 C 0.27864(15) 0.17898(9) 0.5719(3) 0.0345 Uani
H3 H 0.2465 0.1583 0.6099 0.0410 Uiso
C7 C 0.18961(14) 0.18067(9) 0.2744(3) 0.0325 Uani
C8 C 0.42854(13) 0.27451(7) 0.4070(3) 0.0246 Uani
C9 C 0.09624(14) 0.08311(8) -0.0628(3) 0.0307 Uani
C10 C 0.07768(14) 0.03738(8) -0.0480(3) 0.0325 Uani
H4 H 0.1111 0.0147 -0.0669 0.0390 Uiso
C11 C 0.01059(14) 0.02470(7) -0.0057(3) 0.0265 Uani
C12 C -0.03588(15) 0.05984(8) 0.0268(3) 0.0331 Uani
H5 H -0.0811 0.0531 0.0586 0.0400 Uiso
C13 C -0.01471(14) 0.10487(8) 0.0116(3) 0.0306 Uani
H6 H -0.0467 0.1281 0.0331 0.0370 Uiso
C14 C 0.16846(16) 0.09680(9) -0.1101(5) 0.0497 Uani
H7 H 0.1590 0.1213 -0.1964 0.0740 Uiso
H8 H 0.1891 0.0709 -0.1605 0.0740 Uiso
H9 H 0.2036 0.1070 -0.0039 0.0740 Uiso
N1 N 0.35880(16) 0.17853(10) 0.8774(3) 0.0604 Uani
N2 N 0.04992(11) 0.11668(6) -0.0327(2) 0.0256 Uani
O1 O 0.15138(12) 0.15004(8) 0.3214(3) 0.0615 Uani
O2 O 0.17138(10) 0.20196(6) 0.1245(2) 0.0359 Uani
O3 O 0.40534(10) 0.29531(6) 0.2622(2) 0.0379 Uani
O4 O 0.49143(9) 0.28103(5) 0.5136(2) 0.0318 Uani
O5 O 0.4187(9) 0.1880(7) 0.9714(18) 0.1058 Uani
O6 O 0.3202(7) 0.1470(8) 0.9176(15) 0.1028 Uani
Zn1 Zn 0.076719(14) 0.184118(8) -0.03046(3) 0.0228 Uani
C9D C -0.09624(14) -0.08311(8) 0.0628(3) 0.0307 Uani
C10D C -0.07768(14) -0.03738(8) 0.0480(3) 0.0325 Uani
H4D H -0.1111 -0.0147 0.0669 0.0390 Uiso
C11D C -0.01059(14) -0.02470(7) 0.0057(3) 0.0265 Uani
C12D C 0.03588(15) -0.05984(8) -0.0268(3) 0.0331 Uani
H5D H 0.0811 -0.0531 -0.0586 0.0400 Uiso
C13D C 0.01471(14) -0.10487(8) -0.0116(3) 0.0306 Uani
H6D H 0.0467 -0.1281 -0.0331 0.0370 Uiso
C14D C -0.16846(16) -0.09680(9) 0.1101(5) 0.0497 Uani
H7D H -0.1590 -0.1213 0.1964 0.0740 Uiso
H8D H -0.1891 -0.0709 0.1605 0.0740 Uiso
H9D H -0.2036 -0.1070 0.0039 0.0740 Uiso
N2D N -0.04992(11) -0.11668(6) 0.0327(2) 0.0256 Uani
C1D C -0.26217(14) -0.19511(8) -0.3986(3) 0.0286 Uani
C2D C -0.31124(13) -0.22615(8) -0.3430(3) 0.0267 Uani
H1D H -0.3001 -0.2372 -0.2257 0.0320 Uiso
C3D C -0.37658(13) -0.24049(8) -0.4629(3) 0.0244 Uani
C4D C -0.39287(13) -0.22393(8) -0.6379(3) 0.0290 Uani
H2D H -0.4365 -0.2331 -0.7192 0.0350 Uiso
C5D C -0.34337(15) -0.19374(9) -0.6889(3) 0.0346 Uani
C6D C -0.27864(15) -0.17898(9) -0.5719(3) 0.0345 Uani
H3D H -0.2465 -0.1583 -0.6099 0.0410 Uiso
C7D C -0.18961(14) -0.18067(9) -0.2744(3) 0.0325 Uani
C8D C -0.42854(13) -0.27451(7) -0.4070(3) 0.0246 Uani
N1D N -0.35880(16) -0.17853(10) -0.8774(3) 0.0604 Uani
O1D O -0.15138(12) -0.15004(8) -0.3214(3) 0.0615 Uani
O2D O -0.17138(10) -0.20196(6) -0.1245(2) 0.0359 Uani
O3D O -0.40534(10) -0.29531(6) -0.2622(2) 0.0379 Uani
O4D O -0.49143(9) -0.28103(5) -0.5136(2) 0.0318 Uani
O5D O -0.4187(9) -0.1880(7) -0.9714(18) 0.1058 Uani
O6D O -0.3202(7) -0.1470(8) -0.9176(15) 0.1028 Uani
Zn1D Zn -0.076719(14) -0.184118(8) 0.03046(3) 0.0228 Uani
O3B O -0.09466(10) -0.20469(6) 0.2622(2) 0.0379 Uani
O3F O 0.09466(10) 0.20469(6) -0.2622(2) 0.0379 Uani
O4C O 0.00857(9) -0.21897(5) -0.0136(2) 0.0318 Uani
O4G O -0.00857(9) 0.21897(5) 0.0136(2) 0.0318 Uani
Zn1B Zn -0.423281(14) -0.315882(8) -0.03046(3) 0.0228 Uani
Zn1C Zn -0.576719(14) -0.315882(8) -0.46954(3) 0.0228 Uani
Zn1F Zn 0.423281(14) 0.315882(8) 0.03046(3) 0.0228 Uani
Zn1G Zn 0.576719(14) 0.315882(8) 0.46954(3) 0.0228 Uani
O7? O 0.4061(19) 0.1994(9) 0.991(4) 0.0494 Uani
O8? O 0.3050(11) 0.1687(9) 0.930(2) 0.0508 Uani
loop_
_atom_site_aniso_label
_atom_site_aniso_U_11
_atom_site_aniso_U_22
_atom_site_aniso_U_33
_atom_site_aniso_U_23
_atom_site_aniso_U_13
_atom_site_aniso_U_12
C1 0.0227(12) 0.0356(12) 0.0243(12) -0.0040(9) -0.0014(9) -0.0006(10)
C2 0.0233(12) 0.0322(12) 0.0227(11) 0.0023(9) 0.0013(9) 0.0003(10)
C3 0.0182(11) 0.0292(11) 0.0247(11) 0.0013(9) 0.0026(9) -0.0008(9)
C4 0.0196(11) 0.0371(13) 0.0264(12) 0.0023(10) -0.0032(9) -0.0037(10)
C5 0.0294(13) 0.0464(15) 0.0243(12) 0.0099(10) -0.0015(10) -0.0082(11)
C6 0.0282(13) 0.0425(14) 0.0323(13) 0.0065(11) 0.0056(10) -0.0113(11)
C7 0.0223(12) 0.0465(14) 0.0271(12) -0.0074(11) 0.0020(10) -0.0051(12)
C8 0.0203(11) 0.0272(11) 0.0260(11) 0.0006(9) 0.0045(9) 0.0018(9)
C9 0.0273(13) 0.0269(12) 0.0374(14) 0.0004(10) 0.0063(10) -0.0026(10)
C10 0.0284(13) 0.0243(11) 0.0458(15) -0.0016(10) 0.0107(11) 0.0011(10)
C11 0.0296(13) 0.0253(11) 0.0231(11) 0.0015(9) 0.0027(10) -0.0039(10)
C12 0.0337(14) 0.0295(12) 0.0390(14) 0.0023(10) 0.0143(11) -0.0043(11)
C13 0.0291(13) 0.0251(11) 0.0385(14) 0.0005(10) 0.0096(11) 0.0017(10)
C14 0.0368(16) 0.0330(14) 0.085(2) 0.0016(14) 0.0256(16) -0.0045(13)
N1 0.0485(16) 0.090(2) 0.0359(14) 0.0259(14) -0.0050(12) -0.0295(16)
N2 0.0260(10) 0.0251(9) 0.0236(10) 0.0025(7) 0.0012(8) -0.0023(8)
O1 0.0446(13) 0.0924(17) 0.0415(12) 0.0063(11) -0.0028(10) -0.0386(13)
O2 0.0252(9) 0.0417(9) 0.0336(10) -0.0006(8) -0.0085(7) -0.0038(8)
O3 0.0330(10) 0.0499(10) 0.0290(9) 0.0163(8) 0.0034(8) -0.0018(9)
O4 0.0219(8) 0.0377(9) 0.0326(9) 0.0063(7) -0.0008(7) -0.0064(7)
O5 0.084(7) 0.166(10) 0.044(5) 0.054(5) -0.035(4) -0.068(6)
O6 0.082(5) 0.141(10) 0.066(4) 0.063(5) -0.024(3) -0.065(6)
Zn1 0.01723(13) 0.02387(13) 0.02514(14) 0.00189(11) 0.00015(9) -0.00150(11)
C9D 0.0273 0.0269 0.0374 0.0004 0.0063 -0.0026
C10D 0.0284 0.0243 0.0458 -0.0016 0.0107 0.0011
C11D 0.0296 0.0253 0.0231 0.0015 0.0027 -0.0039
C12D 0.0337 0.0295 0.039 0.0023 0.0143 -0.0043
C13D 0.0291 0.0251 0.0385 0.0005 0.0096 0.0017
C14D 0.0368 0.033 0.085 0.0016 0.0256 -0.0045
N2D 0.026 0.0251 0.0236 0.0025 0.0012 -0.0023
C1D 0.0227 0.0356 0.0243 -0.004 -0.0014 -0.0006
C2D 0.0233 0.0322 0.0227 0.0023 0.0013 0.0003
C3D 0.0182 0.0292 0.0247 0.0013 0.0026 -0.0008
C4D 0.0196 0.0371 0.0264 0.0023 -0.0032 -0.0037
C5D 0.0294 0.0464 0.0243 0.0099 -0.0015 -0.0082
C6D 0.0282 0.0425 0.0323 0.0065 0.0056 -0.0113
C7D 0.0223 0.0465 0.0271 -0.0074 0.002 -0.0051
C8D 0.0203 0.0272 0.026 0.0006 0.0045 0.0018
N1D 0.0485 0.09 0.0359 0.0259 -0.005 -0.0295
O1D 0.0446 0.0924 0.0415 0.0063 -0.0028 -0.0386
O2D 0.0252 0.0417 0.0336 -0.0006 -0.0085 -0.0038
O3D 0.033 0.0499 0.029 0.0163 0.0034 -0.0018
O4D 0.0219 0.0377 0.0326 0.0063 -0.0008 -0.0064
O5D 0.084 0.166 0.044 0.054 -0.035 -0.068
O6D 0.082 0.141 0.066 0.063 -0.024 -0.065
Zn1D 0.01723 0.02387 0.02514 0.00189 0.00015 -0.0015
O3B 0.033 0.0499 0.029 0.0163 0.0034 -0.0018
O3F 0.033 0.0499 0.029 0.0163 0.0034 -0.0018
O4C 0.0219 0.0377 0.0326 -0.0063 -0.0008 0.0064
O4G 0.0219 0.0377 0.0326 -0.0063 -0.0008 0.0064
Zn1B 0.01723 0.02387 0.02514 0.00189 0.00015 -0.0015
Zn1C 0.01723 0.02387 0.02514 -0.00189 0.00015 0.0015
Zn1F 0.01723 0.02387 0.02514 0.00189 0.00015 -0.0015
Zn1G 0.01723 0.02387 0.02514 -0.00189 0.00015 0.0015
O7? 0.055(8) 0.062(8) 0.025(6) -0.003(5) -0.004(5) -0.023(5)
O8? 0.053(7) 0.070(9) 0.031(6) 0.014(5) 0.013(4) -0.028(6)
loop_
_geom_bond_atom_site_label_1
_geom_bond_atom_site_label_2
_geom_bond_site_symmetry_1
_geom_bond_site_symmetry_2
C1 C2 1_555 1_555
C2 H1 1_555 1_555
C3 C2 1_555 1_555
C4 C3 1_555 1_555
H2 C4 1_555 1_555
C5 C4 1_555 1_555
C6 C1 1_555 1_555
H3 C6 1_555 1_555
C7 C1 1_555 1_555
C8 C3 1_555 1_555
C9 C10 1_555 1_555
C10 H4 1_555 1_555
C11 C10 1_555 1_555
C12 C11 1_555 1_555
H5 C12 1_555 1_555
C13 C12 1_555 1_555
H6 C13 1_555 1_555
C14 C9 1_555 1_555
H7 C14 1_555 1_555
H8 C14 1_555 1_555
H9 C14 1_555 1_555
N1 C5 1_555 1_555
N2 C9 1_555 1_555
O1 C7 1_555 1_555
O2 C7 1_555 1_555
O3 C8 1_555 1_555
O4 C8 1_555 1_555
O5 N1 1_555 1_555
O6 N1 1_555 1_555
Zn1 N2 1_555 1_555
C9D C10D 1_555 1_555
C10D H4D 1_555 1_555
C11D C11 1_555 1_555
C12D C11D 1_555 1_555
H5D C12D 1_555 1_555
C13D C12D 1_555 1_555
H6D C13D 1_555 1_555
C14D C9D 1_555 1_555
H7D C14D 1_555 1_555
H8D C14D 1_555 1_555
H9D C14D 1_555 1_555
N2D C9D 1_555 1_555
C1D C2D 1_555 1_555
C2D H1D 1_555 1_555
C3D C2D 1_555 1_555
C4D C3D 1_555 1_555
H2D C4D 1_555 1_555
C5D C4D 1_555 1_555
C6D C1D 1_555 1_555
H3D C6D 1_555 1_555
C7D C1D 1_555 1_555
C8D C3D 1_555 1_555
N1D C5D 1_555 1_555
O1D C7D 1_555 1_555
O2D C7D 1_555 1_555
O3D C8D 1_555 1_555
O4D C8D 1_555 1_555
O5D N1D 1_555 1_555
O6D N1D 1_555 1_555
Zn1D N2D 1_555 1_555
O3B Zn1D 1_555 1_555
O3F Zn1 1_555 1_555
O4C Zn1D 1_555 1_555
O4G Zn1 1_555 1_555
Zn1B O3D 1_555 1_555
Zn1C O4D 1_555 1_555
Zn1F O3 1_555 1_555
Zn1G O4 1_555 1_555
C5 C6 1_555 1_555
C13 N2 1_555 1_555
O2 Zn1 1_555 1_555
C10D C11D 1_555 1_555
C13D N2D 1_555 1_555
C5D C6D 1_555 1_555
O2D Zn1D 1_555 1_555

#END
