
#######################################################################
#
#                 Cambridge Crystallographic Data Centre
#                                CCDC 
#
#######################################################################
#
# If this CIF has been generated from an entry in the Cambridge 
# Structural Database, then it will include bibliographic, chemical, 
# crystal, experimental, refinement or atomic coordinate data resulting 
# from the CCDC's data processing and validation procedures.
#
#######################################################################

data_TEMPEI
_chemical_formula_moiety         '(C63 H69 Cu3 N3 O15)n,10.5n(C3 H7 N1 O1)'
_chemical_name_systematic        
"catena-(tris(\m~4~-2,2',6,6'-tetramethylbiphenyl-4,4'-dicarboxylato)-tris(N,N-dimethylformamide)-tri-copper(ii) N,N-dimethylformamide solvate)"
_symmetry_cell_setting           monoclinic
_symmetry_space_group_name_H-M   'C 2/c'
_symmetry_Int_Tables_number      15
_space_group_name_Hall           '-C 2yc'
loop_
_symmetry_equiv_pos_site_id
_symmetry_equiv_pos_as_xyz
1 x,y,z
2 -x,y,1/2-z
3 1/2+x,1/2+y,z
4 1/2-x,1/2+y,1/2-z
5 -x,-y,-z
6 x,-y,1/2+z
7 1/2-x,1/2-y,-z
8 1/2+x,1/2-y,1/2+z
_cell_length_a                   22.5641(9)
_cell_length_b                   37.1408(15)
_cell_length_c                   30.0021(11)
_cell_angle_alpha                90
_cell_angle_beta                 105.6860(10)
_cell_angle_gamma                90
_cell_volume                     24206.8
_exptl_crystal_colour            blue
_exptl_crystal_description       'rhombic prism'
_cell_formula_units_Z            8
loop_
_atom_site_label
_atom_site_type_symbol
_atom_site_fract_x
_atom_site_fract_y
_atom_site_fract_z
_atom_site_U_iso_or_equiv
_atom_site_thermal_displace_type
C1 C 0.3308(7) 0.0407(4) 0.2925(5) 0.0390 Uani
C2 C 0.3835(6) 0.0647(4) 0.3125(5) 0.0451 Uani
C3 C 0.3780(7) 0.1018(4) 0.3055(6) 0.0591 Uani
H1 H 0.3414 0.1117 0.2857 0.0710 Uiso
C4 C 0.4267(8) 0.1243(4) 0.3277(7) 0.0674 Uani
C5 C 0.4801(7) 0.1106(4) 0.3560(6) 0.0571 Uani
C6 C 0.4873(8) 0.0726(5) 0.3617(6) 0.0703 Uani
C7 C 0.4375(7) 0.0504(4) 0.3390(6) 0.0575 Uani
H2 H 0.4415 0.0250 0.3422 0.0690 Uiso
C8 C 0.4201(10) 0.1648(5) 0.3199(9) 0.1033 Uani
H3 H 0.3829 0.1698 0.2949 0.1550 Uiso
H4 H 0.4561 0.1741 0.3113 0.1550 Uiso
H5 H 0.4169 0.1766 0.3484 0.1550 Uiso
C9 C 0.5456(10) 0.0578(6) 0.3886(9) 0.1288 Uani
H6 H 0.5552 0.0361 0.3734 0.1930 Uiso
H7 H 0.5428 0.0518 0.4198 0.1930 Uiso
H8 H 0.5782 0.0757 0.3908 0.1930 Uiso
C10 C 0.6718(7) 0.2047(4) 0.4572(5) 0.0464 Uani
C11 C 0.6234(7) 0.1788(4) 0.4314(5) 0.0470 Uani
C12 C 0.5788(8) 0.1672(5) 0.4501(6) 0.0730 Uani
H9 H 0.5803 0.1738 0.4810 0.0870 Uiso
C13 C 0.5299(9) 0.1457(5) 0.4248(7) 0.0798 Uani
C14 C 0.5303(8) 0.1343(5) 0.3821(6) 0.0612 Uani
C15 C 0.5772(8) 0.1456(5) 0.3614(6) 0.0730 Uani
C16 C 0.6214(7) 0.1678(5) 0.3876(6) 0.0616 Uani
H10 H 0.6527 0.1761 0.3744 0.0740 Uiso
C17 C 0.4840(13) 0.1308(8) 0.4462(10) 0.1659 Uani
H11 H 0.4711 0.1069 0.4332 0.2520 Uiso
H12 H 0.5020 0.1287 0.4797 0.2520 Uiso
H13 H 0.4482 0.1468 0.4401 0.2520 Uiso
C18 C 0.5768(10) 0.1332(7) 0.3141(7) 0.1100 Uani
H14 H 0.6179 0.1363 0.3096 0.1650 Uiso
H15 H 0.5653 0.1077 0.3107 0.1650 Uiso
H16 H 0.5469 0.1474 0.2910 0.1650 Uiso
C19 C 0.1455(7) -0.0393(4) 0.2314(4) 0.0371 Uani
C20 C 0.0915(6) -0.0625(4) 0.2096(4) 0.0363 Uani
C21 C 0.1023(6) -0.0982(4) 0.1981(5) 0.0387 Uani
H17 H 0.1429 -0.1077 0.2065 0.0470 Uiso
C22 C 0.0532(6) -0.1195(4) 0.1743(5) 0.0407 Uani
C23 C -0.0051(7) -0.1051(4) 0.1611(5) 0.0450 Uani
C24 C -0.0176(7) -0.0694(4) 0.1736(5) 0.0458 Uani
C25 C 0.0321(6) -0.0494(4) 0.1978(5) 0.0449 Uani
H18 H 0.0252 -0.0256 0.2067 0.0540 Uiso
C26 C 0.0663(8) -0.1581(4) 0.1620(7) 0.0659 Uani
H19 H 0.1062 -0.1659 0.1819 0.0990 Uiso
H20 H 0.0671 -0.1592 0.1295 0.0990 Uiso
H21 H 0.0339 -0.1741 0.1666 0.0990 Uiso
C27 C -0.0818(7) -0.0550(5) 0.1609(7) 0.0734 Uani
H22 H -0.0827 -0.0321 0.1768 0.1100 Uiso
H23 H -0.1090 -0.0723 0.1702 0.1100 Uiso
H24 H -0.0958 -0.0513 0.1274 0.1100 Uiso
C28 C -0.1863(7) -0.2009(3) 0.0466(5) 0.0430 Uani
C29 C -0.1418(6) -0.1738(3) 0.0757(5) 0.0418 Uani
C30 C -0.1340(7) -0.1731(4) 0.1232(5) 0.0490 Uani
H25 H -0.1584 -0.1883 0.1365 0.0590 Uiso
C31 C -0.0908(7) -0.1503(4) 0.1517(5) 0.0481 Uani
C32 C -0.0567(7) -0.1277(4) 0.1306(5) 0.0463 Uani
C33 C -0.0658(7) -0.1276(4) 0.0834(5) 0.0450 Uani
C34 C -0.1074(6) -0.1514(4) 0.0563(5) 0.0438 Uani
H26 H -0.1121 -0.1523 0.0239 0.0530 Uiso
C35 C -0.0825(9) -0.1513(5) 0.2040(6) 0.0814 Uani
H27 H -0.0745 -0.1269 0.2167 0.1220 Uiso
H28 H -0.0476 -0.1670 0.2185 0.1220 Uiso
H29 H -0.1200 -0.1608 0.2102 0.1220 Uiso
C36 C -0.0275(8) -0.1034(5) 0.0607(6) 0.0676 Uani
H30 H -0.0224 -0.0797 0.0757 0.1020 Uiso
H31 H -0.0487 -0.1006 0.0277 0.1020 Uiso
H32 H 0.0129 -0.1144 0.0640 0.1020 Uiso
C37 C 0.2463(7) -0.0088(4) 0.6812(5) 0.0424 Uani
C38 C 0.2477(7) -0.0123(4) 0.6320(5) 0.0440 Uani
C39 C 0.2013(7) -0.0306(4) 0.6002(4) 0.0476 Uani
H33 H 0.1698 -0.0423 0.6104 0.0570 Uiso
C40 C 0.2002(8) -0.0322(5) 0.5547(5) 0.0589 Uani
C41 C 0.2466(8) -0.0151(5) 0.5391(5) 0.0543 Uani
C42 C 0.2945(8) 0.0010(5) 0.5705(5) 0.0656 Uani
C43 C 0.2961(8) 0.0021(5) 0.6173(5) 0.0538 Uani
H34 H 0.3302 0.0127 0.6391 0.0640 Uiso
C44 C 0.1479(9) -0.0514(6) 0.5206(5) 0.0751 Uani
H35 H 0.1161 -0.0578 0.5359 0.1120 Uiso
H36 H 0.1302 -0.0356 0.4943 0.1120 Uiso
H37 H 0.1636 -0.0733 0.5096 0.1120 Uiso
C45 C 0.3486(9) 0.0171(7) 0.5556(6) 0.0920 Uani
H38 H 0.3488 0.0074 0.5253 0.1350 Uiso
H39 H 0.3443 0.0433 0.5537 0.1350 Uiso
H40 H 0.3872 0.0108 0.5784 0.1350 Uiso
C46 C 0.2350(7) -0.0078(4) 0.3449(4) 0.0402 Uani
C47 C 0.2356(7) -0.0115(4) 0.3951(4) 0.0414 Uani
C48 C 0.2105(7) 0.0161(4) 0.4147(5) 0.0502 Uani
H41 H 0.1908 0.0358 0.3964 0.0600 Uiso
C49 C 0.2144(8) 0.0146(5) 0.4628(5) 0.0588 Uani
C50 C 0.2433(8) -0.0147(5) 0.4891(5) 0.0582 Uani
C51 C 0.2678(8) -0.0421(5) 0.4678(5) 0.0648 Uani
C52 C 0.2627(8) -0.0407(5) 0.4206(5) 0.0653 Uani
H42 H 0.2779 -0.0599 0.4060 0.0790 Uiso
C53 C 0.1891(10) 0.0452(5) 0.4849(6) 0.0814 Uani
H43 H 0.2170 0.0503 0.5155 0.1230 Uiso
H44 H 0.1485 0.0386 0.4884 0.1230 Uiso
H45 H 0.1853 0.0667 0.4654 0.1230 Uiso
C54 C 0.2970(13) -0.0755(7) 0.4954(7) 0.1305 Uani
H46 H 0.3251 -0.0870 0.4798 0.1950 Uiso
H47 H 0.2646 -0.0925 0.4973 0.1950 Uiso
H48 H 0.3200 -0.0682 0.5267 0.1950 Uiso
C55 C 0.3428(12) -0.0808(7) 0.2566(10) 0.1000 Uiso
C56 C 0.4008(11) -0.1374(7) 0.2903(8) 0.1000 Uiso
C57 C 0.4292(11) -0.1119(6) 0.2114(8) 0.1000 Uiso
C58 C 0.1552(12) 0.0934(7) 0.2699(9) 0.1000 Uiso
C59 C 0.1744(11) 0.1637(7) 0.2810(8) 0.1000 Uiso
C60 C 0.0928(11) 0.1358(7) 0.2230(9) 0.1000 Uiso
C61 C 0.8668(13) 0.2532(7) 0.4198(9) 0.1000 Uiso
C62 C 0.9542(11) 0.2928(6) 0.3955(8) 0.1000 Uiso
C63 C 0.8779(11) 0.2277(7) 0.3410(8) 0.1000 Uiso
N1 N 0.3949(9) -0.1141(5) 0.2541(7) 0.1000 Uiso
N2 N 0.1392(9) 0.1365(5) 0.2628(7) 0.1000 Uiso
N3 N 0.9049(9) 0.2534(5) 0.3828(7) 0.1000 Uiso
O1 O 0.3406(4) 0.0073(3) 0.2957(3) 0.0411 Uani
O2 O 0.2784(4) 0.0549(3) 0.2743(3) 0.0418 Uani
O3 O 0.1981(4) -0.0527(2) 0.2385(3) 0.0352 Uani
O4 O 0.1335(4) -0.0070(2) 0.2411(3) 0.0372 Uani
O5 O 0.2821(4) 0.0135(3) 0.7059(3) 0.0415 Uani
O6 O 0.2063(4) -0.0269(3) 0.6933(3) 0.0411 Uani
O7 O 0.2600(4) -0.0332(2) 0.3279(3) 0.0394 Uani
O8 O 0.2097(5) 0.0195(3) 0.3233(3) 0.0394 Uani
O9 O -0.1761(4) -0.2085(2) 0.0076(3) 0.0444 Uani
O10 O -0.2244(4) -0.2151(3) 0.0640(3) 0.0479 Uani
O11 O 0.7151(4) 0.2124(3) 0.4387(4) 0.0488 Uani
O12 O 0.6661(4) 0.2176(2) 0.4945(3) 0.0445 Uani
O13 O 0.3331(6) -0.0727(3) 0.2754(4) 0.0627 Uani
O14 O 0.1473(6) 0.0750(3) 0.2502(4) 0.0626 Uani
O15 O 0.8291(6) 0.2410(3) 0.4166(4) 0.0654 Uani
Cu1 Cu 0.27527(7) -0.02746(4) 0.26741(5) 0.0291 Uani
Cu2 Cu 0.20144(7) 0.02785(4) 0.25754(5) 0.0292 Uani
Cu3 Cu 0.77892(7) 0.24664(4) 0.46770(5) 0.0317 Uani
O5E O 0.2821(4) -0.0135(3) 0.2059(3) 0.0415 Uani
O6E O 0.2063(4) 0.0269(3) 0.1933(3) 0.0411 Uani
O9E O 0.8239(4) 0.2085(2) 0.5076(3) 0.0444 Uani
O10C O 0.7244(4) 0.2849(3) 0.4360(3) 0.0479 Uani
O12F O 0.8339(4) 0.2824(2) 0.5055(3) 0.0445 Uani
Cu1E Cu 0.27527(7) 0.02746(4) 0.76741(5) 0.0291 Uani
Cu2E Cu 0.20144(7) -0.02785(4) 0.75754(5) 0.0292 Uani
Cu3E Cu -0.22108(7) -0.24664(4) -0.03230(5) 0.0317 Uani
Cu3C Cu -0.27892(7) -0.25336(4) 0.03230(5) 0.0317 Uani
Cu3F Cu 0.72108(7) 0.25336(4) 0.53230(5) 0.0317 Uani
loop_
_atom_site_aniso_label
_atom_site_aniso_U_11
_atom_site_aniso_U_22
_atom_site_aniso_U_33
_atom_site_aniso_U_23
_atom_site_aniso_U_13
_atom_site_aniso_U_12
C1 0.052(9) 0.040(8) 0.027(7) -0.013(6) 0.014(7) -0.020(7)
C2 0.037(8) 0.044(8) 0.046(9) -0.013(7) -0.003(7) -0.016(6)
C3 0.047(9) 0.049(10) 0.066(11) -0.001(8) -0.011(8) -0.021(7)
C4 0.063(11) 0.040(9) 0.088(14) -0.016(9) 0.001(10) -0.021(8)
C5 0.043(9) 0.055(10) 0.062(11) -0.014(8) -0.005(8) -0.022(8)
C6 0.048(10) 0.069(12) 0.071(12) -0.007(9) -0.023(9) -0.028(9)
C7 0.053(10) 0.038(8) 0.064(11) -0.005(8) -0.014(8) -0.012(7)
C8 0.096(16) 0.054(12) 0.14(2) -0.010(13) -0.002(15) -0.036(11)
C9 0.085(16) 0.071(14) 0.17(3) -0.014(15) -0.069(17) -0.019(12)
C10 0.036 0.043 0.045 -0.011 -0.015 -0.001
C11 0.037 0.042 0.052 -0.009 -0.005 -0.008
C12 0.075 0.074 0.062 -0.02 0.005 -0.046
C13 0.078 0.081 0.077 -0.013 0.015 -0.053
C14 0.054 0.066 0.054 -0.023 -0.002 -0.022
C15 0.054 0.092 0.062 -0.024 -0.003 -0.035
C16 0.045 0.067 0.062 -0.019 -0.004 -0.027
C17 0.17 0.2 0.16 -0.09 0.1 -0.16
C18 0.083 0.17 0.074 -0.056 0.016 -0.065
C19 0.045(9) 0.046(8) 0.016(7) -0.005(6) 0.001(6) -0.021(7)
C20 0.037(8) 0.051(8) 0.021(7) -0.011(6) 0.008(6) -0.018(6)
C21 0.037(8) 0.037(8) 0.039(8) -0.008(6) 0.005(6) -0.008(6)
C22 0.040(8) 0.036(8) 0.041(8) -0.011(6) 0.002(7) -0.012(6)
C23 0.043(9) 0.043(8) 0.044(9) -0.014(7) 0.003(7) -0.025(7)
C24 0.039(8) 0.046(9) 0.051(9) -0.021(7) 0.010(7) -0.013(7)
C25 0.044(9) 0.043(8) 0.046(9) -0.016(7) 0.009(7) -0.006(7)
C26 0.060(11) 0.035(9) 0.087(13) -0.013(8) -0.007(10) -0.009(7)
C27 0.038(9) 0.069(12) 0.099(15) -0.041(11) -0.006(9) -0.011(8)
C28 0.048(9) 0.022(7) 0.041(9) 0.000(6) -0.019(7) -0.003(6)
C29 0.045(8) 0.029(7) 0.039(8) -0.003(6) -0.010(7) -0.009(6)
C30 0.043(9) 0.048(9) 0.052(10) -0.011(7) 0.006(7) -0.024(7)
C31 0.046(9) 0.049(9) 0.044(9) -0.015(7) 0.003(7) -0.018(7)
C32 0.041(8) 0.036(8) 0.050(10) -0.011(7) -0.008(7) -0.013(6)
C33 0.045(9) 0.039(8) 0.045(9) -0.009(7) 0.002(7) -0.014(6)
C34 0.045(8) 0.042(8) 0.039(8) -0.007(6) 0.002(7) -0.011(7)
C35 0.079(13) 0.100(15) 0.051(11) -0.009(10) -0.007(10) -0.053(12)
C36 0.074(12) 0.069(11) 0.051(10) -0.004(9) 0.002(9) -0.039(10)
C37 0.041 0.065 0.02 0.006 0.006 0.022
C38 0.05 0.063 0.02 0.005 0.011 0.011
C39 0.049 0.078 0.017 0 0.011 0.007
C40 0.062 0.094 0.018 -0.005 0.006 0.011
C41 0.065 0.084 0.014 0.002 0.011 0.016
C42 0.072 0.108 0.021 0.008 0.02 0.011
C43 0.058 0.086 0.019 -0.001 0.013 0.004
C44 0.089 0.107 0.024 -0.014 0.006 -0.012
C45 0.075 0.17 0.041 0.006 0.033 -0.006
C46 0.045 0.057 0.021 -0.01 0.013 -0.015
C47 0.057 0.056 0.011 -0.006 0.009 -0.009
C48 0.062 0.068 0.019 0.001 0.008 0.005
C49 0.071 0.09 0.02 -0.003 0.02 0.011
C50 0.063 0.091 0.021 0.01 0.012 0.022
C51 0.082 0.098 0.015 0.004 0.014 0.027
C52 0.076 0.1 0.02 0.006 0.013 0.035
C53 0.123 0.091 0.033 -0.008 0.026 0.024
C54 0.19 0.17 0.043 0.047 0.051 0.12
O1 0.034(5) 0.052(6) 0.032(5) -0.011(4) 0.000(4) -0.021(4)
O2 0.040(6) 0.045(6) 0.035(5) -0.003(4) 0.001(4) -0.018(5)
O3 0.036(5) 0.040(5) 0.027(5) -0.009(4) 0.004(4) -0.015(4)
O4 0.033(5) 0.047(6) 0.029(5) -0.017(4) 0.004(4) -0.015(4)
O5 0.042 0.064 0.018 0.001 0.007 0.009
O6 0.043 0.061 0.018 -0.003 0.006 0.011
O7 0.055 0.046 0.02 -0.002 0.015 -0.007
O8 0.056 0.048 0.015 -0.004 0.011 -0.005
O9 0.041(6) 0.038(5) 0.045(6) -0.007(5) -0.004(5) -0.017(4)
O10 0.040(6) 0.052(6) 0.045(6) -0.007(5) 0.000(5) -0.026(5)
O11 0.037 0.043 0.056 -0.018 -0.005 -0.01
O12 0.035 0.041 0.046 -0.006 -0.009 -0.013
O13 0.070(8) 0.076(8) 0.055(8) -0.018(6) 0.039(6) 0.011(6)
O14 0.087(9) 0.042(6) 0.059(8) -0.018(5) 0.020(7) -0.001(6)
O15 0.049 0.084 0.069 -0.006 0.026 -0.003
Cu1 0.0335(9) 0.0407(9) 0.0119(8) -0.0067(6) 0.0041(6) -0.0137(7)
Cu2 0.0343(9) 0.0385(9) 0.0134(8) -0.0064(6) 0.0038(6) -0.0145(7)
Cu3 0.0222 0.0281 0.0343 -0.0007 -0.0104 0.0011
O5E 0.042(6) 0.064(6) 0.018(5) -0.001(5) 0.007(4) -0.009(5)
O6E 0.043(6) 0.061(6) 0.018(5) 0.003(4) 0.006(4) -0.011(5)
O9E 0.041 0.038 0.045 0.007 -0.004 0.017
O10C 0.04 0.052 0.045 0.007 0 0.026
O12F 0.035 0.041 0.046 -0.006 -0.009 -0.013
Cu1E 0.0335 0.0407 0.0119 0.0067 0.0041 0.0137
Cu2E 0.0343 0.0385 0.0134 0.0064 0.0038 0.0145
Cu3E 0.0222(8) 0.0281(8) 0.0343(10) 0.0007(7) -0.0104(7) -0.0011(6)
Cu3C 0.0222 0.0281 0.0343 0.0007 -0.0104 -0.0011
Cu3F 0.0222 0.0281 0.0343 -0.0007 -0.0104 0.0011
loop_
_geom_bond_atom_site_label_1
_geom_bond_atom_site_label_2
_geom_bond_site_symmetry_1
_geom_bond_site_symmetry_2
C1 C2 1_555 1_555
C2 C3 1_555 1_555
C3 H1 1_555 1_555
C4 C3 1_555 1_555
C5 C4 1_555 1_555
C6 C5 1_555 1_555
C7 C2 1_555 1_555
H2 C7 1_555 1_555
C8 C4 1_555 1_555
H3 C8 1_555 1_555
H4 C8 1_555 1_555
H5 C8 1_555 1_555
C9 C6 1_555 1_555
H6 C9 1_555 1_555
H7 C9 1_555 1_555
H8 C9 1_555 1_555
C10 C11 1_555 1_555
C11 C12 1_555 1_555
C12 H9 1_555 1_555
C13 C12 1_555 1_555
C14 C5 1_555 1_555
C15 C14 1_555 1_555
C16 C11 1_555 1_555
H10 C16 1_555 1_555
C17 C13 1_555 1_555
H11 C17 1_555 1_555
H12 C17 1_555 1_555
H13 C17 1_555 1_555
C18 C15 1_555 1_555
H14 C18 1_555 1_555
H15 C18 1_555 1_555
H16 C18 1_555 1_555
C19 C20 1_555 1_555
C20 C21 1_555 1_555
C21 H17 1_555 1_555
C22 C21 1_555 1_555
C23 C22 1_555 1_555
C24 C23 1_555 1_555
C25 C20 1_555 1_555
H18 C25 1_555 1_555
C26 C22 1_555 1_555
H19 C26 1_555 1_555
H20 C26 1_555 1_555
H21 C26 1_555 1_555
C27 C24 1_555 1_555
H22 C27 1_555 1_555
H23 C27 1_555 1_555
H24 C27 1_555 1_555
C28 C29 1_555 1_555
C29 C30 1_555 1_555
C30 H25 1_555 1_555
C31 C30 1_555 1_555
C32 C23 1_555 1_555
C33 C32 1_555 1_555
C34 C29 1_555 1_555
H26 C34 1_555 1_555
C35 C31 1_555 1_555
H27 C35 1_555 1_555
H28 C35 1_555 1_555
H29 C35 1_555 1_555
C36 C33 1_555 1_555
H30 C36 1_555 1_555
H31 C36 1_555 1_555
H32 C36 1_555 1_555
C37 C38 1_555 1_555
C38 C39 1_555 1_555
C39 H33 1_555 1_555
C40 C39 1_555 1_555
C41 C40 1_555 1_555
C42 C41 1_555 1_555
C43 C38 1_555 1_555
H34 C43 1_555 1_555
C44 C40 1_555 1_555
H35 C44 1_555 1_555
H36 C44 1_555 1_555
H37 C44 1_555 1_555
C45 C42 1_555 1_555
H38 C45 1_555 1_555
H39 C45 1_555 1_555
H40 C45 1_555 1_555
C46 C47 1_555 1_555
C47 C48 1_555 1_555
C48 H41 1_555 1_555
C49 C48 1_555 1_555
C50 C41 1_555 1_555
C51 C50 1_555 1_555
C52 C47 1_555 1_555
H42 C52 1_555 1_555
C53 C49 1_555 1_555
H43 C53 1_555 1_555
H44 C53 1_555 1_555
H45 C53 1_555 1_555
C54 C51 1_555 1_555
H46 C54 1_555 1_555
H47 C54 1_555 1_555
H48 C54 1_555 1_555
C55 N1 1_555 1_555
C56 N1 1_555 1_555
C57 N1 1_555 1_555
C58 N2 1_555 1_555
C59 N2 1_555 1_555
C60 N2 1_555 1_555
C61 N3 1_555 1_555
C62 N3 1_555 1_555
C63 N3 1_555 1_555
O1 C1 1_555 1_555
O2 C1 1_555 1_555
O3 C19 1_555 1_555
O4 C19 1_555 1_555
O5 C37 1_555 1_555
O6 C37 1_555 1_555
O7 C46 1_555 1_555
O8 C46 1_555 1_555
O9 C28 1_555 1_555
O10 C28 1_555 1_555
O11 C10 1_555 1_555
O12 C10 1_555 1_555
O13 C55 1_555 1_555
O14 C58 1_555 1_555
O15 C61 1_555 1_555
Cu1 O1 1_555 1_555
Cu2 O2 1_555 1_555
Cu3 O11 1_555 1_555
O5E Cu1 1_555 1_555
O6E Cu2 1_555 1_555
O9E Cu3 1_555 1_555
O10C Cu3 1_555 1_555
O12F Cu3 1_555 1_555
Cu1E O5 1_555 1_555
Cu2E O6 1_555 1_555
Cu3E O9 1_555 1_555
Cu3C O10 1_555 1_555
Cu3F O12 1_555 1_555
C6 C7 1_555 1_555
C13 C14 1_555 1_555
C15 C16 1_555 1_555
C24 C25 1_555 1_555
C31 C32 1_555 1_555
C33 C34 1_555 1_555
C42 C43 1_555 1_555
C49 C50 1_555 1_555
C51 C52 1_555 1_555
O3 Cu1 1_555 1_555
O4 Cu2 1_555 1_555
O7 Cu1 1_555 1_555
O8 Cu2 1_555 1_555
O13 Cu1 1_555 1_555
O14 Cu2 1_555 1_555
O15 Cu3 1_555 1_555
Cu1 Cu2 1_555 1_555
Cu3 Cu3F 1_555 1_555
Cu1E Cu2E 1_555 1_555
Cu3E Cu3C 1_555 1_555

#END
