
#######################################################################
#
#                 Cambridge Crystallographic Data Centre
#                                CCDC 
#
#######################################################################
#
# If this CIF has been generated from an entry in the Cambridge 
# Structural Database, then it will include bibliographic, chemical, 
# crystal, experimental, refinement or atomic coordinate data resulting 
# from the CCDC's data processing and validation procedures.
#
#######################################################################

data_ADUROI
_chemical_name_common            NJU-Bai9
_chemical_formula_moiety         
'(C21 H15 N3 O7 Zn1)n,n(C3 H7 N1 O1),3.5n(H2 O1)'
_chemical_name_systematic        
"catena-[(\m~3~-4,4'-(Pyridine-3,5-diylbis(carbonylimino))dibenzoato)-aqua-zinc(ii) N,N-dimethylformamide unknown solvate hydrate]"
_symmetry_cell_setting           cubic
_symmetry_space_group_name_H-M   'F d -3 c'
_symmetry_Int_Tables_number      228
_space_group_name_Hall           '-F 4ud 2vw 3'
loop_
_symmetry_equiv_pos_site_id
_symmetry_equiv_pos_as_xyz
1 x,y,z
2 -y,1/4+x,3/4+z
3 3/4-x,1/4-y,1/2+z
4 3/4+y,-x,1/4+z
5 x,1/4-y,1/4-z
6 3/4+y,1/4+x,-z
7 3/4-x,y,3/4-z
8 -y,-x,1/2-z
9 z,x,y
10 -x,1/4+z,3/4+y
11 3/4-z,1/4-x,1/2+y
12 3/4+x,-z,1/4+y
13 z,1/4-x,1/4-y
14 3/4+x,1/4+z,-y
15 3/4-z,x,3/4-y
16 -x,-z,1/2-y
17 y,z,x
18 1/2-z,-y,-x
19 -z,3/4+y,1/4+x
20 1/4+z,3/4+y,-x
21 3/4+z,-y,1/4+x
22 y,3/4-z,3/4-x
23 1/4-y,1/4-z,x
24 1/4-y,1/2+z,3/4-x
25 x,1/2+y,1/2+z
26 -y,3/4+x,1/4+z
27 3/4-x,3/4-y,z
28 3/4+y,1/2-x,3/4+z
29 x,3/4-y,3/4-z
30 3/4+y,3/4+x,1/2-z
31 3/4-x,1/2+y,1/4-z
32 -y,1/2-x,-z
33 z,1/2+x,1/2+y
34 -x,3/4+z,1/4+y
35 3/4-z,3/4-x,y
36 3/4+x,1/2-z,3/4+y
37 z,3/4-x,3/4-y
38 3/4+x,3/4+z,1/2-y
39 3/4-z,1/2+x,1/4-y
40 -x,1/2-z,-y
41 y,1/2+z,1/2+x
42 1/2-z,1/2-y,1/2-x
43 -z,1/4+y,3/4+x
44 1/4+z,1/4+y,1/2-x
45 3/4+z,1/2-y,3/4+x
46 y,1/4-z,1/4-x
47 1/4-y,3/4-z,1/2+x
48 1/4-y,z,1/4-x
49 1/2+x,y,1/2+z
50 1/2-y,1/4+x,1/4+z
51 1/4-x,1/4-y,z
52 1/4+y,-x,3/4+z
53 1/2+x,1/4-y,3/4-z
54 1/4+y,1/4+x,1/2-z
55 1/4-x,y,1/4-z
56 1/2-y,-x,-z
57 1/2+z,x,1/2+y
58 1/2-x,1/4+z,1/4+y
59 1/4-z,1/4-x,y
60 1/4+x,-z,3/4+y
61 1/2+z,1/4-x,3/4-y
62 1/4+x,1/4+z,1/2-y
63 1/4-z,x,1/4-y
64 1/2-x,-z,-y
65 1/2+y,z,1/2+x
66 -z,-y,1/2-x
67 1/2-z,3/4+y,3/4+x
68 3/4+z,3/4+y,1/2-x
69 1/4+z,-y,3/4+x
70 1/2+y,3/4-z,1/4-x
71 3/4-y,1/4-z,1/2+x
72 3/4-y,1/2+z,1/4-x
73 1/2+x,1/2+y,z
74 1/2-y,3/4+x,3/4+z
75 1/4-x,3/4-y,1/2+z
76 1/4+y,1/2-x,1/4+z
77 1/2+x,3/4-y,1/4-z
78 1/4+y,3/4+x,-z
79 1/4-x,1/2+y,3/4-z
80 1/2-y,1/2-x,1/2-z
81 1/2+z,1/2+x,y
82 1/2-x,3/4+z,3/4+y
83 1/4-z,3/4-x,1/2+y
84 1/4+x,1/2-z,1/4+y
85 1/2+z,3/4-x,1/4-y
86 1/4+x,3/4+z,-y
87 1/4-z,1/2+x,3/4-y
88 1/2-x,1/2-z,1/2-y
89 1/2+y,1/2+z,x
90 -z,1/2-y,-x
91 1/2-z,1/4+y,1/4+x
92 3/4+z,1/4+y,-x
93 1/4+z,1/2-y,1/4+x
94 1/2+y,1/4-z,3/4-x
95 3/4-y,3/4-z,x
96 3/4-y,z,3/4-x
97 -x,-y,-z
98 y,3/4-x,1/4-z
99 1/4+x,3/4+y,1/2-z
100 1/4-y,x,3/4-z
101 -x,3/4+y,3/4+z
102 1/4-y,3/4-x,z
103 1/4+x,-y,1/4+z
104 y,x,1/2+z
105 -z,-x,-y
106 x,3/4-z,1/4-y
107 1/4+z,3/4+x,1/2-y
108 1/4-x,z,3/4-y
109 -z,3/4+x,3/4+y
110 1/4-x,3/4-z,y
111 1/4+z,-x,1/4+y
112 x,z,1/2+y
113 -y,-z,-x
114 1/2+z,y,x
115 z,1/4-y,3/4-x
116 3/4-z,1/4-y,x
117 1/4-z,y,3/4-x
118 -y,1/4+z,1/4+x
119 3/4+y,3/4+z,-x
120 3/4+y,1/2-z,1/4+x
121 -x,1/2-y,1/2-z
122 y,1/4-x,3/4-z
123 1/4+x,1/4+y,-z
124 1/4-y,1/2+x,1/4-z
125 -x,1/4+y,1/4+z
126 1/4-y,1/4-x,1/2+z
127 1/4+x,1/2-y,3/4+z
128 y,1/2+x,z
129 -z,1/2-x,1/2-y
130 x,1/4-z,3/4-y
131 1/4+z,1/4+x,-y
132 1/4-x,1/2+z,1/4-y
133 -z,1/4+x,1/4+y
134 1/4-x,1/4-z,1/2+y
135 1/4+z,1/2-x,3/4+y
136 x,1/2+z,y
137 -y,1/2-z,1/2-x
138 1/2+z,1/2+y,1/2+x
139 z,3/4-y,1/4-x
140 3/4-z,3/4-y,1/2+x
141 1/4-z,1/2+y,1/4-x
142 -y,3/4+z,3/4+x
143 3/4+y,1/4+z,1/2-x
144 3/4+y,-z,3/4+x
145 1/2-x,-y,1/2-z
146 1/2+y,3/4-x,3/4-z
147 3/4+x,3/4+y,-z
148 3/4-y,x,1/4-z
149 1/2-x,3/4+y,1/4+z
150 3/4-y,3/4-x,1/2+z
151 3/4+x,-y,3/4+z
152 1/2+y,x,z
153 1/2-z,-x,1/2-y
154 1/2+x,3/4-z,3/4-y
155 3/4+z,3/4+x,-y
156 3/4-x,z,1/4-y
157 1/2-z,3/4+x,1/4+y
158 3/4-x,3/4-z,1/2+y
159 3/4+z,-x,3/4+y
160 1/2+x,z,y
161 1/2-y,-z,1/2-x
162 z,y,1/2+x
163 1/2+z,1/4-y,1/4-x
164 1/4-z,1/4-y,1/2+x
165 3/4-z,y,1/4-x
166 1/2-y,1/4+z,3/4+x
167 1/4+y,3/4+z,1/2-x
168 1/4+y,1/2-z,3/4+x
169 1/2-x,1/2-y,-z
170 1/2+y,1/4-x,1/4-z
171 3/4+x,1/4+y,1/2-z
172 3/4-y,1/2+x,3/4-z
173 1/2-x,1/4+y,3/4+z
174 3/4-y,1/4-x,z
175 3/4+x,1/2-y,1/4+z
176 1/2+y,1/2+x,1/2+z
177 1/2-z,1/2-x,-y
178 1/2+x,1/4-z,1/4-y
179 3/4+z,1/4+x,1/2-y
180 3/4-x,1/2+z,3/4-y
181 1/2-z,1/4+x,3/4+y
182 3/4-x,1/4-z,y
183 3/4+z,1/2-x,1/4+y
184 1/2+x,1/2+z,1/2+y
185 1/2-y,1/2-z,-x
186 z,1/2+y,x
187 1/2+z,3/4-y,3/4-x
188 1/4-z,3/4-y,x
189 3/4-z,1/2+y,3/4-x
190 1/2-y,3/4+z,1/4+x
191 1/4+y,1/4+z,-x
192 1/4+y,-z,1/4+x
_cell_length_a                   71.8701(7)
_cell_length_b                   71.8701(7)
_cell_length_c                   71.8701(7)
_cell_angle_alpha                90
_cell_angle_beta                 90
_cell_angle_gamma                90
_cell_volume                     371231
_cell_formula_units_Z            192
_chemical_properties_physical    air-sensitive
loop_
_atom_site_label
_atom_site_type_symbol
_atom_site_fract_x
_atom_site_fract_y
_atom_site_fract_z
_atom_site_U_iso_or_equiv
_atom_site_thermal_displace_type
C1 C 0.31150(6) 0.18496(6) -0.04808(5) 0.1160 Uani
H1 H 0.3216 0.1770 -0.0467 0.1390 Uiso
C2 C 0.33872(5) 0.22353(6) 0.02056(5) 0.1047 Uani
H2 H 0.3322 0.2345 0.0186 0.1250 Uiso
C3 C 0.38465(6) 0.10508(6) 0.02273(6) 0.1173 Uani
C4 C 0.28508(5) 0.19510(5) -0.06570(6) 0.1060 Uani
C5 C 0.33558(5) 0.20894(6) 0.00867(5) 0.1037 Uani
C6 C 0.32158(6) 0.21144(6) -0.00637(6) 0.1220 Uani
C7 C 0.30779(6) 0.19780(6) -0.03437(5) 0.1067 Uani
C8 C 0.35784(6) 0.19103(6) 0.02623(6) 0.1190 Uani
C9 C 0.37006(6) 0.14071(6) 0.02700(6) 0.1187 Uani
C10 C 0.28135(6) 0.20740(6) -0.05205(6) 0.1223 Uani
H3 H 0.2709 0.2149 -0.0532 0.1470 Uiso
C11 C 0.36575(6) 0.10735(6) 0.02301(6) 0.1267 Uani
H4 H 0.3579 0.0972 0.0215 0.1520 Uiso
C12 C 0.39590(7) 0.12010(7) 0.02487(7) 0.1403 Uani
H5 H 0.4087 0.1185 0.0249 0.1680 Uiso
C13 C 0.39289(6) 0.08599(6) 0.01833(6) 0.1227 Uani
C14 C 0.34535(6) 0.19222(6) 0.01144(6) 0.1170 Uani
H6 H 0.3435 0.1821 0.0035 0.1400 Uiso
C15 C 0.37006(7) 0.17483(7) 0.02999(7) 0.1337 Uani
C16 C 0.29232(6) 0.20944(6) -0.03640(6) 0.1267 Uani
H7 H 0.2895 0.2183 -0.0274 0.1520 Uiso
C17 C 0.36033(6) 0.20663(6) 0.03744(6) 0.1267 Uani
H8 H 0.3690 0.2060 0.0471 0.1520 Uiso
C18 C 0.27319(6) 0.19300(6) -0.08221(6) 0.1210 Uani
C19 C 0.38865(6) 0.13782(7) 0.02706(7) 0.1430 Uani
H9 H 0.3967 0.1479 0.0286 0.1720 Uiso
C20 C 0.35830(6) 0.12548(6) 0.02559(7) 0.1293 Uani
H10 H 0.3455 0.1271 0.0263 0.1550 Uiso
C21 C 0.30068(6) 0.18362(6) -0.06358(6) 0.1180 Uani
H11 H 0.3037 0.1751 -0.0728 0.1410 Uiso
N1 N 0.35072(4) 0.22279(4) 0.03500(5) 0.1087 Uani
N2 N 0.31957(4) 0.19802(5) -0.01879(5) 0.1220 Uani
H12 H 0.3263 0.1883 -0.0171 0.1470 Uiso
N3 N 0.36147(5) 0.15836(5) 0.02711(5) 0.1253 Uani
H13 H 0.3497 0.1587 0.0252 0.1510 Uiso
O1 O 0.37706(6) 0.25753(6) 0.03833(6) 0.1987 Uani
O2 O 0.31327(5) 0.22615(4) -0.00697(4) 0.1693 Uani
O3 O 0.38594(4) 0.17664(5) 0.03514(6) 0.1727 Uani
O4 O 0.38119(4) 0.07316(4) 0.01478(5) 0.1417 Uani
O5 O 0.41010(4) 0.08427(4) 0.01788(4) 0.1490 Uani
O6 O 0.27559(4) 0.17988(4) -0.09381(4) 0.1333 Uani
O7 O 0.25982(4) 0.20430(4) -0.08390(4) 0.1353 Uani
Zn1 Zn 0.355757(7) 0.245140(8) 0.051908(7) 0.1185 Uani
O4YF O 0.36881(4) 0.23522(5) 0.07316(4) 0.1417 Uani
O7JB O 0.33390(4) 0.25982(4) 0.04570(4) 0.1353 Uani
Zn1SA Zn 0.245140(8) 0.198092(7) -0.105757(7) 0.1185 Uani
Zn1YE Zn 0.394243(7) 0.051908(7) 0.004860(8) 0.1185 Uani
loop_
_atom_site_aniso_label
_atom_site_aniso_U_11
_atom_site_aniso_U_22
_atom_site_aniso_U_33
_atom_site_aniso_U_23
_atom_site_aniso_U_13
_atom_site_aniso_U_12
C1 0.124(3) 0.113(3) 0.111(3) -0.047(2) -0.046(3) 0.051(3)
C2 0.110(3) 0.102(3) 0.102(3) -0.028(2) -0.042(2) 0.045(2)
C3 0.124 0.119 0.109 0.022 0.025 0.08
C4 0.103(3) 0.099(3) 0.116(3) -0.046(2) -0.047(2) 0.032(2)
C5 0.103(3) 0.112(3) 0.096(3) -0.032(2) -0.040(2) 0.053(2)
C6 0.135(3) 0.110(3) 0.121(3) -0.039(3) -0.064(3) 0.066(3)
C7 0.109(3) 0.109(3) 0.102(3) -0.044(2) -0.046(2) 0.045(2)
C8 0.116(3) 0.111(3) 0.130(3) -0.049(3) -0.055(3) 0.065(2)
C9 0.122(3) 0.111(3) 0.123(3) -0.013(3) -0.030(3) 0.062(3)
C10 0.124(3) 0.107(3) 0.136(3) -0.056(3) -0.061(3) 0.061(2)
C11 0.118 0.111 0.151 0.001 0.011 0.055
C12 0.122 0.137 0.162 0.007 -0.003 0.067
C13 0.142 0.124 0.102 0.036 0.038 0.072
C14 0.116(3) 0.114(3) 0.121(3) -0.043(3) -0.044(3) 0.052(3)
C15 0.134(3) 0.115(3) 0.152(4) -0.036(3) -0.049(3) 0.062(3)
C16 0.129(3) 0.131(3) 0.120(3) -0.063(3) -0.061(3) 0.062(3)
C17 0.123(3) 0.142(4) 0.115(3) -0.019(3) -0.049(3) 0.060(3)
C18 0.12 0.108 0.135 -0.04 -0.053 0.034
C19 0.112 0.12 0.197 -0.016 -0.025 0.068
C20 0.121 0.125 0.142 -0.011 0 0.076
C21 0.120(3) 0.126(3) 0.108(3) -0.052(3) -0.042(3) 0.041(3)
N1 0.104(2) 0.113(2) 0.109(2) -0.026(2) -0.0453(19) 0.054(2)
N2 0.127(2) 0.119(2) 0.120(2) -0.062(2) -0.064(2) 0.062(2)
N3 0.119(2) 0.113(3) 0.144(3) -0.029(2) -0.040(2) 0.073(2)
O1 0.179(3) 0.207(4) 0.210(4) 0.000(3) -0.015(3) 0.013(3)
O2 0.227(3) 0.122(2) 0.159(2) -0.0646(19) -0.129(2) 0.087(2)
O3 0.122(2) 0.162(3) 0.234(4) -0.045(3) -0.089(2) 0.068(2)
O4 0.143 0.119 0.163 0.027 0.053 0.066
O5 0.133 0.156 0.158 0.038 0.045 0.096
O6 0.142 0.134 0.124 -0.0563 -0.049 0.039
O7 0.135 0.116 0.155 -0.0621 -0.0743 0.0441
Zn1 0.1227(4) 0.1246(4) 0.1081(4) -0.0347(3) -0.0594(3) 0.0548(3)
O4YF 0.143 0.163 0.119 -0.027 -0.066 0.053
O7JB 0.155 0.135 0.116 -0.0441 -0.0621 0.0743
Zn1SA 0.1246 0.1081 0.1227 -0.0594 -0.0548 0.0347
Zn1YE 0.1227 0.1081 0.1246 0.0347 0.0548 0.0594
loop_
_geom_bond_atom_site_label_1
_geom_bond_atom_site_label_2
_geom_bond_site_symmetry_1
_geom_bond_site_symmetry_2
C1 H1 1_555 1_555
C2 H2 1_555 1_555
C3 C11 1_555 1_555
C4 C10 1_555 1_555
C5 C2 1_555 1_555
C6 C5 1_555 1_555
C7 C1 1_555 1_555
C8 C14 1_555 1_555
C9 C19 1_555 1_555
C10 H3 1_555 1_555
C11 H4 1_555 1_555
C12 C3 1_555 1_555
H5 C12 1_555 1_555
C13 C3 1_555 1_555
C14 C5 1_555 1_555
H6 C14 1_555 1_555
C15 C8 1_555 1_555
C16 C7 1_555 1_555
H7 C16 1_555 1_555
C17 C8 1_555 1_555
H8 C17 1_555 1_555
C18 C4 1_555 1_555
C19 C12 1_555 1_555
H9 C19 1_555 1_555
C20 C9 1_555 1_555
H10 C20 1_555 1_555
C21 C1 1_555 1_555
H11 C21 1_555 1_555
N1 C2 1_555 1_555
N2 C6 1_555 1_555
H12 N2 1_555 1_555
N3 C9 1_555 1_555
H13 N3 1_555 1_555
O1 Zn1 1_555 1_555
O2 C6 1_555 1_555
O3 C15 1_555 1_555
O4 C13 1_555 1_555
O5 C13 1_555 1_555
O6 C18 1_555 1_555
O7 C18 1_555 1_555
Zn1 N1 1_555 1_555
O4YF Zn1 1_555 1_555
O7JB Zn1 1_555 1_555
Zn1SA O7 1_555 1_555
Zn1YE O4 1_555 1_555
C4 C21 1_555 1_555
C7 N2 1_555 1_555
C10 C16 1_555 1_555
C11 C20 1_555 1_555
C15 N3 1_555 1_555
C17 N1 1_555 1_555

#END
