
#######################################################################
#
#                 Cambridge Crystallographic Data Centre
#                                CCDC 
#
#######################################################################
#
# If this CIF has been generated from an entry in the Cambridge 
# Structural Database, then it will include bibliographic, chemical, 
# crystal, experimental, refinement or atomic coordinate data resulting 
# from the CCDC's data processing and validation procedures.
#
#######################################################################

data_DIDBOJ
_chemical_formula_moiety         '(C24 H16 Co1 N2 O4)n,2n(C3 H7 N1 O1)'
_chemical_name_systematic        
'catena-[bis(\m~2~-4-(Pyridin-4-yl)benzoato)-cobalt(ii) N,N-dimethylformamide solvate]'
_symmetry_cell_setting           tetragonal
_symmetry_space_group_name_H-M   'P 4 21 2'
_symmetry_Int_Tables_number      90
_space_group_name_Hall           'P 4ab 2ab'
loop_
_symmetry_equiv_pos_site_id
_symmetry_equiv_pos_as_xyz
1 x,y,z
2 1/2-y,1/2+x,z
3 -x,-y,z
4 1/2+y,1/2-x,z
5 1/2+x,1/2-y,-z
6 y,x,-z
7 1/2-x,1/2+y,-z
8 -y,-x,-z
_cell_length_a                   22.614(2)
_cell_length_b                   22.614(2)
_cell_length_c                   12.854(2)
_cell_angle_alpha                90
_cell_angle_beta                 90
_cell_angle_gamma                90
_cell_volume                     6573.45
_cell_formula_units_Z            8
loop_
_atom_site_label
_atom_site_type_symbol
_atom_site_fract_x
_atom_site_fract_y
_atom_site_fract_z
_atom_site_U_iso_or_equiv
_atom_site_thermal_displace_type
Co1 Co 0.24310(2) 0.23192(2) 0.24748(5) 0.0486 Uani
C1 C 0.2042(2) -0.1491(2) -0.1951(4) 0.0573 Uani
H1 H 0.1859 -0.1543 -0.2593 0.0690 Uiso
C2 C 0.1913(3) -0.0980(2) -0.1396(4) 0.0733 Uani
H2 H 0.1645 -0.0703 -0.1648 0.0880 Uiso
C3 C 0.2200(3) -0.0898(2) -0.0440(3) 0.0630 Uani
C4 C 0.2592(3) -0.1327(2) -0.0116(4) 0.0673 Uani
H3 H 0.2802 -0.1275 0.0499 0.0810 Uiso
C5 C 0.2674(2) -0.1832(2) -0.0702(4) 0.0577 Uani
H4 H 0.2920 -0.2127 -0.0443 0.0690 Uiso
C6 C 0.2145(2) -0.0316(2) 0.0130(4) 0.0620 Uani
C7 C 0.2007(2) 0.0203(2) -0.0382(4) 0.0613 Uani
H5 H 0.1917 0.0195 -0.1088 0.0740 Uiso
C8 C 0.2001(2) 0.0742(2) 0.0157(3) 0.0607 Uani
H6 H 0.1923 0.1094 -0.0191 0.0730 Uiso
C9 C 0.2114(2) 0.0742(2) 0.1213(3) 0.0563 Uani
C10 C 0.2211(3) 0.0227(2) 0.1763(4) 0.0800 Uani
H7 H 0.2257 0.0231 0.2482 0.0960 Uiso
C11 C 0.2238(3) -0.0295(2) 0.1206(4) 0.0947 Uani
H8 H 0.2322 -0.0645 0.1557 0.1130 Uiso
C12 C 0.2170(2) 0.1321(2) 0.1768(4) 0.0613 Uani
C13 C 0.6128(3) 0.2448(4) 0.7283(4) 0.1313 Uani
H9 H 0.6128 0.2514 0.7997 0.1570 Uiso
C14 C 0.5573(3) 0.2341(4) 0.6812(5) 0.1250 Uani
H10 H 0.5231 0.2295 0.7204 0.1500 Uiso
C15 C 0.5567(2) 0.2308(3) 0.5772(4) 0.0750 Uani
C16 C 0.6098(2) 0.2297(3) 0.5273(4) 0.0903 Uani
H11 H 0.6106 0.2243 0.4556 0.1080 Uiso
C17 C 0.6610(2) 0.2363(2) 0.5789(4) 0.0710 Uani
H12 H 0.6961 0.2338 0.5415 0.0850 Uiso
C18 C 0.4998(2) 0.2261(3) 0.5184(4) 0.0670 Uani
C19 C 0.4482(2) 0.2544(3) 0.5532(4) 0.1033 Uani
H13 H 0.4481 0.2724 0.6183 0.1240 Uiso
C20 C 0.3994(2) 0.2561(3) 0.4956(4) 0.0880 Uani
H14 H 0.3675 0.2789 0.5174 0.1060 Uiso
C21 C 0.3954(2) 0.2244(2) 0.4030(4) 0.0560 Uani
C22 C 0.4450(2) 0.1975(3) 0.3684(4) 0.0733 Uani
H15 H 0.4439 0.1790 0.3038 0.0880 Uiso
C23 C 0.4977(3) 0.1961(3) 0.4249(4) 0.0877 Uani
H16 H 0.5305 0.1756 0.4002 0.1050 Uiso
C24 C 0.3404(2) 0.2283(2) 0.3399(4) 0.0557 Uani
O1 O 0.21476(15) 0.17969(14) 0.1256(2) 0.0579 Uani
O2 O 0.22636(19) 0.13425(15) 0.2727(3) 0.0827 Uani
O3 O 0.29483(14) 0.25079(15) 0.3767(2) 0.0595 Uani
O4 O 0.34060(14) 0.20633(15) 0.2481(3) 0.0768 Uani
N1 N 0.24145(18) -0.19155(16) -0.1624(3) 0.0530 Uani
N2 N 0.66397(19) 0.2463(2) 0.6821(3) 0.0707 Uani
Co1D Co 0.74310(2) 0.26808(2) 0.75252(5) 0.0486 Uani
Co1F Co 0.25690(2) -0.26808(2) -0.24748(5) 0.0486 Uani
N1F N 0.25855(18) 0.30845(16) 0.1624(3) 0.0530 Uani
N2D N 0.16397(19) 0.2537(2) 0.3179(3) 0.0707 Uani
loop_
_atom_site_aniso_label
_atom_site_aniso_U_11
_atom_site_aniso_U_22
_atom_site_aniso_U_33
_atom_site_aniso_U_23
_atom_site_aniso_U_13
_atom_site_aniso_U_12
Co1 0.0513(4) 0.0557(4) 0.0388(3) -0.0001(4) -0.0016(4) -0.0038(3)
C1 0.058(3) 0.067(4) 0.047(3) -0.001(3) -0.018(3) 0.016(3)
C2 0.094(5) 0.066(4) 0.060(3) -0.010(3) -0.024(3) 0.008(3)
C3 0.101(5) 0.053(4) 0.035(3) 0.000(3) -0.008(3) -0.006(3)
C4 0.089(4) 0.062(4) 0.051(3) -0.003(3) -0.019(3) 0.015(3)
C5 0.066(4) 0.050(3) 0.057(3) 0.010(3) -0.006(3) 0.019(3)
C6 0.094(4) 0.046(3) 0.046(3) -0.004(3) 0.003(3) 0.004(3)
C7 0.102(5) 0.040(3) 0.042(3) 0.002(2) -0.009(3) -0.005(3)
C8 0.093(4) 0.050(3) 0.039(3) 0.000(3) -0.015(3) 0.010(3)
C9 0.088(4) 0.039(3) 0.042(3) -0.004(2) -0.008(3) 0.005(3)
C10 0.150(6) 0.032(3) 0.058(3) -0.004(2) -0.033(4) 0.020(3)
C11 0.186(7) 0.052(4) 0.046(3) 0.021(3) -0.032(4) -0.003(4)
C12 0.074(4) 0.057(4) 0.053(3) 0.001(3) -0.006(3) 0.001(3)
C13 0.074(4) 0.283(10) 0.037(4) -0.053(5) 0.002(3) 0.020(5)
C14 0.055(4) 0.258(10) 0.062(4) -0.038(5) -0.009(3) -0.008(5)
C15 0.046(3) 0.138(6) 0.041(3) -0.017(4) 0.004(3) 0.006(3)
C16 0.042(3) 0.175(7) 0.054(3) -0.030(4) -0.006(3) 0.004(4)
C17 0.063(3) 0.099(4) 0.051(3) -0.022(3) 0.004(3) 0.008(3)
C18 0.051(3) 0.096(4) 0.054(3) -0.007(3) 0.003(3) 0.008(3)
C19 0.043(3) 0.215(8) 0.052(3) -0.033(5) -0.011(3) 0.026(5)
C20 0.056(4) 0.139(6) 0.069(4) -0.044(5) -0.010(3) 0.006(4)
C21 0.042(3) 0.077(4) 0.049(3) 0.001(3) -0.007(3) 0.000(3)
C22 0.064(4) 0.106(5) 0.050(3) -0.025(3) -0.018(3) 0.002(3)
C23 0.053(4) 0.137(6) 0.073(4) -0.043(4) 0.004(3) 0.020(4)
C24 0.061(4) 0.072(4) 0.034(3) 0.011(3) -0.002(3) -0.018(3)
O1 0.087(3) 0.043(2) 0.0436(19) 0.0015(16) -0.0100(18) -0.0038(17)
O2 0.132(4) 0.051(2) 0.065(3) 0.0046(18) -0.028(3) 0.001(2)
O3 0.0417(18) 0.090(3) 0.0467(18) 0.002(2) 0.0031(16) 0.0022(18)
O4 0.070(2) 0.111(3) 0.0494(19) 0.007(3) -0.007(2) 0.0162(19)
N1 0.072(3) 0.043(2) 0.044(2) 0.0086(19) -0.005(2) 0.011(2)
N2 0.073(3) 0.097(4) 0.042(2) 0.013(3) 0.013(2) 0.034(3)
Co1D 0.0513 0.0557 0.0388 -0.0001 0.0016 0.0038
Co1F 0.0513 0.0557 0.0388 0.0001 -0.0016 0.0038
N1F 0.072 0.043 0.044 -0.0086 -0.005 -0.011
N2D 0.073 0.097 0.042 0.013 -0.013 -0.034
loop_
_geom_bond_atom_site_label_1
_geom_bond_atom_site_label_2
_geom_bond_site_symmetry_1
_geom_bond_site_symmetry_2
Co1 O1 1_555 1_555
C1 H1 1_555 1_555
C2 C1 1_555 1_555
H2 C2 1_555 1_555
C3 C2 1_555 1_555
C4 C3 1_555 1_555
H3 C4 1_555 1_555
C5 C4 1_555 1_555
H4 C5 1_555 1_555
C6 C3 1_555 1_555
C7 C6 1_555 1_555
H5 C7 1_555 1_555
C8 C7 1_555 1_555
H6 C8 1_555 1_555
C9 C8 1_555 1_555
C10 C9 1_555 1_555
H7 C10 1_555 1_555
C11 C6 1_555 1_555
H8 C11 1_555 1_555
C12 C9 1_555 1_555
C13 H9 1_555 1_555
C14 C13 1_555 1_555
H10 C14 1_555 1_555
C15 C14 1_555 1_555
C16 C15 1_555 1_555
H11 C16 1_555 1_555
C17 C16 1_555 1_555
H12 C17 1_555 1_555
C18 C15 1_555 1_555
C19 C18 1_555 1_555
H13 C19 1_555 1_555
C20 C19 1_555 1_555
H14 C20 1_555 1_555
C21 C20 1_555 1_555
C22 C21 1_555 1_555
H15 C22 1_555 1_555
C23 C18 1_555 1_555
H16 C23 1_555 1_555
C24 C21 1_555 1_555
O1 C12 1_555 1_555
O2 Co1 1_555 1_555
O3 Co1 1_555 1_555
O4 Co1 1_555 1_555
N1 C1 1_555 1_555
N2 C13 1_555 1_555
Co1D N2 1_555 1_555
Co1F N1 1_555 1_555
N1F Co1 1_555 1_555
N2D Co1 1_555 1_555
C5 N1 1_555 1_555
C10 C11 1_555 1_555
C12 O2 1_555 1_555
C17 N2 1_555 1_555
C22 C23 1_555 1_555
C24 O3 1_555 1_555
C24 O4 1_555 1_555

#END
