
#######################################################################
#
#                 Cambridge Crystallographic Data Centre
#                                CCDC 
#
#######################################################################
#
# If this CIF has been generated from an entry in the Cambridge 
# Structural Database, then it will include bibliographic, chemical, 
# crystal, experimental, refinement or atomic coordinate data resulting 
# from the CCDC's data processing and validation procedures.
#
#######################################################################

data_DUBXUV
_chemical_formula_moiety         '(C22 H24 N4 O10 Sr2)n'
_chemical_name_systematic        
catena-[bis(\m-2-aminoterephthalato)-bis(\m-N,N-dimethylformamide)-di-strontium(ii)]
_symmetry_cell_setting           monoclinic
_symmetry_space_group_name_H-M   'P 21/n'
_symmetry_Int_Tables_number      14
_space_group_name_Hall           '-P 2yn'
loop_
_symmetry_equiv_pos_site_id
_symmetry_equiv_pos_as_xyz
1 x,y,z
2 1/2-x,1/2+y,1/2-z
3 -x,-y,-z
4 1/2+x,1/2-y,1/2+z
_cell_length_a                   9.9402(6)
_cell_length_b                   7.3041(5)
_cell_length_c                   18.1531(11)
_cell_angle_alpha                90
_cell_angle_beta                 90.526(2)
_cell_angle_gamma                90
_cell_volume                     1317.94
_exptl_crystal_colour            colorless
_exptl_crystal_description       plate
_cell_formula_units_Z            2
loop_
_atom_site_label
_atom_site_type_symbol
_atom_site_fract_x
_atom_site_fract_y
_atom_site_fract_z
Sr1 Sr 0.19286(5) 0.43836(7) 0.25067(3)
O1 O 0.1712(6) 0.1347(7) 0.3311(3)
O2 O 0.0465(6) 0.3665(8) 0.3631(3)
C1 C 0.0880(6) 0.2092(8) 0.3730(3)
C2 C 0.0405(6) 0.1027(8) 0.4386(3)
C3 C -0.0408(9) 0.1824(11) 0.4923(4)
C4 C 0.0812(9) -0.0785(10) 0.4481(4)
H1 H 0.1385 -0.1324 0.4125
N1 N -0.072(2) 0.368(2) 0.4908(10)
H2 H -0.1171 0.4170 0.5274
H3 H -0.0474 0.4357 0.4534
O3 O 0.1878(5) 0.1498(6) 0.1631(3)
O4 O 0.0226(7) 0.3429(9) 0.1495(4)
C5 C 0.0852(6) 0.2048(8) 0.1293(3)
C6 C 0.0404(6) 0.1002(9) 0.0612(4)
C7 C -0.0708(10) 0.1571(12) 0.0201(5)
C8 C 0.1080(9) -0.0528(12) 0.0414(4)
H4 H 0.1831 -0.0907 0.0703
N2 N -0.158(2) 0.301(3) 0.0405(11)
H5 H -0.1430 0.3615 0.0817
H6 H -0.2264 0.3302 0.0120
O5 O 0.4273(5) 0.2529(7) 0.2619(4)
C9 C 0.5292(12) 0.357(2) 0.2640(9)
H7 H 0.5284 0.4529 0.2288
N3 N 0.6327(8) 0.3517(13) 0.3059(6)
C10 C 0.7421(18) 0.463(4) 0.313(2)
H8 H 0.8240 0.3889 0.3156
H9 H 0.7342 0.5349 0.3588
H10 H 0.7465 0.5465 0.2711
C11 C 0.6443(19) 0.220(3) 0.3708(9)
H11 H 0.6424 0.2892 0.4170
H12 H 0.7292 0.1522 0.3677
H13 H 0.5688 0.1336 0.3694
O1B O -0.1712(6) -0.1347(7) 0.6689(3)
O2B O -0.0465(6) -0.3665(8) 0.6369(3)
C1B C -0.0880(6) -0.2092(8) 0.6270(3)
C2B C -0.0405(6) -0.1027(8) 0.5614(3)
C3B C 0.0408(9) -0.1824(11) 0.5077(4)
C4B C -0.0812(9) 0.0785(10) 0.5519(4)
H1B H -0.1385 0.1324 0.5875
N1B N 0.072(2) -0.368(2) 0.5092(10)
H2B H 0.1171 -0.4170 0.4726
H3B H 0.0474 -0.4357 0.5466
O3B O -0.1878(5) -0.1498(6) -0.1631(3)
O4B O -0.0226(7) -0.3429(9) -0.1495(4)
C5B C -0.0852(6) -0.2048(8) -0.1293(3)
C6B C -0.0404(6) -0.1002(9) -0.0612(4)
C7B C 0.0708(10) -0.1571(12) -0.0201(5)
C8B C -0.1080(9) 0.0528(12) -0.0414(4)
H4B H -0.1831 0.0907 -0.0703
N2B N 0.158(2) -0.301(3) -0.0405(11)
H5B H 0.1430 -0.3615 -0.0817
H6B H 0.2264 -0.3302 -0.0120
Sr1B Sr -0.19286(5) -0.43836(7) -0.25067(3)
O5B O -0.4273(5) -0.2529(7) -0.2619(4)
C9B C -0.5292(12) -0.357(2) -0.2640(9)
H7B H -0.5284 -0.4529 -0.2288
N3B N -0.6327(8) -0.3517(13) -0.3059(6)
C10B C -0.7421(18) -0.463(4) -0.313(2)
H8B H -0.8240 -0.3889 -0.3156
H9B H -0.7342 -0.5349 -0.3588
H10B H -0.7465 -0.5465 -0.2711
C11B C -0.6443(19) -0.220(3) -0.3708(9)
H11B H -0.6424 -0.2892 -0.4170
H12B H -0.7292 -0.1522 -0.3677
H13B H -0.5688 -0.1336 -0.3694
Sr1A Sr 0.30714(5) -0.06164(7) 0.24933(3)
Sr1B_2 Sr -0.19286(5) -0.43836(7) 0.74933(3)
Sr1C Sr -0.30714(5) 0.06164(7) -0.24933(3)
Sr1C_2 Sr -0.30714(5) 0.06164(7) 0.75067(3)
O1A O 0.3288(6) 0.6347(7) 0.1689(3)
O1B_2 O -0.1712(6) -0.1347(7) -0.3311(3)
O1C O -0.3288(6) -0.6347(7) -0.1689(3)
O2B_2 O -0.0465(6) -0.3665(8) -0.3631(3)
O3A O 0.3122(5) 0.6498(6) 0.3369(3)
O3C O -0.3122(5) -0.6498(6) -0.3369(3)
O5A O 0.0727(5) 0.7529(7) 0.2381(4)
O5C O -0.0727(5) -0.7529(7) -0.2381(4)
loop_
_geom_bond_atom_site_label_1
_geom_bond_atom_site_label_2
_geom_bond_site_symmetry_1
_geom_bond_site_symmetry_2
Sr1 O1 1_555 1_555
O1 C1 1_555 1_555
O2 Sr1 1_555 1_555
C1 O2 1_555 1_555
C2 C1 1_555 1_555
C3 C2 1_555 1_555
C4 C2 1_555 1_555
H1 C4 1_555 1_555
N1 C3 1_555 1_555
H2 N1 1_555 1_555
H3 N1 1_555 1_555
O3 Sr1 1_555 1_555
O4 Sr1 1_555 1_555
C5 O3 1_555 1_555
C6 C5 1_555 1_555
C7 C6 1_555 1_555
C8 C6 1_555 1_555
H4 C8 1_555 1_555
N2 C7 1_555 1_555
H5 N2 1_555 1_555
H6 N2 1_555 1_555
O5 Sr1 1_555 1_555
C9 O5 1_555 1_555
H7 C9 1_555 1_555
N3 C9 1_555 1_555
C10 N3 1_555 1_555
H8 C10 1_555 1_555
H9 C10 1_555 1_555
H10 C10 1_555 1_555
C11 N3 1_555 1_555
H11 C11 1_555 1_555
H12 C11 1_555 1_555
H13 C11 1_555 1_555
O1B C1B 1_555 1_555
O2B C1B 1_555 1_555
C1B C2B 1_555 1_555
C2B C3B 1_555 1_555
C3B C4 1_555 1_555
C4B C3 1_555 1_555
H1B C4B 1_555 1_555
N1B C3B 1_555 1_555
H2B N1B 1_555 1_555
H3B N1B 1_555 1_555
O3B C5B 1_555 1_555
O4B C5B 1_555 1_555
C5B C6B 1_555 1_555
C6B C7B 1_555 1_555
C7B C8 1_555 1_555
C8B C7 1_555 1_555
H4B C8B 1_555 1_555
N2B C7B 1_555 1_555
H5B N2B 1_555 1_555
H6B N2B 1_555 1_555
Sr1B O3B 1_555 1_555
O5B Sr1B 1_555 1_555
C9B O5B 1_555 1_555
H7B C9B 1_555 1_555
N3B C9B 1_555 1_555
C10B N3B 1_555 1_555
H8B C10B 1_555 1_555
H9B C10B 1_555 1_555
H10B C10B 1_555 1_555
C11B N3B 1_555 1_555
H11B C11B 1_555 1_555
H12B C11B 1_555 1_555
H13B C11B 1_555 1_555
Sr1A O1 1_555 1_555
Sr1B_2 O1B 1_555 1_555
Sr1C O3B 1_555 1_555
Sr1C_2 O1B 1_555 1_555
O1A Sr1 1_555 1_555
O1B_2 Sr1B 1_555 1_555
O1C Sr1B 1_555 1_555
O2B_2 Sr1B 1_555 1_555
O3A Sr1 1_555 1_555
O3C Sr1B 1_555 1_555
O5A Sr1 1_555 1_555
O5C Sr1B 1_555 1_555
O3 Sr1A 1_555 1_555
O4 C5 1_555 1_555
O5 Sr1A 1_555 1_555
O2B Sr1B_2 1_555 1_555
C2B C4B 1_555 1_555
O4B Sr1B 1_555 1_555
C6B C8B 1_555 1_555
O5B Sr1C 1_555 1_555
Sr1C O1B_2 1_555 1_555

#END
