
#######################################################################
#
#                 Cambridge Crystallographic Data Centre
#                                CCDC 
#
#######################################################################
#
# If this CIF has been generated from an entry in the Cambridge 
# Structural Database, then it will include bibliographic, chemical, 
# crystal, experimental, refinement or atomic coordinate data resulting 
# from the CCDC's data processing and validation procedures.
#
#######################################################################

data_UWAGAB06
_chemical_formula_moiety         '(C78 H48 N2 O13 Zn4)n'
_chemical_name_systematic        
catena-(bis(\m~6~-4',4'',4'''-Nitrilotribiphenyl-4-carboxylato)-(\m~4~-oxo)-tetra-zinc)
_symmetry_cell_setting           cubic
_symmetry_space_group_name_H-M   'I a -3'
_symmetry_Int_Tables_number      206
_space_group_name_Hall           '-I 2b 2c 3'
loop_
_symmetry_equiv_pos_site_id
_symmetry_equiv_pos_as_xyz
1 x,y,z
2 -x,1/2-y,z
3 x,-y,1/2-z
4 1/2-x,y,-z
5 z,x,y
6 y,z,x
7 -z,1/2-x,y
8 1/2-y,z,-x
9 z,-x,1/2-y
10 -y,1/2-z,x
11 1/2-z,x,-y
12 y,-z,1/2-x
13 1/2+x,1/2+y,1/2+z
14 1/2-x,-y,1/2+z
15 1/2+x,1/2-y,-z
16 -x,1/2+y,1/2-z
17 1/2+z,1/2+x,1/2+y
18 1/2+y,1/2+z,1/2+x
19 1/2-z,-x,1/2+y
20 -y,1/2+z,1/2-x
21 1/2+z,1/2-x,-y
22 1/2-y,-z,1/2+x
23 -z,1/2+x,1/2-y
24 1/2+y,1/2-z,-x
25 -x,-y,-z
26 x,1/2+y,-z
27 -x,y,1/2+z
28 1/2+x,-y,z
29 -z,-x,-y
30 -y,-z,-x
31 z,1/2+x,-y
32 1/2+y,-z,x
33 -z,x,1/2+y
34 y,1/2+z,-x
35 1/2+z,-x,y
36 -y,z,1/2+x
37 1/2-x,1/2-y,1/2-z
38 1/2+x,y,1/2-z
39 1/2-x,1/2+y,z
40 x,1/2-y,1/2+z
41 1/2-z,1/2-x,1/2-y
42 1/2-y,1/2-z,1/2-x
43 1/2+z,x,1/2-y
44 y,1/2-z,1/2+x
45 1/2-z,1/2+x,y
46 1/2+y,z,1/2-x
47 z,1/2-x,1/2+y
48 1/2-y,1/2+z,x
_cell_length_a                   32.374(5)
_cell_length_b                   32.374(5)
_cell_length_c                   32.374(5)
_cell_angle_alpha                90
_cell_angle_beta                 90
_cell_angle_gamma                90
_cell_volume                     33930.4
_exptl_crystal_colour            brown
_exptl_crystal_description       prism
_cell_formula_units_Z            8
loop_
_atom_site_label
_atom_site_type_symbol
_atom_site_fract_x
_atom_site_fract_y
_atom_site_fract_z
O1 O 0.24539(18) 0.20347(18) 0.16503(16)
C1 C 0.27356(14) 0.22121(14) 0.14640(13)
C2 C 0.28517(13) 0.20928(14) 0.10403(13)
C3 C 0.2832(3) 0.1730(2) 0.09000(19)
H1 H 0.2719 0.1525 0.1067
C4 C 0.2967(4) 0.1622(2) 0.0512(2)
H2 H 0.2963 0.1343 0.0446
C5 C 0.30971(14) 0.18645(15) 0.02380(15)
C6 C 0.3071(4) 0.2231(2) 0.0358(3)
H3 H 0.3137 0.244 0.0173
C7 C 0.2946(5) 0.2342(2) 0.0759(3)
H4 H 0.2932 0.2622 0.082
C8 C 0.32243(14) 0.17396(14) -0.01861(14)
C9 C 0.32399(17) 0.13518(16) -0.03067(16)
H5 H 0.3161 0.1148 -0.012
C10 C 0.33660(18) 0.12316(17) -0.06923(16)
H6 H 0.3372 0.0951 -0.0753
C11 C 0.34780(14) 0.14932(14) -0.09783(15)
C12 C 0.34142(16) 0.19163(15) -0.08980(15)
H7 H 0.3451 0.2112 -0.1105
C13 C 0.32947(17) 0.20362(16) -0.05039(16)
H8 H 0.326 0.2315 -0.0446
N1 N 0.36256(16) 0.13744(16) -0.13744(16)
O2 O 0.25000 0.25000 0.25000
O3 O 0.29636(18) 0.2492(2) 0.16534(17)
Zn1 Zn 0.21626(2) 0.21626(2) 0.21626(2)
Zn2 Zn 0.30018(2) 0.26807(2) 0.22125(2)
O1U O 0.29653(18) -0.16503(16) -0.25461(18)
O1T O 0.66503(16) 0.25461(18) -0.20347(18)
O1E O 0.20347(18) 0.16503(16) 0.24539(18)
O1V O -0.16503(16) -0.25461(18) 0.29653(18)
O1M O 0.25461(18) -0.20347(18) 0.66503(16)
O1D O 0.16503(16) 0.24539(18) 0.20347(18)
O1R O 0.33497(16) -0.24539(18) -0.29653(18)
O1M_2 O 0.25461(18) -0.20347(18) -0.33497(16)
C1U C 0.27879(14) -0.14640(13) -0.22644(14)
C1T C 0.64640(13) 0.22644(14) -0.22121(14)
C1E C 0.22121(14) 0.14640(13) 0.27356(14)
C1V C -0.14640(13) -0.22644(14) 0.27879(14)
C1M C 0.22644(14) -0.22121(14) 0.64640(13)
C2U C 0.29072(14) -0.10403(13) -0.21483(13)
C2T C 0.60403(13) 0.21483(13) -0.20928(14)
C2E C 0.20928(14) 0.10403(13) 0.28517(13)
C2V C -0.10403(13) -0.21483(13) 0.29072(14)
C2M C 0.21483(13) -0.20928(14) 0.60403(13)
C3U C 0.3270(2) -0.09000(19) -0.2168(3)
C3T C 0.59000(19) 0.2168(3) -0.1730(2)
C3E C 0.1730(2) 0.09000(19) 0.2832(3)
C3V C -0.09000(19) -0.2168(3) 0.3270(2)
C3M C 0.2168(3) -0.1730(2) 0.59000(19)
H1U H 0.3475 -0.1067 -0.2281
H1T H 0.6067 0.2281 -0.1525
H1E H 0.1525 0.1067 0.2719
H1V H -0.1067 -0.2281 0.3475
H1M H 0.2281 -0.1525 0.6067
C4U C 0.3378(2) -0.0512(2) -0.2033(4)
C4T C 0.5512(2) 0.2033(4) -0.1622(2)
C4E C 0.1622(2) 0.0512(2) 0.2967(4)
C4V C -0.0512(2) -0.2033(4) 0.3378(2)
C4M C 0.2033(4) -0.1622(2) 0.5512(2)
H2U H 0.3657 -0.0446 -0.2037
H2T H 0.5446 0.2037 -0.1343
H2E H 0.1343 0.0446 0.2963
H2V H -0.0446 -0.2037 0.3657
H2M H 0.2037 -0.1343 0.5446
C5U C 0.31355(15) -0.02380(15) -0.19029(14)
C5T C 0.52380(15) 0.19029(14) -0.18645(15)
C5E C 0.18645(15) 0.02380(15) 0.30971(14)
C5V C -0.02380(15) -0.19029(14) 0.31355(15)
C5M C 0.19029(14) -0.18645(15) 0.52380(15)
C6U C 0.2769(2) -0.0358(3) -0.1929(4)
C6T C 0.5358(3) 0.1929(4) -0.2231(2)
C6E C 0.2231(2) 0.0358(3) 0.3071(4)
C6V C -0.0358(3) -0.1929(4) 0.2769(2)
C6M C 0.1929(4) -0.2231(2) 0.5358(3)
H3U H 0.256 -0.0173 -0.1863
H3T H 0.5173 0.1863 -0.244
H3E H 0.244 0.0173 0.3137
H3V H -0.0173 -0.1863 0.256
H3M H 0.1863 -0.244 0.5173
C7U C 0.2658(2) -0.0759(3) -0.2054(5)
C7T C 0.5759(3) 0.2054(5) -0.2342(2)
C7E C 0.2342(2) 0.0759(3) 0.2946(5)
C7V C -0.0759(3) -0.2054(5) 0.2658(2)
C7M C 0.2054(5) -0.2342(2) 0.5759(3)
H4U H 0.2378 -0.082 -0.2068
H4T H 0.582 0.2068 -0.2622
H4E H 0.2622 0.082 0.2932
H4V H -0.082 -0.2068 0.2378
H4M H 0.2068 -0.2622 0.582
C8U C 0.32604(14) 0.01861(14) -0.17757(14)
C8T C 0.48139(14) 0.17757(14) -0.17396(14)
C8E C 0.17396(14) -0.01861(14) 0.32243(14)
C8V C 0.01861(14) -0.17757(14) 0.32604(14)
C8M C 0.17757(14) -0.17396(14) 0.48139(14)
C9U C 0.36482(16) 0.03067(16) -0.17601(17)
C9T C 0.46933(16) 0.17601(17) -0.13518(16)
C9E C 0.13518(16) -0.03067(16) 0.32399(17)
C9V C 0.03067(16) -0.17601(17) 0.36482(16)
C9M C 0.17601(17) -0.13518(16) 0.46933(16)
H5U H 0.3852 0.012 -0.1839
H5T H 0.488 0.1839 -0.1148
H5E H 0.1148 -0.012 0.3161
H5V H 0.012 -0.1839 0.3852
H5M H 0.1839 -0.1148 0.488
C10U C 0.37684(17) 0.06923(16) -0.16340(18)
C10T C 0.43077(16) 0.16340(18) -0.12316(17)
C10E C 0.12316(17) -0.06923(16) 0.33660(18)
C10V C 0.06923(16) -0.16340(18) 0.37684(17)
C10M C 0.16340(18) -0.12316(17) 0.43077(16)
H6U H 0.4049 0.0753 -0.1628
H6T H 0.4247 0.1628 -0.0951
H6E H 0.0951 -0.0753 0.3372
H6V H 0.0753 -0.1628 0.4049
H6M H 0.1628 -0.0951 0.4247
C11U C 0.35068(14) 0.09783(15) -0.15220(14)
C11T C 0.40217(15) 0.15220(14) -0.14932(14)
C11E C 0.14932(14) -0.09783(15) 0.34780(14)
C11V C 0.09783(15) -0.15220(14) 0.35068(14)
C11M C 0.15220(14) -0.14932(14) 0.40217(15)
C12U C 0.30837(15) 0.08980(15) -0.15858(16)
C12T C 0.41020(15) 0.15858(16) -0.19163(15)
C12E C 0.19163(15) -0.08980(15) 0.34142(16)
C12V C 0.08980(15) -0.15858(16) 0.30837(15)
C12M C 0.15858(16) -0.19163(15) 0.41020(15)
H7U H 0.2888 0.1105 -0.1549
H7T H 0.3895 0.1549 -0.2112
H7E H 0.2112 -0.1105 0.3451
H7V H 0.1105 -0.1549 0.2888
H7M H 0.1549 -0.2112 0.3895
C13U C 0.29638(16) 0.05039(16) -0.17053(17)
C13T C 0.44961(16) 0.17053(17) -0.20362(16)
C13E C 0.20362(16) -0.05039(16) 0.32947(17)
C13V C 0.05039(16) -0.17053(17) 0.29638(16)
C13M C 0.17053(17) -0.20362(16) 0.44961(16)
H8U H 0.2685 0.0446 -0.174
H8T H 0.4554 0.174 -0.2315
H8E H 0.2315 -0.0446 0.326
H8V H 0.0446 -0.174 0.2685
H8M H 0.174 -0.2315 0.4554
N1E N 0.13744(16) -0.13744(16) 0.36256(16)
O2M O 0.25000 -0.25000 -0.25000
O3U O 0.2508(2) -0.16534(17) -0.20364(18)
O3T O 0.66534(17) 0.20364(18) -0.2492(2)
O3E O 0.2492(2) 0.16534(17) 0.29636(18)
O3V O -0.16534(17) -0.20364(18) 0.2508(2)
O3M O 0.20364(18) -0.2492(2) 0.66534(17)
O3D O 0.16534(17) 0.29636(18) 0.2492(2)
O3JA O 0.20364(18) 0.2508(2) 0.33466(17)
O3NA O 0.33466(17) 0.20364(18) 0.2508(2)
O3OA O 0.2508(2) 0.33466(17) 0.20364(18)
Zn1M Zn 0.28374(2) -0.21626(2) -0.28374(2)
Zn1JA Zn 0.28374(2) 0.28374(2) 0.28374(2)
Zn1N Zn 0.71626(2) 0.28374(2) -0.21626(2)
Zn1O Zn -0.21626(2) -0.28374(2) 0.28374(2)
Zn1M_2 Zn 0.28374(2) -0.21626(2) 0.71626(2)
Zn2D Zn 0.22125(2) 0.30018(2) 0.26807(2)
Zn2E Zn 0.26807(2) 0.22125(2) 0.30018(2)
Zn2JA Zn 0.19982(2) 0.23193(2) 0.27875(2)
Zn2NA Zn 0.27875(2) 0.19982(2) 0.23193(2)
Zn2OA Zn 0.23193(2) 0.27875(2) 0.19982(2)
Zn2U Zn 0.23193(2) -0.22125(2) -0.19982(2)
Zn2T Zn 0.72125(2) 0.19982(2) -0.26807(2)
Zn2V Zn -0.22125(2) -0.19982(2) 0.23193(2)
Zn2M Zn 0.19982(2) -0.26807(2) 0.72125(2)
O4? O 0.2799(2) 0.1956(2) 0.17270(19)
O5? O 0.2539(2) 0.2546(2) 0.14981(17)
loop_
_geom_bond_atom_site_label_1
_geom_bond_atom_site_label_2
_geom_bond_site_symmetry_1
_geom_bond_site_symmetry_2
O1 C1 1_555 1_555
C1 C2 1_555 1_555
C2 C3 1_555 1_555
C3 H1 1_555 1_555
C4 C3 1_555 1_555
H2 C4 1_555 1_555
C5 C4 1_555 1_555
C6 C5 1_555 1_555
H3 C6 1_555 1_555
C7 C2 1_555 1_555
H4 C7 1_555 1_555
C8 C5 1_555 1_555
C9 C8 1_555 1_555
H5 C9 1_555 1_555
C10 C9 1_555 1_555
H6 C10 1_555 1_555
C11 C10 1_555 1_555
C12 C11 1_555 1_555
H7 C12 1_555 1_555
C13 C8 1_555 1_555
H8 C13 1_555 1_555
N1 C11 1_555 1_555
O2 Zn1 1_555 1_555
O3 C1 1_555 1_555
Zn1 O1 1_555 1_555
Zn2 O2 1_555 1_555
O1U C1U 1_555 1_555
O1T C1T 1_555 1_555
O1E Zn1 1_555 1_555
O1V C1V 1_555 1_555
O1M C1M 1_555 1_555
O1D Zn1 1_555 1_555
O1R Zn1M 1_555 1_555
O1M_2 Zn1M 1_555 1_555
C1U C2U 1_555 1_555
C1T C2T 1_555 1_555
C1E O1E 1_555 1_555
C1V C2V 1_555 1_555
C1M C2M 1_555 1_555
C2U C3U 1_555 1_555
C2T C3T 1_555 1_555
C2E C1E 1_555 1_555
C2V C3V 1_555 1_555
C2M C3M 1_555 1_555
C3U H1U 1_555 1_555
C3T H1T 1_555 1_555
C3E C2E 1_555 1_555
C3V H1V 1_555 1_555
C3M H1M 1_555 1_555
H1E C3E 1_555 1_555
C4U C3U 1_555 1_555
C4T C3T 1_555 1_555
C4E C3E 1_555 1_555
C4V C3V 1_555 1_555
C4M C3M 1_555 1_555
H2U C4U 1_555 1_555
H2T C4T 1_555 1_555
H2E C4E 1_555 1_555
H2V C4V 1_555 1_555
H2M C4M 1_555 1_555
C5U C4U 1_555 1_555
C5T C4T 1_555 1_555
C5E C4E 1_555 1_555
C5V C4V 1_555 1_555
C5M C4M 1_555 1_555
C6U C5U 1_555 1_555
C6T C5T 1_555 1_555
C6E C5E 1_555 1_555
C6V C5V 1_555 1_555
C6M C5M 1_555 1_555
H3U C6U 1_555 1_555
H3T C6T 1_555 1_555
H3E C6E 1_555 1_555
H3V C6V 1_555 1_555
H3M C6M 1_555 1_555
C7U C2U 1_555 1_555
C7T C2T 1_555 1_555
C7E C2E 1_555 1_555
C7V C2V 1_555 1_555
C7M C2M 1_555 1_555
H4U C7U 1_555 1_555
H4T C7T 1_555 1_555
H4E C7E 1_555 1_555
H4V C7V 1_555 1_555
H4M C7M 1_555 1_555
C8U C5U 1_555 1_555
C8T C5T 1_555 1_555
C8E C5E 1_555 1_555
C8V C5V 1_555 1_555
C8M C5M 1_555 1_555
C9U C8U 1_555 1_555
C9T C8T 1_555 1_555
C9E C8E 1_555 1_555
C9V C8V 1_555 1_555
C9M C8M 1_555 1_555
H5U C9U 1_555 1_555
H5T C9T 1_555 1_555
H5E C9E 1_555 1_555
H5V C9V 1_555 1_555
H5M C9M 1_555 1_555
C10U C9U 1_555 1_555
C10T C9T 1_555 1_555
C10E C9E 1_555 1_555
C10V C9V 1_555 1_555
C10M C9M 1_555 1_555
H6U C10U 1_555 1_555
H6T C10T 1_555 1_555
H6E C10E 1_555 1_555
H6V C10V 1_555 1_555
H6M C10M 1_555 1_555
C11U N1 1_555 1_555
C11T N1 1_555 1_555
C11E C10E 1_555 1_555
C11V C10V 1_555 1_555
C11M C10M 1_555 1_555
C12U C11U 1_555 1_555
C12T C11T 1_555 1_555
C12E C11E 1_555 1_555
C12V C11V 1_555 1_555
C12M C11M 1_555 1_555
H7U C12U 1_555 1_555
H7T C12T 1_555 1_555
H7E C12E 1_555 1_555
H7V C12V 1_555 1_555
H7M C12M 1_555 1_555
C13U C8U 1_555 1_555
C13T C8T 1_555 1_555
C13E C8E 1_555 1_555
C13V C8V 1_555 1_555
C13M C8M 1_555 1_555
H8U C13U 1_555 1_555
H8T C13T 1_555 1_555
H8E C13E 1_555 1_555
H8V C13V 1_555 1_555
H8M C13M 1_555 1_555
N1E C11E 1_555 1_555
O2M Zn1M 1_555 1_555
O3U C1U 1_555 1_555
O3T C1T 1_555 1_555
O3E C1E 1_555 1_555
O3V C1V 1_555 1_555
O3M C1M 1_555 1_555
O3D Zn2D 1_555 1_555
O3JA Zn2JA 1_555 1_555
O3NA Zn2NA 1_555 1_555
O3OA Zn2OA 1_555 1_555
Zn1M O1U 1_555 1_555
Zn1JA O2 1_555 1_555
Zn1N O1T 1_555 1_555
Zn1O O1V 1_555 1_555
Zn1M_2 O1M 1_555 1_555
Zn2D O2 1_555 1_555
Zn2E O2 1_555 1_555
Zn2JA O2 1_555 1_555
Zn2NA O2 1_555 1_555
Zn2OA O2 1_555 1_555
Zn2U O2M 1_555 1_555
Zn2T O3T 1_555 1_555
Zn2V O3V 1_555 1_555
Zn2M O3M 1_555 1_555
C6 C7 1_555 1_555
C12 C13 1_555 1_555
O3 Zn2 1_555 1_555
C6U C7U 1_555 1_555
C6T C7T 1_555 1_555
C6E C7E 1_555 1_555
C6V C7V 1_555 1_555
C6M C7M 1_555 1_555
C10U C11U 1_555 1_555
C10T C11T 1_555 1_555
C11V N1E 1_555 1_555
C11M N1E 1_555 1_555
C12U C13U 1_555 1_555
C12T C13T 1_555 1_555
C12E C13E 1_555 1_555
C12V C13V 1_555 1_555
C12M C13M 1_555 1_555
O3U Zn2U 1_555 1_555
O3E Zn2E 1_555 1_555

#END
