
#######################################################################
#
#                 Cambridge Crystallographic Data Centre
#                                CCDC 
#
#######################################################################
#
# If this CIF has been generated from an entry in the Cambridge 
# Structural Database, then it will include bibliographic, chemical, 
# crystal, experimental, refinement or atomic coordinate data resulting 
# from the CCDC's data processing and validation procedures.
#
#######################################################################

data_SEMNEF
_chemical_name_common            NU-109E
_chemical_formula_moiety         '(C66 H30 Cu3 O15)n'
_chemical_name_systematic        
'catena-[(\m~12~-1,3,5-tris((4-(4-(3,5-Dicarboxylatophenyl)buta-1,3-diyn-1-yl)phenyl)ethynyl)benzene)-triaqua-tri-copper(ii) unknown solvate]'
_symmetry_cell_setting           cubic
_symmetry_space_group_name_H-M   'F m -3 m'
_symmetry_Int_Tables_number      225
_space_group_name_Hall           '-F 4 2 3'
loop_
_symmetry_equiv_pos_site_id
_symmetry_equiv_pos_as_xyz
1 x,y,z
2 -x,-y,z
3 -x,y,-z
4 x,-y,-z
5 z,x,y
6 z,-x,-y
7 -z,-x,y
8 -z,x,-y
9 y,z,x
10 -y,z,-x
11 y,-z,-x
12 -y,-z,x
13 y,x,-z
14 -y,-x,-z
15 y,-x,z
16 -y,x,z
17 x,z,-y
18 -x,z,y
19 -x,-z,-y
20 x,-z,y
21 z,y,-x
22 z,-y,x
23 -z,y,x
24 -z,-y,-x
25 x,1/2+y,1/2+z
26 -x,1/2-y,1/2+z
27 -x,1/2+y,1/2-z
28 x,1/2-y,1/2-z
29 z,1/2+x,1/2+y
30 z,1/2-x,1/2-y
31 -z,1/2-x,1/2+y
32 -z,1/2+x,1/2-y
33 y,1/2+z,1/2+x
34 -y,1/2+z,1/2-x
35 y,1/2-z,1/2-x
36 -y,1/2-z,1/2+x
37 y,1/2+x,1/2-z
38 -y,1/2-x,1/2-z
39 y,1/2-x,1/2+z
40 -y,1/2+x,1/2+z
41 x,1/2+z,1/2-y
42 -x,1/2+z,1/2+y
43 -x,1/2-z,1/2-y
44 x,1/2-z,1/2+y
45 z,1/2+y,1/2-x
46 z,1/2-y,1/2+x
47 -z,1/2+y,1/2+x
48 -z,1/2-y,1/2-x
49 1/2+x,y,1/2+z
50 1/2-x,-y,1/2+z
51 1/2-x,y,1/2-z
52 1/2+x,-y,1/2-z
53 1/2+z,x,1/2+y
54 1/2+z,-x,1/2-y
55 1/2-z,-x,1/2+y
56 1/2-z,x,1/2-y
57 1/2+y,z,1/2+x
58 1/2-y,z,1/2-x
59 1/2+y,-z,1/2-x
60 1/2-y,-z,1/2+x
61 1/2+y,x,1/2-z
62 1/2-y,-x,1/2-z
63 1/2+y,-x,1/2+z
64 1/2-y,x,1/2+z
65 1/2+x,z,1/2-y
66 1/2-x,z,1/2+y
67 1/2-x,-z,1/2-y
68 1/2+x,-z,1/2+y
69 1/2+z,y,1/2-x
70 1/2+z,-y,1/2+x
71 1/2-z,y,1/2+x
72 1/2-z,-y,1/2-x
73 1/2+x,1/2+y,z
74 1/2-x,1/2-y,z
75 1/2-x,1/2+y,-z
76 1/2+x,1/2-y,-z
77 1/2+z,1/2+x,y
78 1/2+z,1/2-x,-y
79 1/2-z,1/2-x,y
80 1/2-z,1/2+x,-y
81 1/2+y,1/2+z,x
82 1/2-y,1/2+z,-x
83 1/2+y,1/2-z,-x
84 1/2-y,1/2-z,x
85 1/2+y,1/2+x,-z
86 1/2-y,1/2-x,-z
87 1/2+y,1/2-x,z
88 1/2-y,1/2+x,z
89 1/2+x,1/2+z,-y
90 1/2-x,1/2+z,y
91 1/2-x,1/2-z,-y
92 1/2+x,1/2-z,y
93 1/2+z,1/2+y,-x
94 1/2+z,1/2-y,x
95 1/2-z,1/2+y,x
96 1/2-z,1/2-y,-x
97 -x,-y,-z
98 x,y,-z
99 x,-y,z
100 -x,y,z
101 -z,-x,-y
102 -z,x,y
103 z,x,-y
104 z,-x,y
105 -y,-z,-x
106 y,-z,x
107 -y,z,x
108 y,z,-x
109 -y,-x,z
110 y,x,z
111 -y,x,-z
112 y,-x,-z
113 -x,-z,y
114 x,-z,-y
115 x,z,y
116 -x,z,-y
117 -z,-y,x
118 -z,y,-x
119 z,-y,-x
120 z,y,x
121 -x,1/2-y,1/2-z
122 x,1/2+y,1/2-z
123 x,1/2-y,1/2+z
124 -x,1/2+y,1/2+z
125 -z,1/2-x,1/2-y
126 -z,1/2+x,1/2+y
127 z,1/2+x,1/2-y
128 z,1/2-x,1/2+y
129 -y,1/2-z,1/2-x
130 y,1/2-z,1/2+x
131 -y,1/2+z,1/2+x
132 y,1/2+z,1/2-x
133 -y,1/2-x,1/2+z
134 y,1/2+x,1/2+z
135 -y,1/2+x,1/2-z
136 y,1/2-x,1/2-z
137 -x,1/2-z,1/2+y
138 x,1/2-z,1/2-y
139 x,1/2+z,1/2+y
140 -x,1/2+z,1/2-y
141 -z,1/2-y,1/2+x
142 -z,1/2+y,1/2-x
143 z,1/2-y,1/2-x
144 z,1/2+y,1/2+x
145 1/2-x,-y,1/2-z
146 1/2+x,y,1/2-z
147 1/2+x,-y,1/2+z
148 1/2-x,y,1/2+z
149 1/2-z,-x,1/2-y
150 1/2-z,x,1/2+y
151 1/2+z,x,1/2-y
152 1/2+z,-x,1/2+y
153 1/2-y,-z,1/2-x
154 1/2+y,-z,1/2+x
155 1/2-y,z,1/2+x
156 1/2+y,z,1/2-x
157 1/2-y,-x,1/2+z
158 1/2+y,x,1/2+z
159 1/2-y,x,1/2-z
160 1/2+y,-x,1/2-z
161 1/2-x,-z,1/2+y
162 1/2+x,-z,1/2-y
163 1/2+x,z,1/2+y
164 1/2-x,z,1/2-y
165 1/2-z,-y,1/2+x
166 1/2-z,y,1/2-x
167 1/2+z,-y,1/2-x
168 1/2+z,y,1/2+x
169 1/2-x,1/2-y,-z
170 1/2+x,1/2+y,-z
171 1/2+x,1/2-y,z
172 1/2-x,1/2+y,z
173 1/2-z,1/2-x,-y
174 1/2-z,1/2+x,y
175 1/2+z,1/2+x,-y
176 1/2+z,1/2-x,y
177 1/2-y,1/2-z,-x
178 1/2+y,1/2-z,x
179 1/2-y,1/2+z,x
180 1/2+y,1/2+z,-x
181 1/2-y,1/2-x,z
182 1/2+y,1/2+x,z
183 1/2-y,1/2+x,-z
184 1/2+y,1/2-x,-z
185 1/2-x,1/2-z,y
186 1/2+x,1/2-z,-y
187 1/2+x,1/2+z,y
188 1/2-x,1/2+z,-y
189 1/2-z,1/2-y,x
190 1/2-z,1/2+y,-x
191 1/2+z,1/2-y,-x
192 1/2+z,1/2+y,x
_cell_length_a                   64.528(10)
_cell_length_b                   64.528(10)
_cell_length_c                   64.528(10)
_cell_angle_alpha                90
_cell_angle_beta                 90
_cell_angle_gamma                90
_cell_volume                     268686
_exptl_crystal_colour            blue
_exptl_crystal_description       plate
_cell_formula_units_Z            32
loop_
_atom_site_label
_atom_site_type_symbol
_atom_site_fract_x
_atom_site_fract_y
_atom_site_fract_z
_atom_site_U_iso_or_equiv
_atom_site_thermal_displace_type
Cu1 Cu 0.000(2) -0.385(2) -0.1150 0.3000 Uani
Cu2 Cu 0.000(3) -0.420(3) -0.0800 0.2333 Uani
O1 O 0.376(2) -0.405(2) -0.4780(9) 0.3000 Uani
O2 O 0.400(2) -0.429(2) -0.4780(12) 0.2667 Uani
C1 C 0.385(2) -0.420(2) -0.4725(13) 0.3000 Uani
C2 C 0.375(2) -0.4317(18) -0.4564(15) 0.3000 Uani
C3 C 0.384(3) -0.4495(17) -0.4495(17) 0.2667 Uani
H1 H 0.3955 -0.4563 -0.4562 0.3370 Uiso
C4 C 0.357(2) -0.424(2) -0.4484(16) 0.3000 Uani
H2 H 0.3522 -0.4114 -0.4541 0.3440 Uiso
C5 C 0.347(2) -0.4330(19) -0.4330(19) 0.3333 Uani
C6 C 0.328(2) -0.425(2) -0.425(2) 0.2667 Uani
C7 C 0.313(3) -0.418(2) -0.418(2) 0.2667 Uani
C8 C 0.295(3) -0.410(2) -0.410(2) 0.2667 Uani
C9 C 0.279(3) -0.404(2) -0.404(2) 0.2667 Uani
C10 C 0.261(3) -0.396(3) -0.396(3) 0.2667 Uani
C11 C 0.252(3) -0.378(3) -0.402(2) 0.3000 Uani
H3 H 0.2583 -0.3706 -0.4129 0.3510 Uiso
C12 C 0.234(3) -0.370(3) -0.394(3) 0.3000 Uani
H4 H 0.2288 -0.3577 -0.4001 0.3540 Uiso
C13 C 0.223(3) -0.379(3) -0.379(3) 0.3333 Uani
C14 C 0.204(3) -0.371(3) -0.371(3) 0.3333 Uani
C15 C 0.189(3) -0.364(3) -0.364(3) 0.3333 Uani
C16 C 0.170(4) -0.356(4) -0.356(4) 0.3000 Uani
C17 C 0.162(3) -0.338(3) -0.363(4) 0.3000 Uani
H5 H 0.1686 -0.3314 -0.3738 0.3720 Uiso
Cu1IA Cu 0.385(2) -0.3850 -0.500(2) 0.3000 Uani
Cu1EA Cu 0.1150 -0.500(2) -0.115(2) 0.3000 Uani
Cu1Q Cu 0.000(2) -0.1150 -0.385(2) 0.3000 Uani
Cu1UA Cu 0.1150 -0.115(2) -0.500(2) 0.3000 Uani
Cu1KA Cu 0.385(2) -0.500(2) -0.3850 0.3000 Uani
Cu2IA Cu 0.420(3) -0.4200 -0.500(3) 0.2333 Uani
Cu2EA Cu 0.0800 -0.500(3) -0.080(3) 0.2333 Uani
Cu2Q Cu 0.000(3) -0.0800 -0.420(3) 0.2333 Uani
Cu2UA Cu 0.0800 -0.080(3) -0.500(3) 0.2333 Uani
Cu2KA Cu 0.420(3) -0.500(3) -0.4200 0.2333 Uani
O1JD O 0.376(2) -0.4780(9) -0.405(2) 0.3000 Uani
O1XB O 0.0220(9) -0.124(2) -0.405(2) 0.3000 Uani
O1YF O 0.095(2) -0.124(2) -0.4780(9) 0.3000 Uani
O1KF O 0.0220(9) -0.405(2) -0.124(2) 0.3000 Uani
O1DB O 0.095(2) -0.4780(9) -0.124(2) 0.3000 Uani
O1AB O 0.0220(9) -0.376(2) -0.095(2) 0.3000 Uani
O1RB O -0.0220(9) -0.405(2) -0.124(2) 0.3000 Uani
O1RE O -0.0220(9) -0.376(2) -0.095(2) 0.3000 Uani
O2JD O 0.400(2) -0.4780(12) -0.429(2) 0.2667 Uani
O2XB O 0.0220(12) -0.100(2) -0.429(2) 0.2667 Uani
O2YF O 0.071(2) -0.100(2) -0.4780(12) 0.2667 Uani
O2KF O 0.0220(12) -0.429(2) -0.100(2) 0.2667 Uani
O2DB O 0.071(2) -0.4780(12) -0.100(2) 0.2667 Uani
O2AB O 0.0220(12) -0.400(2) -0.071(2) 0.2667 Uani
O2RB O -0.0220(12) -0.429(2) -0.100(2) 0.2667 Uani
O2RE O -0.0220(12) -0.400(2) -0.071(2) 0.2667 Uani
O2NB O 0.100(2) -0.5220(12) -0.071(2) 0.2667 Uani
O2WE O 0.071(2) -0.5220(12) -0.100(2) 0.2667 Uani
O2GF O 0.100(2) -0.4780(12) -0.071(2) 0.2667 Uani
C1JD C 0.385(2) -0.4725(13) -0.420(2) 0.3000 Uani
C1KF C 0.0275(13) -0.420(2) -0.115(2) 0.3000 Uani
C1DB C 0.080(2) -0.4725(13) -0.115(2) 0.3000 Uani
C1XB C 0.0275(13) -0.115(2) -0.420(2) 0.3000 Uani
C1YF C 0.080(2) -0.115(2) -0.4725(13) 0.3000 Uani
C2JD C 0.375(2) -0.4564(15) -0.4317(18) 0.3000 Uani
C2KF C 0.0436(15) -0.4317(18) -0.125(2) 0.3000 Uani
C2DB C 0.0683(18) -0.4564(15) -0.125(2) 0.3000 Uani
C2XB C 0.0436(15) -0.125(2) -0.4317(18) 0.3000 Uani
C2YF C 0.0683(18) -0.125(2) -0.4564(15) 0.3000 Uani
C3DB C 0.0505(17) -0.4495(17) -0.116(3) 0.2667 Uani
C3XB C 0.0505(17) -0.116(3) -0.4495(17) 0.2667 Uani
H1DB H 0.0437 -0.4562 -0.1045 0.3370 Uiso
H1XB H 0.0438 -0.1045 -0.4563 0.3370 Uiso
C4JD C 0.357(2) -0.4484(16) -0.424(2) 0.3000 Uani
C4DB C 0.076(2) -0.4484(16) -0.143(2) 0.3000 Uani
C4KF C 0.0516(16) -0.424(2) -0.143(2) 0.3000 Uani
C4XB C 0.0516(16) -0.143(2) -0.424(2) 0.3000 Uani
C4YF C 0.076(2) -0.143(2) -0.4484(16) 0.3000 Uani
H2JD H 0.3522 -0.4541 -0.4114 0.3440 Uiso
H2KF H 0.0459 -0.4114 -0.1478 0.3440 Uiso
H2DB H 0.0886 -0.4541 -0.1478 0.3440 Uiso
H2XB H 0.0459 -0.1478 -0.4114 0.3440 Uiso
H2YF H 0.0886 -0.1478 -0.4541 0.3440 Uiso
C5DB C 0.0670(19) -0.4330(19) -0.153(2) 0.3333 Uani
C5XB C 0.0670(19) -0.153(2) -0.4330(19) 0.3333 Uani
C6DB C 0.075(2) -0.425(2) -0.172(2) 0.2667 Uani
C6XB C 0.075(2) -0.172(2) -0.425(2) 0.2667 Uani
C7DB C 0.082(2) -0.418(2) -0.187(3) 0.2667 Uani
C7XB C 0.082(2) -0.187(3) -0.418(2) 0.2667 Uani
C8DB C 0.090(2) -0.410(2) -0.205(3) 0.2667 Uani
C8XB C 0.090(2) -0.205(3) -0.410(2) 0.2667 Uani
C9DB C 0.096(2) -0.404(2) -0.221(3) 0.2667 Uani
C9XB C 0.096(2) -0.221(3) -0.404(2) 0.2667 Uani
C10DB C 0.104(3) -0.396(3) -0.239(3) 0.2667 Uani
C10XB C 0.104(3) -0.239(3) -0.396(3) 0.2667 Uani
C11JD C 0.252(3) -0.402(2) -0.378(3) 0.3000 Uani
C11KF C 0.098(2) -0.378(3) -0.248(3) 0.3000 Uani
C11DB C 0.122(3) -0.402(2) -0.248(3) 0.3000 Uani
C11XB C 0.098(2) -0.248(3) -0.378(3) 0.3000 Uani
C11YF C 0.122(3) -0.248(3) -0.402(2) 0.3000 Uani
H3JD H 0.2583 -0.4129 -0.3706 0.3510 Uiso
H3KF H 0.0871 -0.3706 -0.2417 0.3510 Uiso
H3DB H 0.1294 -0.4129 -0.2417 0.3510 Uiso
H3XB H 0.0871 -0.2417 -0.3706 0.3510 Uiso
H3YF H 0.1294 -0.2417 -0.4129 0.3510 Uiso
C12JD C 0.234(3) -0.394(3) -0.370(3) 0.3000 Uani
C12DB C 0.130(3) -0.394(3) -0.266(3) 0.3000 Uani
C12KF C 0.106(3) -0.370(3) -0.266(3) 0.3000 Uani
C12XB C 0.106(3) -0.266(3) -0.370(3) 0.3000 Uani
C12YF C 0.130(3) -0.266(3) -0.394(3) 0.3000 Uani
H4JD H 0.2288 -0.4001 -0.3577 0.3540 Uiso
H4KF H 0.0999 -0.3577 -0.2712 0.3540 Uiso
H4DB H 0.1423 -0.4001 -0.2712 0.3540 Uiso
H4XB H 0.0999 -0.2712 -0.3577 0.3540 Uiso
H4YF H 0.1423 -0.2712 -0.4001 0.3540 Uiso
C13DB C 0.121(3) -0.379(3) -0.277(3) 0.3333 Uani
C13XB C 0.121(3) -0.277(3) -0.379(3) 0.3333 Uani
C14DB C 0.129(3) -0.371(3) -0.296(3) 0.3333 Uani
C14XB C 0.129(3) -0.296(3) -0.371(3) 0.3333 Uani
C15XB C 0.136(3) -0.311(3) -0.364(3) 0.3333 Uani
C15DB C 0.136(3) -0.364(3) -0.311(3) 0.3333 Uani
C16XB C 0.144(4) -0.330(4) -0.356(4) 0.3000 Uani
C16DB C 0.144(4) -0.356(4) -0.330(4) 0.3000 Uani
C17DB C 0.162(3) -0.363(4) -0.338(3) 0.3000 Uani
C17XB C 0.137(4) -0.338(3) -0.338(3) 0.3000 Uani
H5DB H 0.1686 -0.3738 -0.3314 0.3720 Uiso
H5XB H 0.1262 -0.3314 -0.3314 0.3720 Uiso
loop_
_atom_site_aniso_label
_atom_site_aniso_U_11
_atom_site_aniso_U_22
_atom_site_aniso_U_33
_atom_site_aniso_U_23
_atom_site_aniso_U_13
_atom_site_aniso_U_12
Cu1 0.3 0.3 0.3 0.1 0 0
Cu2 0.1 0.3 0.3 0.1 0 0
O1 0.4 0.3 0.2 0 0 0.1
O2 0.4 0.3 0.1 -0.1 0.1 0.1
C1 0.4 0.3 0.2 0 0.1 0.1
C2 0.4 0.3 0.2 0 0.1 0.1
C3 0.4 0.2 0.2 0 0.1 0.1
C4 0.4 0.3 0.2 0 0.1 0.1
C5 0.4 0.3 0.3 0 0.1 0.1
C6 0.4 0.2 0.2 0 0.1 0.1
C7 0.4 0.2 0.2 0 0.1 0.1
C8 0.4 0.2 0.2 0 0.1 0.1
C9 0.4 0.2 0.2 0 0.1 0.1
C10 0.4 0.2 0.2 0 0.1 0.1
C11 0.4 0.3 0.2 0.1 0.1 0.1
C12 0.4 0.3 0.2 0.1 0.1 0.1
C13 0.4 0.3 0.3 0.1 0.1 0.1
C14 0.4 0.3 0.3 0.1 0.1 0.1
C15 0.4 0.3 0.3 0.1 0.1 0.1
C16 0.3 0.3 0.3 0.1 0.1 0.1
C17 0.3 0.3 0.3 0.1 0.1 0.1
Cu1IA 0.3 0.3 0.3 0 0 0.1
Cu1EA 0.3 0.3 0.3 0 0.1 0
Cu1Q 0.3 0.3 0.3 0.1 0 0
Cu1UA 0.3 0.3 0.3 0 0 0.1
Cu1KA 0.3 0.3 0.3 0 0.1 0
Cu2IA 0.3 0.3 0.1 0 0 0.1
Cu2EA 0.3 0.1 0.3 0 0.1 0
Cu2Q 0.1 0.3 0.3 0.1 0 0
Cu2UA 0.3 0.3 0.1 0 0 0.1
Cu2KA 0.3 0.1 0.3 0 0.1 0
O1JD 0.4 0.2 0.3 0 0.1 0
O1XB 0.2 0.4 0.3 0.1 0 0
O1YF 0.3 0.4 0.2 0 0 0.1
O1KF 0.2 0.3 0.4 0.1 0 0
O1DB 0.3 0.2 0.4 0 0.1 0
O1AB 0.2 0.4 0.3 0.1 0 0
O1RB 0.2 0.3 0.4 0.1 0 0
O1RE 0.2 0.4 0.3 0.1 0 0
O2JD 0.4 0.1 0.3 -0.1 0.1 0.1
O2XB 0.1 0.4 0.3 0.1 -0.1 0.1
O2YF 0.3 0.4 0.1 0.1 -0.1 0.1
O2KF 0.1 0.3 0.4 0.1 0.1 -0.1
O2DB 0.3 0.1 0.4 0.1 0.1 -0.1
O2AB 0.1 0.4 0.3 0.1 0.1 -0.1
O2RB 0.1 0.3 0.4 0.1 -0.1 0.1
O2RE 0.1 0.4 0.3 0.1 -0.1 0.1
O2NB 0.4 0.1 0.3 -0.1 0.1 0.1
O2WE 0.3 0.1 0.4 -0.1 0.1 0.1
O2GF 0.4 0.1 0.3 0.1 0.1 -0.1
C1JD 0.4 0.2 0.3 0 0.1 0.1
C1KF 0.2 0.3 0.4 0.1 0.1 0
C1DB 0.3 0.2 0.4 0.1 0.1 0
C1XB 0.2 0.4 0.3 0.1 0 0.1
C1YF 0.3 0.4 0.2 0.1 0 0.1
C2JD 0.4 0.2 0.3 0 0.1 0.1
C2KF 0.2 0.3 0.4 0.1 0.1 0
C2DB 0.3 0.2 0.4 0.1 0.1 0
C2XB 0.2 0.4 0.3 0.1 0 0.1
C2YF 0.3 0.4 0.2 0.1 0 0.1
C3DB 0.2 0.2 0.4 0.1 0.1 0
C3XB 0.2 0.4 0.2 0.1 0 0.1
C4JD 0.4 0.2 0.3 0 0.1 0.1
C4DB 0.3 0.2 0.4 0.1 0.1 0
C4KF 0.2 0.3 0.4 0.1 0.1 0
C4XB 0.2 0.4 0.3 0.1 0 0.1
C4YF 0.3 0.4 0.2 0.1 0 0.1
C5DB 0.3 0.3 0.4 0.1 0.1 0
C5XB 0.3 0.4 0.3 0.1 0 0.1
C6DB 0.2 0.2 0.4 0.1 0.1 0
C6XB 0.2 0.4 0.2 0.1 0 0.1
C7DB 0.2 0.2 0.4 0.1 0.1 0
C7XB 0.2 0.4 0.2 0.1 0 0.1
C8DB 0.2 0.2 0.4 0.1 0.1 0
C8XB 0.2 0.4 0.2 0.1 0 0.1
C9DB 0.2 0.2 0.4 0.1 0.1 0
C9XB 0.2 0.4 0.2 0.1 0 0.1
C10DB 0.2 0.2 0.4 0.1 0.1 0
C10XB 0.2 0.4 0.2 0.1 0 0.1
C11JD 0.4 0.2 0.3 0.1 0.1 0.1
C11KF 0.2 0.3 0.4 0.1 0.1 0.1
C11DB 0.3 0.2 0.4 0.1 0.1 0.1
C11XB 0.2 0.4 0.3 0.1 0.1 0.1
C11YF 0.3 0.4 0.2 0.1 0.1 0.1
C12JD 0.4 0.2 0.3 0.1 0.1 0.1
C12DB 0.3 0.2 0.4 0.1 0.1 0.1
C12KF 0.2 0.3 0.4 0.1 0.1 0.1
C12XB 0.2 0.4 0.3 0.1 0.1 0.1
C12YF 0.3 0.4 0.2 0.1 0.1 0.1
C13DB 0.3 0.3 0.4 0.1 0.1 0.1
C13XB 0.3 0.4 0.3 0.1 0.1 0.1
C14DB 0.3 0.3 0.4 0.1 0.1 0.1
C14XB 0.3 0.4 0.3 0.1 0.1 0.1
C15XB 0.3 0.4 0.3 0.1 0.1 0.1
C15DB 0.3 0.3 0.4 0.1 0.1 0.1
C16XB 0.3 0.3 0.3 0.1 0.1 0.1
C16DB 0.3 0.3 0.3 0.1 0.1 0.1
C17DB 0.3 0.3 0.3 0.1 0.1 0.1
C17XB 0.3 0.3 0.3 0.1 0.1 0.1
loop_
_geom_bond_atom_site_label_1
_geom_bond_atom_site_label_2
_geom_bond_site_symmetry_1
_geom_bond_site_symmetry_2
Cu1 O1KF 1_555 1_555
Cu2 O2KF 1_555 1_555
O1 C1 1_555 1_555
O2 C1 1_555 1_555
C1 C2 1_555 1_555
C2 C3 1_555 1_555
C3 H1 1_555 1_555
C4 C2 1_555 1_555
H2 C4 1_555 1_555
C5 C4 1_555 1_555
C6 C5 1_555 1_555
C7 C6 1_555 1_555
C8 C7 1_555 1_555
C9 C8 1_555 1_555
C10 C9 1_555 1_555
C11 C10 1_555 1_555
H3 C11 1_555 1_555
C12 C11 1_555 1_555
H4 C12 1_555 1_555
C13 C12 1_555 1_555
C14 C13 1_555 1_555
C15 C14 1_555 1_555
C16 C15 1_555 1_555
C17 C16 1_555 1_555
H5 C17 1_555 1_555
Cu1IA O1 1_555 1_555
Cu1EA O1DB 1_555 1_555
Cu1Q O1XB 1_555 1_555
Cu1UA O1YF 1_555 1_555
Cu1KA O1JD 1_555 1_555
Cu2IA O2 1_555 1_555
Cu2EA O2DB 1_555 1_555
Cu2Q O2XB 1_555 1_555
Cu2UA O2YF 1_555 1_555
Cu2KA O2JD 1_555 1_555
O1JD C1JD 1_555 1_555
O1XB C1XB 1_555 1_555
O1YF C1YF 1_555 1_555
O1KF C1KF 1_555 1_555
O1DB C1DB 1_555 1_555
O1AB Cu1 1_555 1_555
O1RB Cu1 1_555 1_555
O1RE Cu1 1_555 1_555
O2JD C1JD 1_555 1_555
O2XB C1XB 1_555 1_555
O2YF C1YF 1_555 1_555
O2KF C1KF 1_555 1_555
O2DB C1DB 1_555 1_555
O2AB Cu2 1_555 1_555
O2RB Cu2 1_555 1_555
O2RE Cu2 1_555 1_555
O2NB Cu2EA 1_555 1_555
O2WE Cu2EA 1_555 1_555
O2GF Cu2EA 1_555 1_555
C1JD C2JD 1_555 1_555
C1KF C2KF 1_555 1_555
C1DB C2DB 1_555 1_555
C1XB C2XB 1_555 1_555
C1YF C2YF 1_555 1_555
C2JD C3 1_555 1_555
C2KF C3DB 1_555 1_555
C2DB C3DB 1_555 1_555
C2XB C3XB 1_555 1_555
C2YF C3XB 1_555 1_555
C3DB H1DB 1_555 1_555
C3XB H1XB 1_555 1_555
C4JD C5 1_555 1_555
C4DB C2DB 1_555 1_555
C4KF C2KF 1_555 1_555
C4XB C2XB 1_555 1_555
C4YF C2YF 1_555 1_555
H2JD C4JD 1_555 1_555
H2KF C4KF 1_555 1_555
H2DB C4DB 1_555 1_555
H2XB C4XB 1_555 1_555
H2YF C4YF 1_555 1_555
C5DB C4DB 1_555 1_555
C5XB C4XB 1_555 1_555
C6DB C5DB 1_555 1_555
C6XB C5XB 1_555 1_555
C7DB C6DB 1_555 1_555
C7XB C6XB 1_555 1_555
C8DB C7DB 1_555 1_555
C8XB C7XB 1_555 1_555
C9DB C8DB 1_555 1_555
C9XB C8XB 1_555 1_555
C10DB C9DB 1_555 1_555
C10XB C9XB 1_555 1_555
C11JD C10 1_555 1_555
C11KF C10DB 1_555 1_555
C11DB C10DB 1_555 1_555
C11XB C10XB 1_555 1_555
C11YF C10XB 1_555 1_555
H3JD C11JD 1_555 1_555
H3KF C11KF 1_555 1_555
H3DB C11DB 1_555 1_555
H3XB C11XB 1_555 1_555
H3YF C11YF 1_555 1_555
C12JD C13 1_555 1_555
C12DB C11DB 1_555 1_555
C12KF C11KF 1_555 1_555
C12XB C11XB 1_555 1_555
C12YF C11YF 1_555 1_555
H4JD C12JD 1_555 1_555
H4KF C12KF 1_555 1_555
H4DB C12DB 1_555 1_555
H4XB C12XB 1_555 1_555
H4YF C12YF 1_555 1_555
C13DB C12DB 1_555 1_555
C13XB C12XB 1_555 1_555
C14DB C13DB 1_555 1_555
C14XB C13XB 1_555 1_555
C15XB C14XB 1_555 1_555
C15DB C14DB 1_555 1_555
C16XB C17 1_555 1_555
C16DB C15DB 1_555 1_555
C17DB C16 1_555 1_555
C17XB C16XB 1_555 1_555
H5DB C17DB 1_555 1_555
H5XB C17XB 1_555 1_555
C2JD C4JD 1_555 1_555
C4KF C5DB 1_555 1_555
C4YF C5XB 1_555 1_555
C11JD C12JD 1_555 1_555
C12KF C13DB 1_555 1_555
C12YF C13XB 1_555 1_555
C15XB C16XB 1_555 1_555
C16DB C17DB 1_555 1_555
C16DB C17XB 1_555 1_555

#END
