
#######################################################################
#
#                 Cambridge Crystallographic Data Centre
#                                CCDC 
#
#######################################################################
#
# If this CIF has been generated from an entry in the Cambridge 
# Structural Database, then it will include bibliographic, chemical, 
# crystal, experimental, refinement or atomic coordinate data resulting 
# from the CCDC's data processing and validation procedures.
#
#######################################################################

data_SEMNIJ
_chemical_name_common            NU-110E
_chemical_formula_moiety         '(C78 H42 Cu3 O15)n'
_chemical_name_systematic        
'catena-[(\m~12~-1,3,5-tris(4-((4-((3,5-Dicarboxylatophenyl)ethynyl)phenyl)ethynyl)phenyl)benzene)-triaqua-tri-copper(ii) unknown solvate]'
_symmetry_cell_setting           cubic
_symmetry_space_group_name_H-M   'F m -3 m'
_symmetry_Int_Tables_number      225
_space_group_name_Hall           '-F 4 2 3'
loop_
_symmetry_equiv_pos_site_id
_symmetry_equiv_pos_as_xyz
1 x,y,z
2 -x,-y,z
3 -x,y,-z
4 x,-y,-z
5 z,x,y
6 z,-x,-y
7 -z,-x,y
8 -z,x,-y
9 y,z,x
10 -y,z,-x
11 y,-z,-x
12 -y,-z,x
13 y,x,-z
14 -y,-x,-z
15 y,-x,z
16 -y,x,z
17 x,z,-y
18 -x,z,y
19 -x,-z,-y
20 x,-z,y
21 z,y,-x
22 z,-y,x
23 -z,y,x
24 -z,-y,-x
25 x,1/2+y,1/2+z
26 -x,1/2-y,1/2+z
27 -x,1/2+y,1/2-z
28 x,1/2-y,1/2-z
29 z,1/2+x,1/2+y
30 z,1/2-x,1/2-y
31 -z,1/2-x,1/2+y
32 -z,1/2+x,1/2-y
33 y,1/2+z,1/2+x
34 -y,1/2+z,1/2-x
35 y,1/2-z,1/2-x
36 -y,1/2-z,1/2+x
37 y,1/2+x,1/2-z
38 -y,1/2-x,1/2-z
39 y,1/2-x,1/2+z
40 -y,1/2+x,1/2+z
41 x,1/2+z,1/2-y
42 -x,1/2+z,1/2+y
43 -x,1/2-z,1/2-y
44 x,1/2-z,1/2+y
45 z,1/2+y,1/2-x
46 z,1/2-y,1/2+x
47 -z,1/2+y,1/2+x
48 -z,1/2-y,1/2-x
49 1/2+x,y,1/2+z
50 1/2-x,-y,1/2+z
51 1/2-x,y,1/2-z
52 1/2+x,-y,1/2-z
53 1/2+z,x,1/2+y
54 1/2+z,-x,1/2-y
55 1/2-z,-x,1/2+y
56 1/2-z,x,1/2-y
57 1/2+y,z,1/2+x
58 1/2-y,z,1/2-x
59 1/2+y,-z,1/2-x
60 1/2-y,-z,1/2+x
61 1/2+y,x,1/2-z
62 1/2-y,-x,1/2-z
63 1/2+y,-x,1/2+z
64 1/2-y,x,1/2+z
65 1/2+x,z,1/2-y
66 1/2-x,z,1/2+y
67 1/2-x,-z,1/2-y
68 1/2+x,-z,1/2+y
69 1/2+z,y,1/2-x
70 1/2+z,-y,1/2+x
71 1/2-z,y,1/2+x
72 1/2-z,-y,1/2-x
73 1/2+x,1/2+y,z
74 1/2-x,1/2-y,z
75 1/2-x,1/2+y,-z
76 1/2+x,1/2-y,-z
77 1/2+z,1/2+x,y
78 1/2+z,1/2-x,-y
79 1/2-z,1/2-x,y
80 1/2-z,1/2+x,-y
81 1/2+y,1/2+z,x
82 1/2-y,1/2+z,-x
83 1/2+y,1/2-z,-x
84 1/2-y,1/2-z,x
85 1/2+y,1/2+x,-z
86 1/2-y,1/2-x,-z
87 1/2+y,1/2-x,z
88 1/2-y,1/2+x,z
89 1/2+x,1/2+z,-y
90 1/2-x,1/2+z,y
91 1/2-x,1/2-z,-y
92 1/2+x,1/2-z,y
93 1/2+z,1/2+y,-x
94 1/2+z,1/2-y,x
95 1/2-z,1/2+y,x
96 1/2-z,1/2-y,-x
97 -x,-y,-z
98 x,y,-z
99 x,-y,z
100 -x,y,z
101 -z,-x,-y
102 -z,x,y
103 z,x,-y
104 z,-x,y
105 -y,-z,-x
106 y,-z,x
107 -y,z,x
108 y,z,-x
109 -y,-x,z
110 y,x,z
111 -y,x,-z
112 y,-x,-z
113 -x,-z,y
114 x,-z,-y
115 x,z,y
116 -x,z,-y
117 -z,-y,x
118 -z,y,-x
119 z,-y,-x
120 z,y,x
121 -x,1/2-y,1/2-z
122 x,1/2+y,1/2-z
123 x,1/2-y,1/2+z
124 -x,1/2+y,1/2+z
125 -z,1/2-x,1/2-y
126 -z,1/2+x,1/2+y
127 z,1/2+x,1/2-y
128 z,1/2-x,1/2+y
129 -y,1/2-z,1/2-x
130 y,1/2-z,1/2+x
131 -y,1/2+z,1/2+x
132 y,1/2+z,1/2-x
133 -y,1/2-x,1/2+z
134 y,1/2+x,1/2+z
135 -y,1/2+x,1/2-z
136 y,1/2-x,1/2-z
137 -x,1/2-z,1/2+y
138 x,1/2-z,1/2-y
139 x,1/2+z,1/2+y
140 -x,1/2+z,1/2-y
141 -z,1/2-y,1/2+x
142 -z,1/2+y,1/2-x
143 z,1/2-y,1/2-x
144 z,1/2+y,1/2+x
145 1/2-x,-y,1/2-z
146 1/2+x,y,1/2-z
147 1/2+x,-y,1/2+z
148 1/2-x,y,1/2+z
149 1/2-z,-x,1/2-y
150 1/2-z,x,1/2+y
151 1/2+z,x,1/2-y
152 1/2+z,-x,1/2+y
153 1/2-y,-z,1/2-x
154 1/2+y,-z,1/2+x
155 1/2-y,z,1/2+x
156 1/2+y,z,1/2-x
157 1/2-y,-x,1/2+z
158 1/2+y,x,1/2+z
159 1/2-y,x,1/2-z
160 1/2+y,-x,1/2-z
161 1/2-x,-z,1/2+y
162 1/2+x,-z,1/2-y
163 1/2+x,z,1/2+y
164 1/2-x,z,1/2-y
165 1/2-z,-y,1/2+x
166 1/2-z,y,1/2-x
167 1/2+z,-y,1/2-x
168 1/2+z,y,1/2+x
169 1/2-x,1/2-y,-z
170 1/2+x,1/2+y,-z
171 1/2+x,1/2-y,z
172 1/2-x,1/2+y,z
173 1/2-z,1/2-x,-y
174 1/2-z,1/2+x,y
175 1/2+z,1/2+x,-y
176 1/2+z,1/2-x,y
177 1/2-y,1/2-z,-x
178 1/2+y,1/2-z,x
179 1/2-y,1/2+z,x
180 1/2+y,1/2+z,-x
181 1/2-y,1/2-x,z
182 1/2+y,1/2+x,z
183 1/2-y,1/2+x,-z
184 1/2+y,1/2-x,-z
185 1/2-x,1/2-z,y
186 1/2+x,1/2-z,-y
187 1/2+x,1/2+z,y
188 1/2-x,1/2+z,-y
189 1/2-z,1/2-y,x
190 1/2-z,1/2+y,-x
191 1/2+z,1/2-y,-x
192 1/2+z,1/2+y,x
_cell_length_a                   68.706(10)
_cell_length_b                   68.706(10)
_cell_length_c                   68.706(10)
_cell_angle_alpha                90
_cell_angle_beta                 90
_cell_angle_gamma                90
_cell_volume                     324328
_exptl_crystal_colour            blue
_exptl_crystal_description       block
_cell_formula_units_Z            32
loop_
_atom_site_label
_atom_site_type_symbol
_atom_site_fract_x
_atom_site_fract_y
_atom_site_fract_z
_atom_site_U_iso_or_equiv
_atom_site_thermal_displace_type
Cu1 Cu 0.39660(12) 0.60340(12) 0.5000 0.1953 Uani
Cu2 Cu 0.41788(12) 0.58212(12) 0.5000 0.1957 Uani
O1 O 0.3818(3) 0.5931(4) 0.5174(3) 0.2110 Uani
O2 O 0.4051(4) 0.5695(3) 0.5174(3) 0.2113 Uani
C1 C 0.3900(4) 0.5779(4) 0.5254(5) 0.2097 Uani
C2 C 0.3798(5) 0.5648(4) 0.5389(5) 0.2017 Uani
C3 C 0.3866(7) 0.5493(5) 0.5493(5) 0.2010 Uani
H1 H 0.3986 0.5448 0.5448 0.2410 Uiso
C4 C 0.3631(4) 0.5707(5) 0.5480(5) 0.2017 Uani
H2 H 0.3583 0.5825 0.5435 0.2420 Uiso
C5 C 0.3520(8) 0.5625(6) 0.5625(6) 0.2023 Uani
C6 C 0.3336(8) 0.5692(6) 0.5692(6) 0.2043 Uani
C7 C 0.3179(8) 0.5744(6) 0.5744(6) 0.2067 Uani
C8 C 0.3015(8) 0.5833(6) 0.5833(6) 0.2107 Uani
C9 C 0.2963(5) 0.6002(4) 0.5742(5) 0.2140 Uani
H3 H 0.3034 0.6065 0.5644 0.2570 Uiso
C10 C 0.2790(4) 0.6063(5) 0.5818(5) 0.2210 Uani
H4 H 0.2733 0.6175 0.5768 0.2650 Uiso
C11 C 0.2700(8) 0.5965(6) 0.5965(6) 0.2280 Uani
C12 C 0.2518(9) 0.6033(5) 0.6033(5) 0.2353 Uani
C13 C 0.2386(8) 0.6114(6) 0.6114(6) 0.2390 Uani
C14 C 0.2196(8) 0.6171(6) 0.6171(6) 0.2407 Uani
C15 C 0.2103(5) 0.6340(5) 0.6126(5) 0.2417 Uani
H5 H 0.2170 0.6423 0.6042 0.2900 Uiso
C16 C 0.1926(5) 0.6407(5) 0.6186(5) 0.2407 Uani
H6 H 0.1874 0.6512 0.6118 0.2890 Uiso
C17 C 0.1817(8) 0.6336(6) 0.6336(6) 0.2393 Uani
C18 C 0.1634(8) 0.6403(7) 0.6403(7) 0.2373 Uani
C19 C 0.1549(6) 0.6299(7) 0.6549(6) 0.2377 Uani
H7 H 0.1586 0.6174 0.6586 0.2850 Uiso
Cu1I Cu 0.39660(12) 0.5000 0.60340(12) 0.1953 Uani
Cu1AB Cu 0.0000 0.60340(12) 0.89660(12) 0.1953 Uani
Cu1DB Cu 0.10340(12) 0.5000 0.89660(12) 0.1953 Uani
Cu1XB Cu 0.0000 0.89660(12) 0.60340(12) 0.1953 Uani
Cu1UB Cu 0.10340(12) 0.89660(12) 0.5000 0.1953 Uani
Cu2I Cu 0.41788(12) 0.5000 0.58212(12) 0.1957 Uani
Cu2AB Cu 0.0000 0.58212(12) 0.91788(12) 0.1957 Uani
Cu2DB Cu 0.08212(12) 0.5000 0.91788(12) 0.1957 Uani
Cu2XB Cu 0.0000 0.91788(12) 0.58212(12) 0.1957 Uani
Cu2UB Cu 0.08212(12) 0.91788(12) 0.5000 0.1957 Uani
O1M O 0.4069(4) 0.6182(3) 0.4826(3) 0.2110 Uani
O1SC O 0.3818(3) 0.5931(4) 0.4826(3) 0.2110 Uani
O1DD O 0.4069(4) 0.6182(3) 0.5174(3) 0.2110 Uani
O1JD O 0.3818(3) 0.5174(3) 0.5931(4) 0.2110 Uani
O1KF O 0.0174(3) 0.5931(4) 0.8818(3) 0.2110 Uani
O1DB O 0.0931(4) 0.5174(3) 0.8818(3) 0.2110 Uani
O1XB O 0.0174(3) 0.8818(3) 0.5931(4) 0.2110 Uani
O1YF O 0.0931(4) 0.8818(3) 0.5174(3) 0.2110 Uani
O2M O 0.4305(3) 0.5949(4) 0.4826(3) 0.2113 Uani
O2SC O 0.4051(4) 0.5695(3) 0.4826(3) 0.2113 Uani
O2DD O 0.4305(3) 0.5949(4) 0.5174(3) 0.2113 Uani
O2JD O 0.4051(4) 0.5174(3) 0.5695(3) 0.2113 Uani
O2KF O 0.0174(3) 0.5695(3) 0.9051(4) 0.2113 Uani
O2DB O 0.0695(3) 0.5174(3) 0.9051(4) 0.2113 Uani
O2XB O 0.0174(3) 0.9051(4) 0.5695(3) 0.2113 Uani
O2YF O 0.0695(3) 0.9051(4) 0.5174(3) 0.2113 Uani
O2I O 0.4305(3) 0.5174(3) 0.5949(4) 0.2113 Uani
O2S O 0.4051(4) 0.4826(3) 0.5695(3) 0.2113 Uani
O2ZC O 0.4305(3) 0.4826(3) 0.5949(4) 0.2113 Uani
C1JD C 0.3900(4) 0.5254(5) 0.5779(4) 0.2097 Uani
C1KF C 0.0254(5) 0.5779(4) 0.8900(4) 0.2097 Uani
C1DB C 0.0779(4) 0.5254(5) 0.8900(4) 0.2097 Uani
C1XB C 0.0254(5) 0.8900(4) 0.5779(4) 0.2097 Uani
C1YF C 0.0779(4) 0.8900(4) 0.5254(5) 0.2097 Uani
C2JD C 0.3798(5) 0.5389(5) 0.5648(4) 0.2017 Uani
C2KF C 0.0389(5) 0.5648(4) 0.8798(5) 0.2017 Uani
C2DB C 0.0648(4) 0.5389(5) 0.8798(5) 0.2017 Uani
C2XB C 0.0389(5) 0.8798(5) 0.5648(4) 0.2017 Uani
C2YF C 0.0648(4) 0.8798(5) 0.5389(5) 0.2017 Uani
C3DB C 0.0493(5) 0.5493(5) 0.8866(7) 0.2010 Uani
C3XB C 0.0493(5) 0.8866(7) 0.5493(5) 0.2010 Uani
C4JD C 0.3631(4) 0.5480(5) 0.5707(5) 0.2017 Uani
C4DB C 0.0707(5) 0.5480(5) 0.8631(4) 0.2017 Uani
C4KF C 0.0480(5) 0.5707(5) 0.8631(4) 0.2017 Uani
C4XB C 0.0480(5) 0.8631(4) 0.5707(5) 0.2017 Uani
C4YF C 0.0707(5) 0.8631(4) 0.5480(5) 0.2017 Uani
H2JD H 0.3583 0.5435 0.5825 0.2420 Uiso
H2KF H 0.0435 0.5825 0.8583 0.2420 Uiso
H2DB H 0.0825 0.5435 0.8583 0.2420 Uiso
H2XB H 0.0435 0.8583 0.5825 0.2420 Uiso
H2YF H 0.0825 0.8583 0.5435 0.2420 Uiso
C5DB C 0.0625(6) 0.5625(6) 0.8520(8) 0.2023 Uani
C5XB C 0.0625(6) 0.8520(8) 0.5625(6) 0.2023 Uani
C6DB C 0.0692(6) 0.5692(6) 0.8336(8) 0.2043 Uani
C6XB C 0.0692(6) 0.8336(8) 0.5692(6) 0.2043 Uani
C7DB C 0.0744(6) 0.5744(6) 0.8179(8) 0.2067 Uani
C7XB C 0.0744(6) 0.8179(8) 0.5744(6) 0.2067 Uani
C8DB C 0.0833(6) 0.5833(6) 0.8015(8) 0.2107 Uani
C8XB C 0.0833(6) 0.8015(8) 0.5833(6) 0.2107 Uani
C9JD C 0.2963(5) 0.5742(5) 0.6002(4) 0.2140 Uani
C9KF C 0.0742(5) 0.6002(4) 0.7963(5) 0.2140 Uani
C9DB C 0.1002(4) 0.5742(5) 0.7963(5) 0.2140 Uani
C9XB C 0.0742(5) 0.7963(5) 0.6002(4) 0.2140 Uani
C9YF C 0.1002(4) 0.7963(5) 0.5742(5) 0.2140 Uani
H3JD H 0.3034 0.5644 0.6065 0.2570 Uiso
H3KF H 0.0644 0.6065 0.8034 0.2570 Uiso
H3DB H 0.1065 0.5644 0.8034 0.2570 Uiso
H3XB H 0.0644 0.8034 0.6065 0.2570 Uiso
H3YF H 0.1065 0.8034 0.5644 0.2570 Uiso
C10JD C 0.2790(4) 0.5818(5) 0.6063(5) 0.2210 Uani
C10DB C 0.1063(5) 0.5818(5) 0.7790(4) 0.2210 Uani
C10KF C 0.0818(5) 0.6063(5) 0.7790(4) 0.2210 Uani
C10XB C 0.0818(5) 0.7790(4) 0.6063(5) 0.2210 Uani
C10YF C 0.1063(5) 0.7790(4) 0.5818(5) 0.2210 Uani
H4JD H 0.2733 0.5768 0.6175 0.2650 Uiso
H4KF H 0.0768 0.6175 0.7733 0.2650 Uiso
H4DB H 0.1175 0.5768 0.7733 0.2650 Uiso
H4XB H 0.0768 0.7733 0.6175 0.2650 Uiso
H4YF H 0.1175 0.7733 0.5768 0.2650 Uiso
C11DB C 0.0965(6) 0.5965(6) 0.7700(8) 0.2280 Uani
C11XB C 0.0965(6) 0.7700(8) 0.5965(6) 0.2280 Uani
C12DB C 0.1033(5) 0.6033(5) 0.7518(9) 0.2353 Uani
C12XB C 0.1033(5) 0.7518(9) 0.6033(5) 0.2353 Uani
C13DB C 0.1114(6) 0.6114(6) 0.7386(8) 0.2390 Uani
C13XB C 0.1114(6) 0.7386(8) 0.6114(6) 0.2390 Uani
C14DB C 0.1171(6) 0.6171(6) 0.7196(8) 0.2407 Uani
C14XB C 0.1171(6) 0.7196(8) 0.6171(6) 0.2407 Uani
C15JD C 0.2103(5) 0.6126(5) 0.6340(5) 0.2417 Uani
C15KF C 0.1126(5) 0.6340(5) 0.7103(5) 0.2417 Uani
C15DB C 0.1340(5) 0.6126(5) 0.7103(5) 0.2417 Uani
C15XB C 0.1126(5) 0.7103(5) 0.6340(5) 0.2417 Uani
C15YF C 0.1340(5) 0.7103(5) 0.6126(5) 0.2417 Uani
H5JD H 0.2170 0.6042 0.6423 0.2900 Uiso
H5KF H 0.1042 0.6423 0.7170 0.2900 Uiso
H5DB H 0.1423 0.6042 0.7170 0.2900 Uiso
H5XB H 0.1042 0.7170 0.6423 0.2900 Uiso
H5YF H 0.1423 0.7170 0.6042 0.2900 Uiso
C16JD C 0.1926(5) 0.6186(5) 0.6407(5) 0.2407 Uani
C16DB C 0.1407(5) 0.6186(5) 0.6926(5) 0.2407 Uani
C16KF C 0.1186(5) 0.6407(5) 0.6926(5) 0.2407 Uani
C16XB C 0.1186(5) 0.6926(5) 0.6407(5) 0.2407 Uani
C16YF C 0.1407(5) 0.6926(5) 0.6186(5) 0.2407 Uani
H6JD H 0.1874 0.6118 0.6512 0.2890 Uiso
H6KF H 0.1118 0.6512 0.6874 0.2890 Uiso
H6DB H 0.1512 0.6118 0.6874 0.2890 Uiso
H6XB H 0.1118 0.6874 0.6512 0.2890 Uiso
H6YF H 0.1512 0.6874 0.6118 0.2890 Uiso
C17DB C 0.1336(6) 0.6336(6) 0.6817(8) 0.2393 Uani
C17XB C 0.1336(6) 0.6817(8) 0.6336(6) 0.2393 Uani
C18DB C 0.1403(7) 0.6403(7) 0.6634(8) 0.2373 Uani
C18XB C 0.1403(7) 0.6634(8) 0.6403(7) 0.2373 Uani
C19XB C 0.1549(6) 0.6549(6) 0.6299(7) 0.2377 Uani
C19DB C 0.1299(7) 0.6549(6) 0.6549(6) 0.2377 Uani
H7XB H 0.1586 0.6586 0.6174 0.2850 Uiso
H7DB H 0.1174 0.6586 0.6586 0.2850 Uiso
loop_
_atom_site_aniso_label
_atom_site_aniso_U_11
_atom_site_aniso_U_22
_atom_site_aniso_U_33
_atom_site_aniso_U_23
_atom_site_aniso_U_13
_atom_site_aniso_U_12
Cu1 0.235(11) 0.235(11) 0.116(18) 0.000 0.000 0.001(11)
Cu2 0.209(11) 0.209(11) 0.169(18) 0.000 0.000 -0.025(11)
O1 0.263(15) 0.189(13) 0.181(15) 0.007(9) 0.039(9) 0.003(9)
O2 0.253(16) 0.200(12) 0.181(15) -0.003(9) 0.044(9) 0.002(9)
C1 0.255(15) 0.192(11) 0.182(12) 0.003(8) 0.038(7) 0.010(8)
C2 0.241(15) 0.182(11) 0.182(11) 0.005(9) 0.038(8) 0.025(8)
C3 0.237(18) 0.183(11) 0.183(11) 0.001(10) 0.030(9) 0.030(9)
C4 0.243(16) 0.179(11) 0.183(12) 0.007(11) 0.038(8) 0.031(9)
C5 0.241(16) 0.183(10) 0.183(10) 0.009(12) 0.039(8) 0.039(8)
C6 0.241(16) 0.186(11) 0.186(11) 0.011(13) 0.040(8) 0.040(8)
C7 0.242(16) 0.189(11) 0.189(11) 0.015(13) 0.042(9) 0.042(9)
C8 0.242(16) 0.195(11) 0.195(11) 0.018(13) 0.044(8) 0.044(8)
C9 0.242(16) 0.200(12) 0.200(12) 0.022(13) 0.045(10) 0.050(9)
C10 0.247(16) 0.208(12) 0.208(13) 0.025(13) 0.051(10) 0.054(9)
C11 0.250(17) 0.217(11) 0.217(11) 0.029(13) 0.059(9) 0.059(9)
C12 0.252(16) 0.227(11) 0.227(11) 0.033(14) 0.063(9) 0.063(9)
C13 0.253(16) 0.232(11) 0.232(11) 0.040(14) 0.067(9) 0.067(9)
C14 0.252(16) 0.235(11) 0.235(11) 0.045(14) 0.068(9) 0.068(9)
C15 0.250(15) 0.238(12) 0.237(13) 0.048(13) 0.069(10) 0.068(9)
C16 0.247(14) 0.238(12) 0.237(12) 0.049(12) 0.069(10) 0.066(9)
C17 0.244(14) 0.237(11) 0.237(11) 0.053(12) 0.065(9) 0.065(9)
C18 0.240(13) 0.236(11) 0.236(11) 0.057(11) 0.063(9) 0.063(9)
C19 0.239(12) 0.235(15) 0.239(12) 0.060(11) 0.061(11) 0.060(11)
Cu1I 0.235 0.116 0.235 0 0.001 0
Cu1AB 0.116 0.235 0.235 0.001 0 0
Cu1DB 0.235 0.116 0.235 0 0.001 0
Cu1XB 0.116 0.235 0.235 0.001 0 0
Cu1UB 0.235 0.235 0.116 0 0 0.001
Cu2I 0.209 0.169 0.209 0 -0.025 0
Cu2AB 0.169 0.209 0.209 -0.025 0 0
Cu2DB 0.209 0.169 0.209 0 -0.025 0
Cu2XB 0.169 0.209 0.209 -0.025 0 0
Cu2UB 0.209 0.209 0.169 0 0 -0.025
O1M 0.189 0.263 0.181 0.039 0.007 0.003
O1SC 0.263 0.189 0.181 -0.007 -0.039 0.003
O1DD 0.189 0.263 0.181 -0.039 -0.007 0.003
O1JD 0.263 0.181 0.189 0.007 0.003 0.039
O1KF 0.181 0.189 0.263 0.003 0.039 0.007
O1DB 0.189 0.181 0.263 0.039 0.003 0.007
O1XB 0.181 0.263 0.189 0.003 0.007 0.039
O1YF 0.189 0.263 0.181 0.039 0.007 0.003
O2M 0.2 0.253 0.181 0.044 -0.003 0.002
O2SC 0.253 0.2 0.181 0.003 -0.044 0.002
O2DD 0.2 0.253 0.181 -0.044 0.003 0.002
O2JD 0.253 0.181 0.2 -0.003 0.002 0.044
O2KF 0.181 0.2 0.253 0.002 0.044 -0.003
O2DB 0.2 0.181 0.253 0.044 0.002 -0.003
O2XB 0.181 0.253 0.2 0.002 -0.003 0.044
O2YF 0.2 0.253 0.181 0.044 -0.003 0.002
O2I 0.2 0.181 0.253 -0.044 0.002 0.003
O2S 0.253 0.181 0.2 0.003 0.002 -0.044
O2ZC 0.2 0.181 0.253 0.044 0.002 -0.003
C1JD 0.255 0.182 0.192 0.003 0.01 0.038
C1KF 0.182 0.192 0.255 0.01 0.038 0.003
C1DB 0.192 0.182 0.255 0.038 0.01 0.003
C1XB 0.182 0.255 0.192 0.01 0.003 0.038
C1YF 0.192 0.255 0.182 0.038 0.003 0.01
C2JD 0.241 0.182 0.182 0.005 0.025 0.038
C2KF 0.182 0.182 0.241 0.025 0.038 0.005
C2DB 0.182 0.182 0.241 0.038 0.025 0.005
C2XB 0.182 0.241 0.182 0.025 0.005 0.038
C2YF 0.182 0.241 0.182 0.038 0.005 0.025
C3DB 0.183 0.183 0.237 0.03 0.03 0.001
C3XB 0.183 0.237 0.183 0.03 0.001 0.03
C4JD 0.243 0.183 0.179 0.007 0.031 0.038
C4DB 0.179 0.183 0.243 0.038 0.031 0.007
C4KF 0.183 0.179 0.243 0.031 0.038 0.007
C4XB 0.183 0.243 0.179 0.031 0.007 0.038
C4YF 0.179 0.243 0.183 0.038 0.007 0.031
C5DB 0.183 0.183 0.241 0.039 0.039 0.009
C5XB 0.183 0.241 0.183 0.039 0.009 0.039
C6DB 0.186 0.186 0.241 0.04 0.04 0.011
C6XB 0.186 0.241 0.186 0.04 0.011 0.04
C7DB 0.189 0.189 0.242 0.042 0.042 0.015
C7XB 0.189 0.242 0.189 0.042 0.015 0.042
C8DB 0.195 0.195 0.242 0.044 0.044 0.018
C8XB 0.195 0.242 0.195 0.044 0.018 0.044
C9JD 0.242 0.2 0.2 0.022 0.05 0.045
C9KF 0.2 0.2 0.242 0.05 0.045 0.022
C9DB 0.2 0.2 0.242 0.045 0.05 0.022
C9XB 0.2 0.242 0.2 0.05 0.022 0.045
C9YF 0.2 0.242 0.2 0.045 0.022 0.05
C10JD 0.247 0.208 0.208 0.025 0.054 0.051
C10DB 0.208 0.208 0.247 0.051 0.054 0.025
C10KF 0.208 0.208 0.247 0.054 0.051 0.025
C10XB 0.208 0.247 0.208 0.054 0.025 0.051
C10YF 0.208 0.247 0.208 0.051 0.025 0.054
C11DB 0.217 0.217 0.25 0.059 0.059 0.029
C11XB 0.217 0.25 0.217 0.059 0.029 0.059
C12DB 0.227 0.227 0.252 0.063 0.063 0.033
C12XB 0.227 0.252 0.227 0.063 0.033 0.063
C13DB 0.232 0.232 0.253 0.067 0.067 0.04
C13XB 0.232 0.253 0.232 0.067 0.04 0.067
C14DB 0.235 0.235 0.252 0.068 0.068 0.045
C14XB 0.235 0.252 0.235 0.068 0.045 0.068
C15JD 0.25 0.237 0.238 0.048 0.068 0.069
C15KF 0.237 0.238 0.25 0.068 0.069 0.048
C15DB 0.238 0.237 0.25 0.069 0.068 0.048
C15XB 0.237 0.25 0.238 0.068 0.048 0.069
C15YF 0.238 0.25 0.237 0.069 0.048 0.068
C16JD 0.247 0.237 0.238 0.049 0.066 0.069
C16DB 0.238 0.237 0.247 0.069 0.066 0.049
C16KF 0.237 0.238 0.247 0.066 0.069 0.049
C16XB 0.237 0.247 0.238 0.066 0.049 0.069
C16YF 0.238 0.247 0.237 0.069 0.049 0.066
C17DB 0.237 0.237 0.244 0.065 0.065 0.053
C17XB 0.237 0.244 0.237 0.065 0.053 0.065
C18DB 0.236 0.236 0.24 0.063 0.063 0.057
C18XB 0.236 0.24 0.236 0.063 0.057 0.063
C19XB 0.239 0.239 0.235 0.06 0.06 0.061
C19DB 0.235 0.239 0.239 0.061 0.06 0.06
loop_
_geom_bond_atom_site_label_1
_geom_bond_atom_site_label_2
_geom_bond_site_symmetry_1
_geom_bond_site_symmetry_2
Cu1 O1 1_555 1_555
Cu2 O2 1_555 1_555
O1 C1 1_555 1_555
O2 C1 1_555 1_555
C1 C2 1_555 1_555
C2 C3 1_555 1_555
C3 H1 1_555 1_555
C4 C2 1_555 1_555
H2 C4 1_555 1_555
C5 C4 1_555 1_555
C6 C5 1_555 1_555
C7 C6 1_555 1_555
C8 C7 1_555 1_555
C9 C8 1_555 1_555
H3 C9 1_555 1_555
C10 C9 1_555 1_555
H4 C10 1_555 1_555
C11 C10 1_555 1_555
C12 C11 1_555 1_555
C13 C12 1_555 1_555
C14 C13 1_555 1_555
C15 C14 1_555 1_555
H5 C15 1_555 1_555
C16 C15 1_555 1_555
H6 C16 1_555 1_555
C17 C16 1_555 1_555
C18 C17 1_555 1_555
C19 C18 1_555 1_555
H7 C19 1_555 1_555
Cu1I O1JD 1_555 1_555
Cu1AB O1KF 1_555 1_555
Cu1DB O1DB 1_555 1_555
Cu1XB O1XB 1_555 1_555
Cu1UB O1YF 1_555 1_555
Cu2I O2JD 1_555 1_555
Cu2AB O2KF 1_555 1_555
Cu2DB O2DB 1_555 1_555
Cu2XB O2XB 1_555 1_555
Cu2UB O2YF 1_555 1_555
O1M Cu1 1_555 1_555
O1SC Cu1 1_555 1_555
O1DD Cu1 1_555 1_555
O1JD C1JD 1_555 1_555
O1KF C1KF 1_555 1_555
O1DB C1DB 1_555 1_555
O1XB C1XB 1_555 1_555
O1YF C1YF 1_555 1_555
O2M Cu2 1_555 1_555
O2SC Cu2 1_555 1_555
O2DD Cu2 1_555 1_555
O2JD C1JD 1_555 1_555
O2KF C1KF 1_555 1_555
O2DB C1DB 1_555 1_555
O2XB C1XB 1_555 1_555
O2YF C1YF 1_555 1_555
O2I Cu2I 1_555 1_555
O2S Cu2I 1_555 1_555
O2ZC Cu2I 1_555 1_555
C1JD C2JD 1_555 1_555
C1KF C2KF 1_555 1_555
C1DB C2DB 1_555 1_555
C1XB C2XB 1_555 1_555
C1YF C2YF 1_555 1_555
C2JD C3 1_555 1_555
C2KF C3DB 1_555 1_555
C2DB C3DB 1_555 1_555
C2XB C3XB 1_555 1_555
C2YF C3XB 1_555 1_555
C4JD C5 1_555 1_555
C4DB C2DB 1_555 1_555
C4KF C2KF 1_555 1_555
C4XB C2XB 1_555 1_555
C4YF C2YF 1_555 1_555
H2JD C4JD 1_555 1_555
H2KF C4KF 1_555 1_555
H2DB C4DB 1_555 1_555
H2XB C4XB 1_555 1_555
H2YF C4YF 1_555 1_555
C5DB C4DB 1_555 1_555
C5XB C4XB 1_555 1_555
C6DB C5DB 1_555 1_555
C6XB C5XB 1_555 1_555
C7DB C6DB 1_555 1_555
C7XB C6XB 1_555 1_555
C8DB C7DB 1_555 1_555
C8XB C7XB 1_555 1_555
C9JD C8 1_555 1_555
C9KF C8DB 1_555 1_555
C9DB C8DB 1_555 1_555
C9XB C8XB 1_555 1_555
C9YF C8XB 1_555 1_555
H3JD C9JD 1_555 1_555
H3KF C9KF 1_555 1_555
H3DB C9DB 1_555 1_555
H3XB C9XB 1_555 1_555
H3YF C9YF 1_555 1_555
C10JD C11 1_555 1_555
C10DB C9DB 1_555 1_555
C10KF C9KF 1_555 1_555
C10XB C9XB 1_555 1_555
C10YF C9YF 1_555 1_555
H4JD C10JD 1_555 1_555
H4KF C10KF 1_555 1_555
H4DB C10DB 1_555 1_555
H4XB C10XB 1_555 1_555
H4YF C10YF 1_555 1_555
C11DB C10DB 1_555 1_555
C11XB C10XB 1_555 1_555
C12DB C11DB 1_555 1_555
C12XB C11XB 1_555 1_555
C13DB C12DB 1_555 1_555
C13XB C12XB 1_555 1_555
C14DB C13DB 1_555 1_555
C14XB C13XB 1_555 1_555
C15JD C14 1_555 1_555
C15KF C14DB 1_555 1_555
C15DB C14DB 1_555 1_555
C15XB C14XB 1_555 1_555
C15YF C14XB 1_555 1_555
H5JD C15JD 1_555 1_555
H5KF C15KF 1_555 1_555
H5DB C15DB 1_555 1_555
H5XB C15XB 1_555 1_555
H5YF C15YF 1_555 1_555
C16JD C17 1_555 1_555
C16DB C15DB 1_555 1_555
C16KF C15KF 1_555 1_555
C16XB C15XB 1_555 1_555
C16YF C15YF 1_555 1_555
H6JD C16JD 1_555 1_555
H6KF C16KF 1_555 1_555
H6DB C16DB 1_555 1_555
H6XB C16XB 1_555 1_555
H6YF C16YF 1_555 1_555
C17DB C16DB 1_555 1_555
C17XB C16XB 1_555 1_555
C18DB C19 1_555 1_555
C18XB C17XB 1_555 1_555
C19XB C18 1_555 1_555
C19DB C18DB 1_555 1_555
H7XB C19XB 1_555 1_555
H7DB C19DB 1_555 1_555
C2JD C4JD 1_555 1_555
C4KF C5DB 1_555 1_555
C4YF C5XB 1_555 1_555
C9JD C10JD 1_555 1_555
C10KF C11DB 1_555 1_555
C10YF C11XB 1_555 1_555
C15JD C16JD 1_555 1_555
C16KF C17DB 1_555 1_555
C16YF C17XB 1_555 1_555
C17DB C18DB 1_555 1_555
C18XB C19XB 1_555 1_555
C18XB C19DB 1_555 1_555

#END
