
#######################################################################
#
#                 Cambridge Crystallographic Data Centre
#                                CCDC 
#
#######################################################################
#
# If this CIF has been generated from an entry in the Cambridge 
# Structural Database, then it will include bibliographic, chemical, 
# crystal, experimental, refinement or atomic coordinate data resulting 
# from the CCDC's data processing and validation procedures.
#
#######################################################################

data_LIWBEA
_chemical_formula_moiety         '(C44 H32 Cl4 N2 O12 Ru2)n,2n(C1 O2)'
_chemical_name_systematic        
'catena-[tetrakis(\m-4-chloro-2-methoxybenzoato)-(\m-phenazine)-di-ruthenium(ii) carbon dioxide]'
_symmetry_cell_setting           triclinic
_symmetry_space_group_name_H-M   'P -1'
_symmetry_Int_Tables_number      2
_space_group_name_Hall           '-P 1'
loop_
_symmetry_equiv_pos_site_id
_symmetry_equiv_pos_as_xyz
1 x,y,z
2 -x,-y,-z
_cell_length_a                   9.7304(3)
_cell_length_b                   11.9815(3)
_cell_length_c                   10.6288(4)
_cell_angle_alpha                85.399(4)
_cell_angle_beta                 101.235(6)
_cell_angle_gamma                83.334(4)
_cell_volume                     1200.45
_exptl_crystal_colour            'dark brown'
_cell_formula_units_Z            1
loop_
_atom_site_label
_atom_site_type_symbol
_atom_site_fract_x
_atom_site_fract_y
_atom_site_fract_z
_atom_site_U_iso_or_equiv
_atom_site_thermal_displace_type
C1 C 0.376(7) 0.560(7) 0.756(5) 0.0136 Uiso
C2 C 0.298(6) 0.605(6) 0.626(7) 0.0136 Uiso
C3 C 0.372(6) 0.630(7) 0.534(7) 0.0136 Uiso
C4 C 0.578(6) 0.652(5) 0.449(5) 0.0136 Uiso
C5 C 0.299(7) 0.671(6) 0.415(6) 0.0136 Uiso
C6 C 0.150(6) 0.686(6) 0.389(5) 0.0136 Uiso
C7 C 0.076(6) 0.662(6) 0.481(7) 0.0136 Uiso
C8 C 0.154(7) 0.620(6) 0.604(7) 0.0136 Uiso
Cl1 Cl 0.055(2) 0.735(2) 0.237(1) 0.0136 Uiso
O1 O 0.507(4) 0.545(4) 0.780(4) 0.0136 Uiso
O2 O 0.302(4) 0.542(4) 0.839(4) 0.0136 Uiso
O3 O 0.518(4) 0.616(4) 0.560(4) 0.0136 Uiso
N1 N 0.855(4) 0.487(6) 0.963(5) 0.0224 Uiso
C9 C 0.901(8) 0.579(7) 0.914(7) 0.0224 Uiso
C10 C 0.810(7) 0.662(6) 0.824(6) 0.0224 Uiso
C11 C 0.866(7) 0.752(6) 0.774(6) 0.0224 Uiso
C12 C 1.014(8) 0.766(5) 0.810(6) 0.0224 Uiso
C13 C 1.098(7) 0.686(6) 0.899(6) 0.0224 Uiso
C14 C 1.048(9) 0.591(6) 0.952(7) 0.0224 Uiso
Ru1 Ru 0.6066(6) 0.4947(7) 0.9684(8) 0.0076 Uiso
H1 H 0.54573 0.732 0.4216 0.0163 Uiso
H2 H 0.68147 0.63942 0.47415 0.0163 Uiso
H3 H 0.54719 0.60716 0.37808 0.0163 Uiso
H4 H 0.34721 0.68829 0.34944 0.0163 Uiso
H5 H -0.02228 0.67446 0.46311 0.0163 Uiso
H6 H 0.10731 0.60142 0.66954 0.0163 Uiso
H7 H 0.71406 0.65652 0.79958 0.0269 Uiso
H8 H 0.80667 0.80607 0.71356 0.0269 Uiso
H9 H 1.04922 0.82729 0.77442 0.0269 Uiso
H10 H 1.19316 0.69376 0.92551 0.0269 Uiso
C15 C 0.526(9) 0.704(5) 1.071(8) 0.0331 Uiso
C16 C 0.550(9) 0.817(5) 1.118(7) 0.0331 Uiso
C17 C 0.436(7) 0.894(7) 1.120(8) 0.0331 Uiso
C18 C 0.180(5) 0.946(5) 1.081(5) 0.0331 Uiso
C19 C 0.458(8) 1.000(6) 1.165(7) 0.0331 Uiso
C20 C 0.598(8) 1.023(5) 1.204(6) 0.0331 Uiso
C21 C 0.711(8) 0.947(7) 1.203(7) 0.0331 Uiso
C22 C 0.687(9) 0.845(6) 1.161(7) 0.0331 Uiso
Cl2 Cl 0.631(2) 1.150(1) 1.257(2) 0.0331 Uiso
O4 O 0.624(4) 0.653(4) 1.027(4) 0.0331 Uiso
O5 O 0.412(4) 0.667(4) 1.080(5) 0.0331 Uiso
O6 O 0.301(5) 0.867(4) 1.078(4) 0.0331 Uiso
H11 H 0.18134 1.01592 1.02728 0.0397 Uiso
H12 H 0.09372 0.91344 1.04867 0.0397 Uiso
H13 H 0.18157 0.96273 1.17031 0.0397 Uiso
H14 H 0.3823 1.0535 1.16841 0.0397 Uiso
H15 H 0.80268 0.96362 1.22886 0.0397 Uiso
H16 H 0.76371 0.79097 1.16071 0.0397 Uiso
C9A C 1.099(8) 0.421(7) 1.086(7) 0.0224 Uiso
C10A C 1.190(7) 0.338(6) 1.176(6) 0.0224 Uiso
C11A C 1.134(7) 0.248(6) 1.226(6) 0.0224 Uiso
H7A H 1.28594 0.34348 1.20042 0.0269 Uiso
H8A H 1.19333 0.19393 1.28644 0.0269 Uiso
C12A C 0.986(8) 0.234(5) 1.190(6) 0.0224 Uiso
C13A C 0.902(7) 0.314(6) 1.101(6) 0.0224 Uiso
C14A C 0.952(9) 0.409(6) 1.048(7) 0.0224 Uiso
H9A H 0.95078 0.17271 1.22558 0.0269 Uiso
H10A H 0.80684 0.30624 1.07449 0.0269 Uiso
N1A N 1.145(4) 0.513(6) 1.037(5) 0.0224 Uiso
C1A C 0.624(7) 0.440(7) 1.244(5) 0.0136 Uiso
C2A C 0.702(6) 0.395(6) 1.374(7) 0.0136 Uiso
C3A C 0.628(6) 0.370(7) 1.466(7) 0.0136 Uiso
C4A C 0.422(6) 0.348(5) 1.551(5) 0.0136 Uiso
C5A C 0.701(7) 0.329(6) 1.585(6) 0.0136 Uiso
C6A C 0.850(6) 0.314(6) 1.611(5) 0.0136 Uiso
C7A C 0.924(6) 0.338(6) 1.519(7) 0.0136 Uiso
C8A C 0.846(7) 0.380(6) 1.396(7) 0.0136 Uiso
Cl1A Cl 0.945(2) 0.265(2) 1.763(1) 0.0136 Uiso
O1A O 0.493(4) 0.455(4) 1.220(4) 0.0136 Uiso
O2A O 0.698(4) 0.458(4) 1.161(4) 0.0136 Uiso
O3A O 0.482(4) 0.384(4) 1.440(4) 0.0136 Uiso
Ru1A Ru 0.3934(6) 0.5053(7) 1.0316(8) 0.0076 Uiso
H1A H 0.45427 0.268 1.5784 0.0163 Uiso
H2A H 0.31853 0.36058 1.52585 0.0163 Uiso
H3A H 0.45281 0.39284 1.62192 0.0163 Uiso
H4A H 0.65279 0.31171 1.65056 0.0163 Uiso
H5A H 1.02228 0.32554 1.53689 0.0163 Uiso
H6A H 0.89269 0.39858 1.33046 0.0163 Uiso
C15A C 0.474(9) 0.296(5) 0.929(8) 0.0331 Uiso
C16A C 0.450(9) 0.183(5) 0.882(7) 0.0331 Uiso
C17A C 0.564(7) 0.106(7) 0.880(8) 0.0331 Uiso
C18A C 0.820(5) 0.054(5) 0.919(5) 0.0331 Uiso
C19A C 0.542(8) 0.000(6) 0.835(7) 0.0331 Uiso
C20A C 0.402(8) -0.023(5) 0.796(6) 0.0331 Uiso
C21A C 0.289(8) 0.053(7) 0.797(7) 0.0331 Uiso
C22A C 0.313(9) 0.155(6) 0.839(7) 0.0331 Uiso
Cl2A Cl 0.369(2) -0.150(1) 0.743(2) 0.0331 Uiso
O4A O 0.376(4) 0.347(4) 0.973(4) 0.0331 Uiso
O5A O 0.588(4) 0.333(4) 0.920(5) 0.0331 Uiso
O6A O 0.699(5) 0.133(4) 0.922(4) 0.0331 Uiso
H11A H 0.81866 -0.01592 0.97272 0.0397 Uiso
H12A H 0.90628 0.08656 0.95133 0.0397 Uiso
H13A H 0.81843 0.03727 0.82969 0.0397 Uiso
H14A H 0.6177 -0.0535 0.83159 0.0397 Uiso
H15A H 0.19732 0.03638 0.77114 0.0397 Uiso
H16A H 0.23629 0.20903 0.83929 0.0397 Uiso
N1A_2 N 0.145(4) 0.513(6) 1.037(5) 0.0224 Uiso
Ru1A_2 Ru 1.3934(6) 0.5053(7) 1.0316(8) 0.0076 Uiso
C23 C 0.246(9) 0.00(2) 0.47(2) 0.2178 Uiso
O7 O 0.369(5) 0.00(1) 0.479(9) 0.2178 Uiso
O8 O 0.123(6) 0.01(1) 0.451(8) 0.2178 Uiso
loop_
_geom_bond_atom_site_label_1
_geom_bond_atom_site_label_2
_geom_bond_site_symmetry_1
_geom_bond_site_symmetry_2
C1 C2 1_555 1_555
C2 C3 1_555 1_555
C3 C5 1_555 1_555
C4 O3 1_555 1_555
C5 C6 1_555 1_555
C6 C7 1_555 1_555
C7 C8 1_555 1_555
C8 C2 1_555 1_555
Cl1 C6 1_555 1_555
O1 C1 1_555 1_555
O2 C1 1_555 1_555
O3 C3 1_555 1_555
N1 C9 1_555 1_555
C9 C10 1_555 1_555
C10 C11 1_555 1_555
C11 C12 1_555 1_555
C12 C13 1_555 1_555
C13 C14 1_555 1_555
C14 C9 1_555 1_555
Ru1 O1 1_555 1_555
H1 C4 1_555 1_555
H2 C4 1_555 1_555
H3 C4 1_555 1_555
H4 C5 1_555 1_555
H5 C7 1_555 1_555
H6 C8 1_555 1_555
H7 C10 1_555 1_555
H8 C11 1_555 1_555
H9 C12 1_555 1_555
H10 C13 1_555 1_555
C15 C16 1_555 1_555
C16 C17 1_555 1_555
C17 C19 1_555 1_555
C18 O6 1_555 1_555
C19 C20 1_555 1_555
C20 C21 1_555 1_555
C21 C22 1_555 1_555
C22 C16 1_555 1_555
Cl2 C20 1_555 1_555
O4 Ru1 1_555 1_555
O5 C15 1_555 1_555
O6 C17 1_555 1_555
H11 C18 1_555 1_555
H12 C18 1_555 1_555
H13 C18 1_555 1_555
H14 C19 1_555 1_555
H15 C21 1_555 1_555
H16 C22 1_555 1_555
C23 O7 1_555 1_555
O8 C23 1_555 1_555
C9A C10A 1_555 1_555
C10A C11A 1_555 1_555
C11A H8A 1_555 1_555
H7A C10A 1_555 1_555
C12A C11A 1_555 1_555
C13A C12A 1_555 1_555
C14A N1 1_555 1_555
H9A C12A 1_555 1_555
H10A C13A 1_555 1_555
N1A C14 1_555 1_555
C1A C2A 1_555 1_555
C2A C3A 1_555 1_555
C3A C5A 1_555 1_555
C4A O3A 1_555 1_555
C5A C6A 1_555 1_555
C6A C7A 1_555 1_555
C7A C8A 1_555 1_555
C8A C2A 1_555 1_555
Cl1A C6A 1_555 1_555
O1A C1A 1_555 1_555
O2A Ru1 1_555 1_555
O3A C3A 1_555 1_555
Ru1A O2 1_555 1_555
H1A C4A 1_555 1_555
H2A C4A 1_555 1_555
H3A C4A 1_555 1_555
H4A C5A 1_555 1_555
H5A C7A 1_555 1_555
H6A C8A 1_555 1_555
C15A C16A 1_555 1_555
C16A C17A 1_555 1_555
C17A C19A 1_555 1_555
C18A O6A 1_555 1_555
C19A C20A 1_555 1_555
C20A C21A 1_555 1_555
C21A C22A 1_555 1_555
C22A C16A 1_555 1_555
Cl2A C20A 1_555 1_555
O4A Ru1A 1_555 1_555
O5A Ru1 1_555 1_555
O6A C17A 1_555 1_555
H11A C18A 1_555 1_555
H12A C18A 1_555 1_555
H13A C18A 1_555 1_555
H14A C19A 1_555 1_555
H15A C21A 1_555 1_555
H16A C22A 1_555 1_555
N1A_2 Ru1A 1_555 1_555
Ru1A_2 N1A 1_555 1_555
N1 Ru1 1_555 1_555
Ru1 Ru1A 1_555 1_555
C15 O4 1_555 1_555
O5 Ru1A 1_555 1_555
C9A C14A 1_555 1_555
C9A N1A 1_555 1_555
C13A C14A 1_555 1_555
C1A O2A 1_555 1_555
O1A Ru1A 1_555 1_555
C15A O4A 1_555 1_555
C15A O5A 1_555 1_555

#END
