
#######################################################################
#
#                 Cambridge Crystallographic Data Centre
#                                CCDC 
#
#######################################################################
#
# If this CIF has been generated from an entry in the Cambridge 
# Structural Database, then it will include bibliographic, chemical, 
# crystal, experimental, refinement or atomic coordinate data resulting 
# from the CCDC's data processing and validation procedures.
#
#######################################################################

data_LIWCIF
_chemical_formula_moiety         '(C44 H32 Cl4 N2 O12 Ru2)n,4n(C1 H2 Cl2)'
_chemical_name_systematic        
'catena-[tetrakis(\m-4-chloro-2-methoxybenzoato)-(\m-phenazine)-di-ruthenium dichloromethane solvate]'
_symmetry_cell_setting           triclinic
_symmetry_space_group_name_H-M   'P -1'
_symmetry_Int_Tables_number      2
_space_group_name_Hall           '-P 1'
loop_
_symmetry_equiv_pos_site_id
_symmetry_equiv_pos_as_xyz
1 x,y,z
2 -x,-y,-z
_cell_length_a                   9.697(2)
_cell_length_b                   12.025(3)
_cell_length_c                   12.608(3)
_cell_angle_alpha                87.81(3)
_cell_angle_beta                 77.56(2)
_cell_angle_gamma                83.71(2)
_cell_volume                     1426.85
_exptl_crystal_colour            brown
_exptl_crystal_description       platelet
_cell_formula_units_Z            1
loop_
_atom_site_label
_atom_site_type_symbol
_atom_site_fract_x
_atom_site_fract_y
_atom_site_fract_z
Ru1 Ru 0.37908(5) 0.51064(4) 0.01578(4)
Cl1 Cl 0.4985(3) 0.2853(2) 0.66200(17)
Cl2 Cl 0.4621(3) -0.16828(16) -0.20832(18)
O1 O 0.3705(5) 0.4719(4) 0.1777(4)
O2 O 0.6078(5) 0.4503(4) 0.1464(4)
O3 O 0.2327(6) 0.4020(6) 0.3627(5)
O4 O 0.3830(5) 0.3459(4) -0.0237(4)
O5 O 0.6206(5) 0.3247(4) -0.0561(4)
O6 O 0.7419(5) 0.1206(4) -0.0879(5)
N1 N 0.1283(5) 0.5205(4) 0.0318(4)
C1 C 0.4866(7) 0.4481(6) 0.2092(6)
C2 C 0.4823(8) 0.4113(6) 0.3240(6)
C3 C 0.3579(8) 0.3864(7) 0.3968(6)
C4 C 0.1099(10) 0.3658(11) 0.4355(8)
C5 C 0.3639(9) 0.3472(7) 0.5009(6)
C6 C 0.4941(10) 0.3332(7) 0.5304(7)
C7 C 0.6188(10) 0.3578(8) 0.4617(7)
C8 C 0.6096(9) 0.3964(7) 0.3570(6)
C9 C 0.5019(7) 0.2888(6) -0.0542(6)
C10 C 0.5014(7) 0.1722(6) -0.0898(6)
C11 C 0.6180(8) 0.0927(6) -0.1094(6)
C12 C 0.8667(8) 0.0414(7) -0.1121(7)
C13 C 0.6056(8) -0.0124(6) -0.1460(7)
C14 C 0.4760(9) -0.0370(6) -0.1644(6)
C15 C 0.3580(9) 0.0418(6) -0.1480(6)
C16 C 0.3706(8) 0.1458(6) -0.1092(6)
C17 C 0.0600(7) 0.4283(6) 0.0672(5)
C18 C 0.1137(7) 0.3516(6) 0.1414(6)
C19 C 0.0494(7) 0.2599(6) 0.1762(6)
C20 C -0.0705(7) 0.2350(6) 0.1378(6)
C21 C -0.1278(8) 0.3071(6) 0.0698(6)
C22 C -0.0665(7) 0.4077(5) 0.0342(5)
H1 H 0.0265 0.3829 0.4033
H2 H 0.0944 0.4048 0.5046
H3 H 0.1249 0.2849 0.4485
H4 H 0.2802 0.3304 0.5508
H5 H 0.7067 0.3489 0.4844
H6 H 0.6936 0.4128 0.3072
H7 H 0.9504 0.0782 -0.1075
H8 H 0.8777 0.0130 -0.1856
H9 H 0.8567 -0.0210 -0.0596
H10 H 0.6853 -0.0673 -0.1585
H11 H 0.2708 0.0250 -0.1630
H12 H 0.2901 0.2000 -0.0954
H13 H 0.1957 0.3657 0.1664
H14 H 0.0847 0.2108 0.2273
H15 H -0.1112 0.1673 0.1599
H16 H -0.2095 0.2903 0.0459
N1A N -0.1283(5) 0.4795(4) -0.0318(4)
C17A C -0.0600(7) 0.5717(6) -0.0672(5)
C18A C -0.1137(7) 0.6484(6) -0.1414(6)
C19A C -0.0494(7) 0.7401(6) -0.1762(6)
C20A C 0.0705(7) 0.7650(6) -0.1378(6)
C21A C 0.1278(8) 0.6929(6) -0.0698(6)
C22A C 0.0665(7) 0.5923(5) -0.0342(5)
H13A H -0.1957 0.6343 -0.1664
H14A H -0.0847 0.7892 -0.2273
H15A H 0.1112 0.8327 -0.1599
H16A H 0.2095 0.7097 -0.0459
Ru1A Ru -0.37908(5) 0.48936(4) -0.01578(4)
Cl1A Cl -0.4985(3) 0.7147(2) -0.66200(17)
Cl2A Cl -0.4621(3) 1.16828(16) 0.20832(18)
O1A O -0.3705(5) 0.5281(4) -0.1777(4)
O2A O -0.6078(5) 0.5497(4) -0.1464(4)
O3A O -0.2327(6) 0.5980(6) -0.3627(5)
O4A O -0.3830(5) 0.6541(4) 0.0237(4)
O5A O -0.6206(5) 0.6753(4) 0.0561(4)
O6A O -0.7419(5) 0.8794(4) 0.0879(5)
C1A C -0.4866(7) 0.5519(6) -0.2092(6)
C2A C -0.4823(8) 0.5887(6) -0.3240(6)
C3A C -0.3579(8) 0.6136(7) -0.3968(6)
C4A C -0.1099(10) 0.6342(11) -0.4355(8)
C5A C -0.3639(9) 0.6528(7) -0.5009(6)
C6A C -0.4941(10) 0.6668(7) -0.5304(7)
C7A C -0.6188(10) 0.6422(8) -0.4617(7)
C8A C -0.6096(9) 0.6036(7) -0.3570(6)
C9A C -0.5019(7) 0.7112(6) 0.0542(6)
C10A C -0.5014(7) 0.8278(6) 0.0898(6)
C11A C -0.6180(8) 0.9073(6) 0.1094(6)
C12A C -0.8667(8) 0.9586(7) 0.1121(7)
C13A C -0.6056(8) 1.0124(6) 0.1460(7)
C14A C -0.4760(9) 1.0370(6) 0.1644(6)
C15A C -0.3580(9) 0.9582(6) 0.1480(6)
C16A C -0.3706(8) 0.8542(6) 0.1092(6)
H1A H -0.0265 0.6171 -0.4033
H2A H -0.0944 0.5952 -0.5046
H3A H -0.1249 0.7151 -0.4485
H4A H -0.2802 0.6696 -0.5508
H5A H -0.7067 0.6511 -0.4844
H6A H -0.6936 0.5872 -0.3072
H7A H -0.9504 0.9218 0.1075
H8A H -0.8777 0.9870 0.1856
H9A H -0.8567 1.0210 0.0596
H10A H -0.6853 1.0673 0.1585
H11A H -0.2708 0.9750 0.1630
H12A H -0.2901 0.8000 0.0954
Ru1_2 Ru -0.62092(5) 0.51064(4) 0.01578(4)
Ru1A_2 Ru 0.62092(5) 0.48936(4) -0.01578(4)
O2_2 O -0.3922(5) 0.4503(4) 0.1464(4)
O2A_2 O 0.3922(5) 0.5497(4) -0.1464(4)
O5_2 O -0.3794(5) 0.3247(4) -0.0561(4)
O5A_2 O 0.3794(5) 0.6753(4) 0.0561(4)
Cl3 Cl 0.8876(3) 0.2336(3) -0.3507(2)
Cl4 Cl 1.0804(3) 0.3315(3) -0.2424(2)
C23 C 0.9019(10) 0.3262(8) -0.2486(8)
H17 H 0.8594 0.4021 -0.2643
H18 H 0.8485 0.3009 -0.1774
Cl5 Cl 0.8698(6) 0.0756(4) -0.6005(4)
Cl6 Cl 0.6886(9) -0.0521(6) -0.4485(7)
C24 C 0.710(3) 0.018(4) -0.5628(18)
H19 H 0.6319 0.0792 -0.5575
H20 H 0.7022 -0.0322 -0.6211
loop_
_geom_bond_atom_site_label_1
_geom_bond_atom_site_label_2
_geom_bond_site_symmetry_1
_geom_bond_site_symmetry_2
Ru1 O1 1_555 1_555
Cl1 C6 1_555 1_555
Cl2 C14 1_555 1_555
O1 C1 1_555 1_555
O2 C1 1_555 1_555
O3 C3 1_555 1_555
O4 Ru1 1_555 1_555
O5 C9 1_555 1_555
O6 C11 1_555 1_555
N1 Ru1 1_555 1_555
C1 C2 1_555 1_555
C2 C3 1_555 1_555
C3 C5 1_555 1_555
C4 O3 1_555 1_555
C5 C6 1_555 1_555
C6 C7 1_555 1_555
C7 C8 1_555 1_555
C8 C2 1_555 1_555
C9 O4 1_555 1_555
C10 C9 1_555 1_555
C11 C10 1_555 1_555
C12 O6 1_555 1_555
C13 C11 1_555 1_555
C14 C13 1_555 1_555
C15 C14 1_555 1_555
C16 C10 1_555 1_555
C17 N1 1_555 1_555
C18 C17 1_555 1_555
C19 C18 1_555 1_555
C20 C19 1_555 1_555
C21 C20 1_555 1_555
C22 C17 1_555 1_555
H1 C4 1_555 1_555
H2 C4 1_555 1_555
H3 C4 1_555 1_555
H4 C5 1_555 1_555
H5 C7 1_555 1_555
H6 C8 1_555 1_555
H7 C12 1_555 1_555
H8 C12 1_555 1_555
H9 C12 1_555 1_555
H10 C13 1_555 1_555
H11 C15 1_555 1_555
H12 C16 1_555 1_555
H13 C18 1_555 1_555
H14 C19 1_555 1_555
H15 C20 1_555 1_555
H16 C21 1_555 1_555
Cl3 C23 1_555 1_555
Cl4 C23 1_555 1_555
C23 H17 1_555 1_555
H18 C23 1_555 1_555
Cl5 C24 1_555 1_555
Cl6 C24 1_555 1_555
C24 H19 1_555 1_555
H20 C24 1_555 1_555
N1A C22 1_555 1_555
C17A N1A 1_555 1_555
C18A C17A 1_555 1_555
C19A C18A 1_555 1_555
C20A C19A 1_555 1_555
C21A C20A 1_555 1_555
C22A N1 1_555 1_555
H13A C18A 1_555 1_555
H14A C19A 1_555 1_555
H15A C20A 1_555 1_555
H16A C21A 1_555 1_555
Ru1A N1A 1_555 1_555
Cl1A C6A 1_555 1_555
Cl2A C14A 1_555 1_555
O1A Ru1A 1_555 1_555
O2A C1A 1_555 1_555
O3A C3A 1_555 1_555
O4A Ru1A 1_555 1_555
O5A C9A 1_555 1_555
O6A C11A 1_555 1_555
C1A O1A 1_555 1_555
C2A C1A 1_555 1_555
C3A C2A 1_555 1_555
C4A O3A 1_555 1_555
C5A C3A 1_555 1_555
C6A C5A 1_555 1_555
C7A C6A 1_555 1_555
C8A C2A 1_555 1_555
C9A O4A 1_555 1_555
C10A C9A 1_555 1_555
C11A C10A 1_555 1_555
C12A O6A 1_555 1_555
C13A C11A 1_555 1_555
C14A C13A 1_555 1_555
C15A C14A 1_555 1_555
C16A C10A 1_555 1_555
H1A C4A 1_555 1_555
H2A C4A 1_555 1_555
H3A C4A 1_555 1_555
H4A C5A 1_555 1_555
H5A C7A 1_555 1_555
H6A C8A 1_555 1_555
H7A C12A 1_555 1_555
H8A C12A 1_555 1_555
H9A C12A 1_555 1_555
H10A C13A 1_555 1_555
H11A C15A 1_555 1_555
H12A C16A 1_555 1_555
Ru1_2 Ru1A 1_555 1_555
Ru1A_2 Ru1 1_555 1_555
O2_2 Ru1A 1_555 1_555
O2A_2 Ru1 1_555 1_555
O5_2 Ru1A 1_555 1_555
O5A_2 Ru1 1_555 1_555
O2 Ru1A_2 1_555 1_555
O5 Ru1A_2 1_555 1_555
C15 C16 1_555 1_555
C21 C22 1_555 1_555
C17A C22A 1_555 1_555
C21A C22A 1_555 1_555
O2A Ru1_2 1_555 1_555
O5A Ru1_2 1_555 1_555
C7A C8A 1_555 1_555
C15A C16A 1_555 1_555

#END
