
#######################################################################
#
#                 Cambridge Crystallographic Data Centre
#                                CCDC 
#
#######################################################################
#
# If this CIF has been generated from an entry in the Cambridge 
# Structural Database, then it will include bibliographic, chemical, 
# crystal, experimental, refinement or atomic coordinate data resulting 
# from the CCDC's data processing and validation procedures.
#
#######################################################################

data_LIWQAL
_chemical_formula_moiety         '(C44 H32 Cl4 N2 O12 Rh2)n'
_chemical_name_systematic        
catena-[tetrakis(\m-4-chloro-2-methoxybenzoato)-(\m-phenazine)-di-rhodium]
_symmetry_cell_setting           triclinic
_symmetry_space_group_name_H-M   'P -1'
_symmetry_Int_Tables_number      2
_space_group_name_Hall           '-P 1'
loop_
_symmetry_equiv_pos_site_id
_symmetry_equiv_pos_as_xyz
1 x,y,z
2 -x,-y,-z
_cell_length_a                   9.7930(4)
_cell_length_b                   11.1753(4)
_cell_length_c                   10.6362(5)
_cell_angle_alpha                81.178(5)
_cell_angle_beta                 106.289(6)
_cell_angle_gamma                85.825(6)
_cell_volume                     1095.82
_exptl_crystal_colour            'dark green'
_cell_formula_units_Z            1
loop_
_atom_site_label
_atom_site_type_symbol
_atom_site_fract_x
_atom_site_fract_y
_atom_site_fract_z
_atom_site_U_iso_or_equiv
_atom_site_thermal_displace_type
N1 N 0.855(7) 0.49(1) 0.97(1) 0.0774 Uiso
C1 C 0.91(2) 0.58(1) 0.91(1) 0.0774 Uiso
C2 C 0.808(8) 0.67(1) 0.81(1) 0.0774 Uiso
C3 C 0.85(1) 0.77(1) 0.746(9) 0.0774 Uiso
C4 C 1.01(1) 0.78(1) 0.78(1) 0.0774 Uiso
C5 C 1.104(9) 0.69(1) 0.87(1) 0.0774 Uiso
C6 C 1.05(2) 0.59(1) 0.93(1) 0.0774 Uiso
Rh1 Rh 0.6137(8) 0.498(1) 0.975(1) 0.0293 Uiso
H1 H 0.71048 0.66839 0.79436 0.0929 Uiso
H2 H 0.78879 0.83013 0.68298 0.0929 Uiso
H3 H 1.03833 0.84453 0.73229 0.0929 Uiso
H4 H 1.20159 0.69299 0.88692 0.0929 Uiso
C7 C 0.364(9) 0.582(9) 0.751(7) 0.0236 Uiso
C8 C 0.285(9) 0.619(9) 0.609(8) 0.0236 Uiso
C9 C 0.357(9) 0.648(9) 0.519(9) 0.0236 Uiso
C10 C 0.564(6) 0.676(7) 0.448(7) 0.0236 Uiso
C11 C 0.279(9) 0.682(8) 0.384(9) 0.0236 Uiso
C12 C 0.136(8) 0.685(7) 0.345(7) 0.0236 Uiso
C13 C 0.067(8) 0.656(9) 0.441(9) 0.0236 Uiso
C14 C 0.141(9) 0.622(8) 0.574(8) 0.0236 Uiso
Cl1 Cl 0.041(2) 0.724(2) 0.178(2) 0.0236 Uiso
O1 O 0.497(5) 0.566(5) 0.784(6) 0.0236 Uiso
O2 O 0.292(4) 0.566(5) 0.830(6) 0.0236 Uiso
O3 O 0.504(5) 0.643(5) 0.558(6) 0.0236 Uiso
H5 H 0.53876 0.61929 0.3851 0.0283 Uiso
H6 H 0.6684 0.67004 0.48233 0.0283 Uiso
H7 H 0.52417 0.75923 0.40163 0.0283 Uiso
H8 H 0.32746 0.70163 0.32116 0.0283 Uiso
H9 H -0.03245 0.66012 0.41418 0.0283 Uiso
H10 H 0.09375 0.60229 0.63787 0.0283 Uiso
C15 C 0.53(1) 0.715(9) 1.06(1) 0.0891 Uiso
C16 C 0.57(1) 0.81(1) 1.14(1) 0.0891 Uiso
C17 C 0.46(1) 0.91(1) 1.12(1) 0.0891 Uiso
C18 C 0.207(8) 1.001(8) 1.035(9) 0.0891 Uiso
C19 C 0.50(1) 1.00(1) 1.20(1) 0.0891 Uiso
C20 C 0.64(1) 1.00(1) 1.28(1) 0.0891 Uiso
C21 C 0.75(1) 0.90(1) 1.29(1) 0.0891 Uiso
C22 C 0.71(1) 0.81(1) 1.22(1) 0.0891 Uiso
Cl2 Cl 0.684(3) 1.112(3) 1.374(3) 0.0891 Uiso
O4 O 0.624(7) 0.668(7) 1.019(7) 0.0891 Uiso
O5 O 0.405(7) 0.681(7) 1.041(7) 0.0891 Uiso
O6 O 0.323(5) 0.909(5) 1.037(7) 0.0891 Uiso
H11 H 0.23084 1.08257 1.00928 0.1070 Uiso
H12 H 0.11754 0.98865 0.97104 0.1070 Uiso
H13 H 0.19405 0.9927 1.12419 0.1070 Uiso
H14 H 0.4278 1.0659 1.18781 0.1070 Uiso
H15 H 0.83819 0.90121 1.34591 0.1070 Uiso
H16 H 0.77597 0.74509 1.22289 0.1070 Uiso
C1A C 1.09(2) 0.42(1) 1.09(1) 0.0774 Uiso
C2A C 1.192(8) 0.33(1) 1.19(1) 0.0774 Uiso
C3A C 1.15(1) 0.23(1) 1.254(9) 0.0774 Uiso
H1A H 1.28952 0.33161 1.20564 0.0929 Uiso
H2A H 1.21121 0.16987 1.31702 0.0929 Uiso
C5A C 0.896(9) 0.31(1) 1.13(1) 0.0774 Uiso
C6A C 0.95(2) 0.41(1) 1.07(1) 0.0774 Uiso
H4A H 0.79841 0.30701 1.11308 0.0929 Uiso
N1A N 1.145(7) 0.51(1) 1.03(1) 0.0774 Uiso
C4A C 0.99(1) 0.22(1) 1.22(1) 0.0774 Uiso
H3A H 0.96167 0.15547 1.26771 0.0929 Uiso
Rh1A Rh 0.3863(8) 0.502(1) 1.025(1) 0.0293 Uiso
C7A C 0.636(9) 0.418(9) 1.249(7) 0.0236 Uiso
C8A C 0.715(9) 0.381(9) 1.391(8) 0.0236 Uiso
C9A C 0.643(9) 0.352(9) 1.481(9) 0.0236 Uiso
C10A C 0.436(6) 0.324(7) 1.552(7) 0.0236 Uiso
C11A C 0.721(9) 0.318(8) 1.616(9) 0.0236 Uiso
C12A C 0.864(8) 0.315(7) 1.655(7) 0.0236 Uiso
C13A C 0.933(8) 0.344(9) 1.559(9) 0.0236 Uiso
C14A C 0.859(9) 0.378(8) 1.426(8) 0.0236 Uiso
Cl1A Cl 0.959(2) 0.276(2) 1.822(2) 0.0236 Uiso
O1A O 0.503(5) 0.434(5) 1.216(6) 0.0236 Uiso
O2A O 0.708(4) 0.434(5) 1.170(6) 0.0236 Uiso
O3A O 0.496(5) 0.357(5) 1.442(6) 0.0236 Uiso
H5A H 0.46124 0.38071 1.6149 0.0283 Uiso
H6A H 0.3316 0.32996 1.51767 0.0283 Uiso
H7A H 0.47583 0.24077 1.59837 0.0283 Uiso
H8A H 0.67254 0.29837 1.67884 0.0283 Uiso
H9A H 1.03245 0.33988 1.58582 0.0283 Uiso
H10A H 0.90625 0.39771 1.36213 0.0283 Uiso
C15A C 0.47(1) 0.285(9) 0.94(1) 0.0891 Uiso
C16A C 0.43(1) 0.19(1) 0.86(1) 0.0891 Uiso
C17A C 0.54(1) 0.09(1) 0.88(1) 0.0891 Uiso
C18A C 0.793(8) -0.001(8) 0.965(9) 0.0891 Uiso
C19A C 0.50(1) 0.00(1) 0.80(1) 0.0891 Uiso
C20A C 0.36(1) 0.00(1) 0.72(1) 0.0891 Uiso
C21A C 0.25(1) 0.10(1) 0.71(1) 0.0891 Uiso
C22A C 0.29(1) 0.19(1) 0.78(1) 0.0891 Uiso
Cl2A Cl 0.316(3) -0.112(3) 0.626(3) 0.0891 Uiso
O4A O 0.376(7) 0.332(7) 0.981(7) 0.0891 Uiso
O5A O 0.595(7) 0.319(7) 0.959(7) 0.0891 Uiso
O6A O 0.677(5) 0.091(5) 0.963(7) 0.0891 Uiso
H11A H 0.76916 -0.08257 0.99072 0.1070 Uiso
H12A H 0.88246 0.01135 1.02896 0.1070 Uiso
H13A H 0.80595 0.0073 0.87581 0.1070 Uiso
H14A H 0.5722 -0.0659 0.81219 0.1070 Uiso
H15A H 0.16181 0.09879 0.65409 0.1070 Uiso
H16A H 0.22403 0.25491 0.77711 0.1070 Uiso
N1A_2 N 0.145(7) 0.51(1) 1.03(1) 0.0774 Uiso
Rh1A_2 Rh 1.3863(8) 0.502(1) 1.025(1) 0.0293 Uiso
loop_
_geom_bond_atom_site_label_1
_geom_bond_atom_site_label_2
_geom_bond_site_symmetry_1
_geom_bond_site_symmetry_2
N1 C1 1_555 1_555
C1 C2 1_555 1_555
C2 C3 1_555 1_555
C3 C4 1_555 1_555
C4 C5 1_555 1_555
C5 C6 1_555 1_555
C6 C1 1_555 1_555
Rh1 N1 1_555 1_555
H1 C2 1_555 1_555
H2 C3 1_555 1_555
H3 C4 1_555 1_555
H4 C5 1_555 1_555
C7 C8 1_555 1_555
C8 C9 1_555 1_555
C9 C11 1_555 1_555
C10 O3 1_555 1_555
C11 C12 1_555 1_555
C12 C13 1_555 1_555
C13 C14 1_555 1_555
C14 C8 1_555 1_555
Cl1 C12 1_555 1_555
O1 Rh1 1_555 1_555
O2 C7 1_555 1_555
O3 C9 1_555 1_555
H5 C10 1_555 1_555
H6 C10 1_555 1_555
H7 C10 1_555 1_555
H8 C11 1_555 1_555
H9 C13 1_555 1_555
H10 C14 1_555 1_555
C15 C16 1_555 1_555
C16 C17 1_555 1_555
C17 C19 1_555 1_555
C18 O6 1_555 1_555
C19 C20 1_555 1_555
C20 C21 1_555 1_555
C21 C22 1_555 1_555
C22 C16 1_555 1_555
Cl2 C20 1_555 1_555
O4 Rh1 1_555 1_555
O5 C15 1_555 1_555
O6 C17 1_555 1_555
H11 C18 1_555 1_555
H12 C18 1_555 1_555
H13 C18 1_555 1_555
H14 C19 1_555 1_555
H15 C21 1_555 1_555
H16 C22 1_555 1_555
C1A C2A 1_555 1_555
C2A C3A 1_555 1_555
C3A H2A 1_555 1_555
H1A C2A 1_555 1_555
C5A C6A 1_555 1_555
C6A N1 1_555 1_555
H4A C5A 1_555 1_555
N1A C6 1_555 1_555
C4A C3A 1_555 1_555
H3A C4A 1_555 1_555
Rh1A Rh1 1_555 1_555
C7A C8A 1_555 1_555
C8A C9A 1_555 1_555
C9A C11A 1_555 1_555
C10A O3A 1_555 1_555
C11A C12A 1_555 1_555
C12A C13A 1_555 1_555
C13A C14A 1_555 1_555
C14A C8A 1_555 1_555
Cl1A C12A 1_555 1_555
O1A Rh1A 1_555 1_555
O2A Rh1 1_555 1_555
O3A C9A 1_555 1_555
H5A C10A 1_555 1_555
H6A C10A 1_555 1_555
H7A C10A 1_555 1_555
H8A C11A 1_555 1_555
H9A C13A 1_555 1_555
H10A C14A 1_555 1_555
C15A C16A 1_555 1_555
C16A C17A 1_555 1_555
C17A C19A 1_555 1_555
C18A O6A 1_555 1_555
C19A C20A 1_555 1_555
C20A C21A 1_555 1_555
C21A C22A 1_555 1_555
C22A C16A 1_555 1_555
Cl2A C20A 1_555 1_555
O4A Rh1A 1_555 1_555
O5A Rh1 1_555 1_555
O6A C17A 1_555 1_555
H11A C18A 1_555 1_555
H12A C18A 1_555 1_555
H13A C18A 1_555 1_555
H14A C19A 1_555 1_555
H15A C21A 1_555 1_555
H16A C22A 1_555 1_555
N1A_2 Rh1A 1_555 1_555
Rh1A_2 N1A 1_555 1_555
C7 O1 1_555 1_555
O2 Rh1A 1_555 1_555
C15 O4 1_555 1_555
O5 Rh1A 1_555 1_555
C1A C6A 1_555 1_555
C1A N1A 1_555 1_555
C5A C4A 1_555 1_555
C7A O1A 1_555 1_555
C7A O2A 1_555 1_555
C15A O4A 1_555 1_555
C15A O5A 1_555 1_555

#END
