
#######################################################################
#
#                 Cambridge Crystallographic Data Centre
#                                CCDC 
#
#######################################################################
#
# If this CIF has been generated from an entry in the Cambridge 
# Structural Database, then it will include bibliographic, chemical, 
# crystal, experimental, refinement or atomic coordinate data resulting 
# from the CCDC's data processing and validation procedures.
#
#######################################################################

data_UVANOV
_chemical_formula_moiety         '(C23 H15 Cu1 F6 N1 O4)n'
_chemical_name_systematic        
catena-((\m~4~-4,4'-(1,1,1,3,3,3-Hexafluoropropane-2,2-diyl)dibenzoato)-(3-methylpyridine)-copper)
_symmetry_cell_setting           orthorhombic
_symmetry_space_group_name_H-M   'C m c a'
_symmetry_Int_Tables_number      64
_space_group_name_Hall           '-C 2ac 2'
loop_
_symmetry_equiv_pos_site_id
_symmetry_equiv_pos_as_xyz
1 x,y,z
2 -x,1/2-y,1/2+z
3 x,-y,-z
4 -x,1/2+y,1/2-z
5 1/2+x,1/2+y,z
6 1/2-x,-y,1/2+z
7 1/2+x,1/2-y,-z
8 1/2-x,y,1/2-z
9 -x,-y,-z
10 x,1/2+y,1/2-z
11 -x,y,z
12 x,1/2-y,1/2+z
13 1/2-x,1/2-y,-z
14 1/2+x,y,1/2-z
15 1/2-x,1/2+y,z
16 1/2+x,-y,1/2+z
_cell_length_a                   21.561(3)
_cell_length_b                   14.717(2)
_cell_length_c                   17.745(3)
_cell_angle_alpha                90
_cell_angle_beta                 90
_cell_angle_gamma                90
_cell_volume                     5630.72
_exptl_crystal_colour            blue
_exptl_crystal_description       plate
_cell_formula_units_Z            8
loop_
_atom_site_label
_atom_site_type_symbol
_atom_site_fract_x
_atom_site_fract_y
_atom_site_fract_z
_atom_site_U_iso_or_equiv
_atom_site_thermal_displace_type
C1 C -0.0811(3) 0.4098(4) 0.4307(3) 0.0400 Uani
C2 C -0.1244(7) 0.3499(8) 0.3863(8) 0.0610 Uani
C3 C -0.1477(6) 0.2665(7) 0.4097(6) 0.0610 Uani
H1 H -0.1376 0.2440 0.4571 0.0730 Uiso
C4 C -0.1861(6) 0.2167(6) 0.3622(6) 0.0610 Uani
H2 H -0.2017 0.1609 0.3778 0.0730 Uiso
C5 C -0.2011(6) 0.2503(7) 0.2913(6) 0.0610 Uani
C6 C -0.1778(8) 0.3337(8) 0.2679(7) 0.0610 Uani
H3 H -0.1878 0.3562 0.2204 0.0730 Uiso
C7 C -0.1394(9) 0.3835(7) 0.3154(9) 0.0610 Uani
H4 H -0.1238 0.4393 0.2997 0.0730 Uiso
C8 C -0.2500 0.1982(10) 0.2500 0.0610 Uani
C9 C -0.2810(6) 0.1176(8) 0.2749(7) 0.0610 Uani
C10 C 0.0000 0.6340(7) 0.2845(6) 0.0647 Uani
H5 H 0.0000 0.5717 0.2757 0.0780 Uiso
C11 C 0.0000 0.6911(9) 0.2217(6) 0.0740 Uani
C12 C 0.0000 0.7853(10) 0.2394(8) 0.0887 Uani
H6 H 0.0000 0.8281 0.2008 0.1060 Uiso
C13 C 0.0000 0.8126(9) 0.3115(10) 0.1023 Uani
H7 H 0.0000 0.8743 0.3230 0.1230 Uiso
C14 C 0.0000 0.7483(7) 0.3687(7) 0.0757 Uani
H8 H 0.0000 0.7677 0.4186 0.0910 Uiso
C15 C 0.0000 0.6552(12) 0.1431(7) 0.1437 Uani
H9 H 0.0000 0.7050 0.1082 0.2180 Uiso
H10 H -0.0364 0.6187 0.1353 0.2180 Uiso
Cu1 Cu 0.0000 0.56232(6) 0.44504(5) 0.0294 Uani
F1 F -0.2470(6) 0.0516(7) 0.3044(8) 0.1060 Uani
F2 F -0.3204(6) 0.0813(8) 0.2262(7) 0.1087 Uani
F3 F -0.3131(7) 0.1591(10) 0.3309(8) 0.1087 Uani
N1 N 0.0000 0.6607(5) 0.3544(4) 0.0447 Uani
O1 O -0.0629(2) 0.4820(3) 0.4017(3) 0.0533 Uani
O2 O -0.0636(2) 0.3780(3) 0.4928(2) 0.0543 Uani
C1G C -0.4189(3) 0.4098(4) 0.0693(3) 0.0400 Uani
C2G C -0.3756(7) 0.3499(8) 0.1137(8) 0.0610 Uani
C3G C -0.3523(6) 0.2665(7) 0.0903(6) 0.0610 Uani
H1G H -0.3624 0.2440 0.0429 0.0730 Uiso
C4G C -0.3139(6) 0.2167(6) 0.1378(6) 0.0610 Uani
H2G H -0.2983 0.1609 0.1222 0.0730 Uiso
C5G C -0.2989(6) 0.2503(7) 0.2087(6) 0.0610 Uani
C6G C -0.3222(8) 0.3337(8) 0.2321(7) 0.0610 Uani
H3G H -0.3122 0.3562 0.2796 0.0730 Uiso
C7G C -0.3606(9) 0.3835(7) 0.1846(9) 0.0610 Uani
H4G H -0.3762 0.4393 0.2003 0.0730 Uiso
C9G C -0.2190(6) 0.1176(8) 0.2251(7) 0.0610 Uani
H10J H 0.0364 0.6187 0.1353 0.2180 Uiso
Cu1B Cu 0.0000 0.43768(6) 0.55496(5) 0.0294 Uani
Cu1G Cu -0.5000 0.56232(6) 0.05496(5) 0.0294 Uani
Cu1E Cu -0.5000 0.43768(6) -0.05496(5) 0.0294 Uani
F1G F -0.2530(6) 0.0516(7) 0.1956(8) 0.1060 Uani
F2G F -0.1796(6) 0.0813(8) 0.2738(7) 0.1087 Uani
F3G F -0.1869(7) 0.1591(10) 0.1691(8) 0.1087 Uani
O1G O -0.4371(2) 0.4820(3) 0.0983(3) 0.0533 Uani
O1J O 0.0629(2) 0.4820(3) 0.4017(3) 0.0533 Uani
O2G O -0.4364(2) 0.3780(3) 0.0072(2) 0.0543 Uani
O2H O 0.0636(2) 0.6220(3) 0.5072(2) 0.0543 Uani
O2B O -0.0636(2) 0.6220(3) 0.5072(2) 0.0543 Uani
C16? C 0.1286(6) 0.3563(6) 0.3879(7) 0.0427 Uani
C17? C 0.1580(5) 0.2855(6) 0.4256(5) 0.0427 Uani
H11? H 0.1490 0.2743 0.4760 0.0510 Uiso
C18? C 0.2007(5) 0.2314(5) 0.3878(5) 0.0427 Uani
H12? H 0.2204 0.1840 0.4130 0.0510 Uiso
C19? C 0.2141(5) 0.2481(6) 0.3124(5) 0.0427 Uani
C20? C 0.1847(6) 0.3189(7) 0.2748(5) 0.0427 Uani
H13? H 0.1936 0.3300 0.2244 0.0510 Uiso
C21? C 0.1420(7) 0.3730(7) 0.3126(7) 0.0427 Uani
H14? H 0.1223 0.4203 0.2874 0.0510 Uiso
C22? C 0.2608(9) 0.1857(14) 0.2751(12) 0.0427 Uani
C23? C 0.3115(7) 0.1394(9) 0.3158(9) 0.0427 Uani
F4? F 0.3356(6) 0.1959(8) 0.3643(6) 0.0800 Uani
F5? F 0.2834(6) 0.0726(6) 0.3544(8) 0.1087 Uani
F6? F 0.3535(5) 0.1021(7) 0.2716(7) 0.0877 Uani
loop_
_atom_site_aniso_label
_atom_site_aniso_U_11
_atom_site_aniso_U_22
_atom_site_aniso_U_33
_atom_site_aniso_U_23
_atom_site_aniso_U_13
_atom_site_aniso_U_12
C1 0.036 0.039 0.045 -0.004 -0.009 0.005
C2 0.077 0.038 0.068 -0.004 -0.034 0
C3 0.077 0.038 0.068 -0.004 -0.034 0
C4 0.077 0.038 0.068 -0.004 -0.034 0
C5 0.077 0.038 0.068 -0.004 -0.034 0
C6 0.077 0.038 0.068 -0.004 -0.034 0
C7 0.077 0.038 0.068 -0.004 -0.034 0
C8 0.077 0.038 0.068 -0.004 -0.034 0
C9 0.077 0.038 0.068 -0.004 -0.034 0
C10 0.086(8) 0.049(6) 0.059(6) 0.011(5) 0.000 0.000
C11 0.086(9) 0.091(9) 0.045(6) 0.024(6) 0.000 0.000
C12 0.087(9) 0.088(10) 0.091(10) 0.052(8) 0.000 0.000
C13 0.131(13) 0.058(8) 0.118(12) 0.024(8) 0.000 0.000
C14 0.115(10) 0.048(6) 0.064(7) 0.002(5) 0.000 0.000
C15 0.23(2) 0.154(16) 0.047(8) 0.034(9) 0.000 0.000
Cu1 0.0305(5) 0.0307(5) 0.0269(5) -0.0009(4) 0.000 0.000
F1 0.134 0.061 0.123 0.019 -0.061 -0.018
F2 0.116 0.076 0.134 0.027 -0.069 -0.055
F3 0.131 0.095 0.1 -0.006 -0.042 -0.048
N1 0.050(4) 0.050(4) 0.034(4) 0.014(3) 0.000 0.000
O1 0.059 0.047 0.054 0.005 -0.021 -0.019
O2 0.063 0.054 0.046 0.004 -0.019 -0.014
C1G 0.036 0.039 0.045 0.004 -0.009 -0.005
C2G 0.077 0.038 0.068 0.004 -0.034 0
C3G 0.077 0.038 0.068 0.004 -0.034 0
C4G 0.077 0.038 0.068 0.004 -0.034 0
C5G 0.077 0.038 0.068 0.004 -0.034 0
C6G 0.077 0.038 0.068 0.004 -0.034 0
C7G 0.077 0.038 0.068 0.004 -0.034 0
C9G 0.077 0.038 0.068 0.004 -0.034 0
Cu1B 0.0305 0.0307 0.0269 -0.0009 0 0
Cu1G 0.0305 0.0307 0.0269 0.0009 0 0
Cu1E 0.0305 0.0307 0.0269 0.0009 0 0
F1G 0.134 0.061 0.123 -0.019 -0.061 0.018
F2G 0.116 0.076 0.134 -0.027 -0.069 0.055
F3G 0.131 0.095 0.1 0.006 -0.042 0.048
O1G 0.059 0.047 0.054 -0.005 -0.021 0.019
O1J 0.059(3) 0.047(3) 0.054(2) 0.005(2) 0.021(2) 0.019(2)
O2G 0.063 0.054 0.046 -0.004 -0.019 0.014
O2H 0.063 0.054 0.046 0.004 -0.019 -0.014
O2B 0.063 0.054 0.046 0.004 0.019 0.014
C16? 0.044(3) 0.027(3) 0.057(3) 0.001(2) 0.024(3) 0.006(2)
C17? 0.044(3) 0.027(3) 0.057(3) 0.001(2) 0.024(3) 0.006(2)
C18? 0.044(3) 0.027(3) 0.057(3) 0.001(2) 0.024(3) 0.006(2)
C19? 0.044(3) 0.027(3) 0.057(3) 0.001(2) 0.024(3) 0.006(2)
C20? 0.044(3) 0.027(3) 0.057(3) 0.001(2) 0.024(3) 0.006(2)
C21? 0.044(3) 0.027(3) 0.057(3) 0.001(2) 0.024(3) 0.006(2)
C22? 0.044(3) 0.027(3) 0.057(3) 0.001(2) 0.024(3) 0.006(2)
C23? 0.044(3) 0.027(3) 0.057(3) 0.001(2) 0.024(3) 0.006(2)
F4? 0.082(8) 0.087(9) 0.071(7) 0.002(6) 0.011(6) 0.013(6)
F5? 0.122(11) 0.049(6) 0.155(12) 0.051(7) 0.096(9) 0.040(6)
F6? 0.068(7) 0.070(7) 0.125(10) 0.031(7) 0.049(7) 0.032(6)
loop_
_geom_bond_atom_site_label_1
_geom_bond_atom_site_label_2
_geom_bond_site_symmetry_1
_geom_bond_site_symmetry_2
C1 C2 1_555 1_555
C2 C3 1_555 1_555
C3 H1 1_555 1_555
C4 C3 1_555 1_555
H2 C4 1_555 1_555
C5 C4 1_555 1_555
C6 C5 1_555 1_555
H3 C6 1_555 1_555
C7 C2 1_555 1_555
H4 C7 1_555 1_555
C8 C5 1_555 1_555
C9 C8 1_555 1_555
C10 H5 1_555 1_555
C11 C10 1_555 1_555
C12 C11 1_555 1_555
H6 C12 1_555 1_555
C13 C12 1_555 1_555
H7 C13 1_555 1_555
C14 C13 1_555 1_555
H8 C14 1_555 1_555
C15 C11 1_555 1_555
H9 C15 1_555 1_555
H10 C15 1_555 1_555
Cu1 N1 1_555 1_555
F1 C9 1_555 1_555
F2 C9 1_555 1_555
F3 C9 1_555 1_555
N1 C10 1_555 1_555
O1 C1 1_555 1_555
O2 C1 1_555 1_555
C1G C2G 1_555 1_555
C2G C3G 1_555 1_555
C3G H1G 1_555 1_555
C4G C3G 1_555 1_555
H2G C4G 1_555 1_555
C5G C8 1_555 1_555
C6G C5G 1_555 1_555
H3G C6G 1_555 1_555
C7G C2G 1_555 1_555
H4G C7G 1_555 1_555
C9G C8 1_555 1_555
H10J C15 1_555 1_555
Cu1B O2 1_555 1_555
Cu1G O1G 1_555 1_555
Cu1E O2G 1_555 1_555
F1G C9G 1_555 1_555
F2G C9G 1_555 1_555
F3G C9G 1_555 1_555
O1G C1G 1_555 1_555
O1J Cu1 1_555 1_555
O2G C1G 1_555 1_555
O2H Cu1 1_555 1_555
O2B Cu1 1_555 1_555
C6 C7 1_555 1_555
C14 N1 1_555 1_555
Cu1 O1 1_555 1_555
C4G C5G 1_555 1_555
C6G C7G 1_555 1_555

#END
