
#######################################################################
#
#                 Cambridge Crystallographic Data Centre
#                                CCDC 
#
#######################################################################
#
# If this CIF has been generated from an entry in the Cambridge 
# Structural Database, then it will include bibliographic, chemical, 
# crystal, experimental, refinement or atomic coordinate data resulting 
# from the CCDC's data processing and validation procedures.
#
#######################################################################

data_ITUVEZ
_chemical_name_common            
'NOTT-210 dimethylformamide solvate tetrahydrate'
_chemical_formula_moiety         
'(C2 H8 N1 1+)n,n(C22 H10 In1 O8 1-),2n(C3 H7 N1 O1),4n(H2 O1)'
_chemical_name_systematic        
"catena-[Dimethylammonium (\m~4~-1,1':4',1''-terphenyl-3,3'',5,5''-tetracarboxylato)-indium(iii) dimethylformamide solvate tetrahydrate]"
_symmetry_cell_setting           tetragonal
_symmetry_space_group_name_H-M   'P 42/m m c'
_symmetry_Int_Tables_number      131
_space_group_name_Hall           '-P 4c 2'
loop_
_symmetry_equiv_pos_site_id
_symmetry_equiv_pos_as_xyz
1 x,y,z
2 -y,x,1/2+z
3 -x,-y,z
4 y,-x,1/2+z
5 x,-y,-z
6 y,x,1/2-z
7 -x,y,-z
8 -y,-x,1/2-z
9 -x,-y,-z
10 y,-x,1/2-z
11 x,y,-z
12 -y,x,1/2-z
13 -x,y,z
14 -y,-x,1/2+z
15 x,-y,z
16 y,x,1/2+z
_cell_length_a                   9.9532(3)
_cell_length_b                   9.9532(3)
_cell_length_c                   26.7005(11)
_cell_angle_alpha                90
_cell_angle_beta                 90
_cell_angle_gamma                90
_cell_volume                     2645.12
_exptl_crystal_colour            colorless
_exptl_crystal_description       octahedron
_cell_formula_units_Z            2
loop_
_atom_site_label
_atom_site_type_symbol
_atom_site_fract_x
_atom_site_fract_y
_atom_site_fract_z
In1 In 0.5000 0.5000 -0.2500
O1 O 0.6443 0.5000(5) -0.18755(18)
O2 O 0.7431 0.5000(6) -0.2605(2)
C1 C 0.7471 0.5000(9) -0.2134(4)
C2 C 0.8795(7) 0.5000 -0.1875(3)
C3 C 0.8775(8) 0.5000 -0.1363(3)
H1 H 0.7952 0.5000 -0.1198
C4 C 1.0000 0.5000 -0.2142(4)
H2 H 1.0000 0.5000 -0.2491
C5 C 1.0000 0.5000 -0.1070(4)
C6 C 1.0000 0.5000 -0.0527(5)
C7 C 0.8891(15) 0.540(2) -0.0272(4)
H3 H 0.8102 0.5639 -0.0459
In1_2 In 1.5000 0.5000 -0.2500
In1A In 0.5000 0.5000 0.2500
In1A_2 In 1.5000 0.5000 0.2500
O1B O 1.3557 0.5000(5) -0.18755(18)
O1D O 0.6443 0.5000(5) 0.18755(18)
O1F O 1.3557 0.5000(5) 0.18755(18)
O1B_2 O 0.3557 0.5000(5) -0.18755(18)
O1E O 0.5000(5) 0.6443 -0.31245(18)
O1G O 0.5000(5) 0.3557 -0.31245(18)
O2B O 1.2569 0.5000(6) -0.2605(2)
O2D O 0.7431 0.5000(6) 0.2605(2)
O2F O 1.2569 0.5000(6) 0.2605(2)
O2B_2 O 0.2569 0.5000(6) -0.2605(2)
O2E O 0.5000(6) 0.7431 -0.2395(2)
O2G O 0.5000(6) 0.2569 -0.2395(2)
C1B C 1.2529 0.5000(9) -0.2134(4)
C1D C 0.7471 0.5000(9) 0.2134(4)
C1F C 1.2529 0.5000(9) 0.2134(4)
C2B C 1.1205(7) 0.5000 -0.1875(3)
C2D C 0.8795(7) 0.5000 0.1875(3)
C2F C 1.1205(7) 0.5000 0.1875(3)
C3B C 1.1225(8) 0.5000 -0.1363(3)
C3D C 0.8775(8) 0.5000 0.1363(3)
C3F C 1.1225(8) 0.5000 0.1363(3)
H1B H 1.2048 0.5000 -0.1198
H1F H 1.2048 0.5000 0.1198
H1D H 0.7952 0.5000 0.1198
C4D C 1.0000 0.5000 0.2142(4)
H2D H 1.0000 0.5000 0.2491
C5D C 1.0000 0.5000 0.1070(4)
C6D C 1.0000 0.5000 0.0527(5)
C7J C 0.8891(15) 0.540(2) 0.0272(4)
C7H C 1.1109(15) 0.460(2) 0.0272(4)
C7B C 1.1109(15) 0.460(2) -0.0272(4)
C7L C 1.1109(15) 0.540(2) -0.0272(4)
C7F C 1.1109(15) 0.540(2) 0.0272(4)
C7N C 0.8891(15) 0.460(2) -0.0272(4)
C7D C 0.8891(15) 0.460(2) 0.0272(4)
H3B H 1.1898 0.4361 -0.0459
H3L H 1.1898 0.5639 -0.0459
H3N H 0.8102 0.4361 -0.0459
H3H H 1.1898 0.4361 0.0459
H3F H 1.1898 0.5639 0.0459
H3D H 0.8102 0.4361 0.0459
H3J H 0.8102 0.5639 0.0459
loop_
_geom_bond_atom_site_label_1
_geom_bond_atom_site_label_2
_geom_bond_site_symmetry_1
_geom_bond_site_symmetry_2
In1 O1 1_555 1_555
O1 C1 1_555 1_555
O2 In1 1_555 1_555
C1 O2 1_555 1_555
C2 C1 1_555 1_555
C3 C2 1_555 1_555
H1 C3 1_555 1_555
C4 C2 1_555 1_555
H2 C4 1_555 1_555
C5 C3 1_555 1_555
C6 C5 1_555 1_555
C7 C6 1_555 1_555
H3 C7 1_555 1_555
In1_2 O1B 1_555 1_555
In1A O1D 1_555 1_555
In1A_2 O1F 1_555 1_555
O1B C1B 1_555 1_555
O1D C1D 1_555 1_555
O1F C1F 1_555 1_555
O1B_2 In1 1_555 1_555
O1E In1 1_555 1_555
O1G In1 1_555 1_555
O2B In1_2 1_555 1_555
O2D In1A 1_555 1_555
O2F In1A_2 1_555 1_555
O2B_2 In1 1_555 1_555
O2E In1 1_555 1_555
O2G In1 1_555 1_555
C1B O2B 1_555 1_555
C1D O2D 1_555 1_555
C1F O2F 1_555 1_555
C2B C4 1_555 1_555
C2D C1D 1_555 1_555
C2F C1F 1_555 1_555
C3B C5 1_555 1_555
C3D C2D 1_555 1_555
C3F C2F 1_555 1_555
H1B C3B 1_555 1_555
H1F C3F 1_555 1_555
H1D C3D 1_555 1_555
C4D C2D 1_555 1_555
H2D C4D 1_555 1_555
C5D C3D 1_555 1_555
C6D C5D 1_555 1_555
C7J C7 1_555 1_555
C7H C6D 1_555 1_555
C7B C6 1_555 1_555
C7L C6 1_555 1_555
C7F C6D 1_555 1_555
C7N C6 1_555 1_555
C7D C6D 1_555 1_555
H3B C7B 1_555 1_555
H3L C7L 1_555 1_555
H3N C7N 1_555 1_555
H3H C7H 1_555 1_555
H3F C7F 1_555 1_555
H3D C7D 1_555 1_555
H3J C7J 1_555 1_555
C7 C7N 1_555 1_555
C1B C2B 1_555 1_555
C2B C3B 1_555 1_555
C2F C4D 1_555 1_555
C3F C5D 1_555 1_555
C6D C7J 1_555 1_555
C7J C7D 1_555 1_555
C7H C7B 1_555 1_555
C7H C7F 1_555 1_555
C7B C7L 1_555 1_555
C7L C7F 1_555 1_555
C7N C7D 1_555 1_555

#END
