
#######################################################################
#
#                 Cambridge Crystallographic Data Centre
#                                CCDC 
#
#######################################################################
#
# If this CIF has been generated from an entry in the Cambridge 
# Structural Database, then it will include bibliographic, chemical, 
# crystal, experimental, refinement or atomic coordinate data resulting 
# from the CCDC's data processing and validation procedures.
#
#######################################################################

data_KUJNEJ
_chemical_formula_moiety         
'(C108 H68 N6 Ni6 O26)n,19n(C4 H9 N1 O1),17n(H2 O1)'
_chemical_name_systematic        
'catena-(tris(\m~4~-Naphthalene-2,6-dicarboxylato)-hexakis(\m~3~-4-(pyridin-4-yl)benzoato)-bis(\m~3~-hydroxo)-hexa-nickel dimethylacetamide solvate heptadecahydrate)'
_symmetry_cell_setting           cubic
_symmetry_space_group_name_H-M   'I 2 3'
_symmetry_Int_Tables_number      197
_space_group_name_Hall           'I 2 2 3'
loop_
_symmetry_equiv_pos_site_id
_symmetry_equiv_pos_as_xyz
1 x,y,z
2 -x,-y,z
3 -x,y,-z
4 x,-y,-z
5 z,x,y
6 z,-x,-y
7 -z,-x,y
8 -z,x,-y
9 y,z,x
10 -y,z,-x
11 y,-z,-x
12 -y,-z,x
13 1/2+x,1/2+y,1/2+z
14 1/2-x,1/2-y,1/2+z
15 1/2-x,1/2+y,1/2-z
16 1/2+x,1/2-y,1/2-z
17 1/2+z,1/2+x,1/2+y
18 1/2+z,1/2-x,1/2-y
19 1/2-z,1/2-x,1/2+y
20 1/2-z,1/2+x,1/2-y
21 1/2+y,1/2+z,1/2+x
22 1/2-y,1/2+z,1/2-x
23 1/2+y,1/2-z,1/2-x
24 1/2-y,1/2-z,1/2+x
_cell_length_a                   28.482(2)
_cell_length_b                   28.482(2)
_cell_length_c                   28.482(2)
_cell_angle_alpha                90
_cell_angle_beta                 90
_cell_angle_gamma                90
_cell_volume                     23105.3
_exptl_crystal_colour            green
_exptl_crystal_description       block
_cell_formula_units_Z            4
loop_
_atom_site_label
_atom_site_type_symbol
_atom_site_fract_x
_atom_site_fract_y
_atom_site_fract_z
Ni1 Ni 0.208059(10) 0.801195(10) 1.118603(9)
O1 O 0.17429(8) 0.82571(8) 1.17429(8)
O2 O 0.21260(8) 0.73574(8) 1.14702(7)
O3 O 0.14546(8) 0.72607(7) 1.18584(6)
O4 O 0.14638(7) 0.78676(10) 1.08328(7)
O5 O 0.08681(6) 0.79171(9) 1.13381(7)
N1 N 0.27499(9) 0.44106(9) 1.25927(8)
C1 C 0.18281(8) 0.71225(9) 1.16989(8)
C2 C 0.19604(18) 0.66219(16) 1.17972(13)
C3 C 0.23918(18) 0.64621(15) 1.16739(13)
H1 H 0.2604 0.6661 1.1511
C4 C 0.25237(18) 0.59949(16) 1.17898(13)
H2 H 0.2823 0.5881 1.1697
C5 C 0.22266(19) 0.57077(15) 1.20330(12)
C6 C 0.18081(18) 0.58574(15) 1.21161(13)
H3 H 0.1588 0.5648 1.2253
C7 C 0.16616(19) 0.63283(15) 1.20094(12)
H4 H 0.1354 0.6430 1.2089
C8 C 0.24125(11) 0.52513(11) 1.22151(10)
C9 C 0.2807(2) 0.50434(18) 1.20530(16)
H5 H 0.2981 0.5184 1.1806
C10 C 0.29530(19) 0.4638(2) 1.22427(17)
H6 H 0.3228 0.4501 1.2113
C11 C 0.2341(2) 0.4592(2) 1.27230(17)
H7 H 0.2166 0.4424 1.2951
C12 C 0.21432(19) 0.50094(19) 1.25526(17)
H8 H 0.1847 0.5122 1.2658
C13 C 0.10450(10) 0.78604(9) 1.09417(8)
C14 C 0.07040(11) 0.78028(16) 1.05326(11)
C15 C 0.02394(11) 0.77936(16) 1.06082(11)
H9 H 0.0124 0.7798 1.0921
C16 C -0.00896(11) 0.77769(16) 1.02196(11)
C17 C -0.05714(11) 0.77523(16) 1.03105(11)
H10 H -0.0684 0.7720 1.0623
C18 C 0.08810(12) 0.77759(15) 1.00633(11)
H11 H 0.1210 0.7774 1.0008
Ni1K Ni 0.198805(10) 0.881397(9) 1.208059(10)
Ni1S Ni 0.381397(9) 0.708059(10) 0.698805(10)
Ni1E Ni 0.118603(9) 0.791941(10) 1.198805(10)
Ni1T Ni 0.301195(10) 0.618603(9) 0.708059(10)
Ni1B Ni -0.208059(10) 0.801195(10) 0.881397(9)
Ni1V Ni 0.301195(10) 0.381397(9) 1.291941(10)
Ni1F Ni -0.118603(9) 0.791941(10) 0.801195(10)
Ni1P Ni 0.618603(9) 0.708059(10) 1.301195(10)
Ni1I Ni 0.198805(10) 1.118603(9) 0.791941(10)
Ni1C Ni 0.208059(10) 1.198805(10) 0.881397(9)
Ni1M Ni 0.291941(10) 0.698805(10) 1.618603(9)
Ni1G Ni -0.118603(9) 1.208059(10) 1.198805(10)
Ni1H Ni -0.198805(10) 1.118603(9) 1.208059(10)
Ni1N Ni 0.291941(10) 1.301195(10) 1.381397(9)
Ni1R Ni 0.381397(9) 1.291941(10) 1.301195(10)
Ni1M_2 Ni 0.291941(10) 0.698805(10) 0.618603(9)
O1M O 0.32571(8) 0.67429(8) 0.67429(8)
O1B O -0.17429(8) 0.82571(8) 0.82571(8)
O2K O 0.26426(8) 0.85298(7) 1.21260(8)
O2S O 0.35298(7) 0.71260(8) 0.76426(8)
O2E O 0.14702(7) 0.78740(8) 1.26426(8)
O2N O 0.28740(8) 1.23574(8) 1.35298(7)
O2M O 0.28740(8) 0.76426(8) 0.64702(7)
O2T O 0.23574(8) 0.64702(7) 0.71260(8)
O2B O -0.21260(8) 0.73574(8) 0.85298(7)
O3K O 0.27393(7) 0.81416(6) 1.14546(8)
O3S O 0.31416(6) 0.64546(8) 0.77393(7)
O3E O 0.18584(6) 0.85454(8) 1.27393(7)
O3N O 0.35454(8) 1.22607(7) 1.31416(6)
O3M O 0.35454(8) 0.77393(7) 0.68584(6)
O3J O -0.27393(7) 0.81416(6) 0.85454(8)
O4B O -0.14638(7) 0.78676(10) 0.91672(7)
O4K O 0.21324(10) 0.91672(7) 1.14638(7)
O4I O 0.21324(10) 1.08328(7) 0.85362(7)
O4E O 0.08328(7) 0.85362(7) 1.21324(10)
O4G O -0.08328(7) 1.14638(7) 1.21324(10)
O4S O 0.41672(7) 0.64638(7) 0.71324(10)
O4T O 0.28676(10) 0.58328(7) 0.64638(7)
O5B O -0.08681(6) 0.79171(9) 0.86619(7)
O5K O 0.20829(9) 0.86619(7) 1.08681(6)
O5I O 0.20829(9) 1.13381(7) 0.91319(6)
O5E O 0.13381(7) 0.91319(6) 1.20829(9)
O5G O -0.13381(7) 1.08681(6) 1.20829(9)
O5M O 0.41319(6) 0.70829(9) 0.63381(7)
O5S O 0.36619(7) 0.58681(6) 0.70829(9)
O5J O -0.20829(9) 0.86619(7) 0.91319(6)
N1K N 0.55894(9) 0.74073(8) 1.27499(9)
N1S N 0.24073(8) 0.77499(9) 1.05894(9)
N1E N 0.25927(8) 0.72501(9) 1.55894(9)
N1N N 0.22501(9) 0.94106(9) 1.24073(8)
N1M N 0.22501(9) 1.05894(9) 0.75927(8)
N1J N 0.44106(9) 0.74073(8) 0.72501(9)
N1U N 0.05894(9) 0.75927(8) 1.22501(9)
N1C N 0.27499(9) 0.55894(9) 0.74073(8)
N1P N -0.24073(8) 0.77499(9) 0.94106(9)
C1K C 0.28775(9) 0.83011(8) 1.18281(8)
C1S C 0.33011(8) 0.68281(8) 0.78775(9)
C1E C 0.16989(8) 0.81719(8) 1.28775(9)
C1N C 0.31719(8) 1.21225(9) 1.33011(8)
C1M C 0.31719(8) 0.78775(9) 0.66989(8)
C2K C 0.33781(16) 0.82028(13) 1.19604(18)
C2S C 0.32028(13) 0.69604(18) 0.83781(16)
C2E C 0.17972(13) 0.80396(18) 1.33781(16)
C2N C 0.30396(18) 1.16219(16) 1.32028(13)
C2M C 0.30396(18) 0.83781(16) 0.67972(13)
C3K C 0.35379(15) 0.83261(13) 1.23918(18)
C3S C 0.33261(13) 0.73918(18) 0.85379(15)
C3E C 0.16739(13) 0.76082(18) 1.35379(15)
C3N C 0.26082(18) 1.14621(15) 1.33261(13)
C3M C 0.26082(18) 0.85379(15) 0.66739(13)
H1K H 0.3339 0.8489 1.2604
H1S H 0.3489 0.7604 0.8339
H1E H 0.1511 0.7396 1.3339
H1N H 0.2396 1.1661 1.3489
H1M H 0.2396 0.8339 0.6511
C4K C 0.40051(16) 0.82102(13) 1.25237(18)
C4S C 0.32102(13) 0.75237(18) 0.90051(16)
C4E C 0.17898(13) 0.74763(18) 1.40051(16)
C4N C 0.24763(18) 1.09949(16) 1.32102(13)
C4M C 0.24763(18) 0.90051(16) 0.67898(13)
H2K H 0.4119 0.8303 1.2823
H2S H 0.3303 0.7823 0.9119
H2E H 0.1697 0.7177 1.4119
H2N H 0.2177 1.0881 1.3303
H2M H 0.2177 0.9119 0.6697
C5K C 0.42923(15) 0.79670(12) 1.22266(19)
C5S C 0.29670(12) 0.72266(19) 0.92923(15)
C5E C 0.20330(12) 0.77734(19) 1.42923(15)
C5N C 0.27734(19) 1.07077(15) 1.29670(12)
C5M C 0.27734(19) 0.92923(15) 0.70330(12)
C6K C 0.41426(15) 0.78839(13) 1.18081(18)
C6S C 0.28839(13) 0.68081(18) 0.91426(15)
C6E C 0.21161(13) 0.81919(18) 1.41426(15)
C6N C 0.31919(18) 1.08574(15) 1.28839(13)
C6M C 0.31919(18) 0.91426(15) 0.71161(13)
H3K H 0.4352 0.7747 1.1588
H3S H 0.2747 0.6588 0.9352
H3E H 0.2253 0.8412 1.4352
H3N H 0.3412 1.0648 1.2747
H3M H 0.3412 0.9352 0.7253
C7K C 0.36717(15) 0.79906(12) 1.16616(19)
C7S C 0.29906(12) 0.66616(19) 0.86717(15)
C7E C 0.20094(12) 0.83384(19) 1.36717(15)
C7N C 0.33384(19) 1.13283(15) 1.29906(12)
C7M C 0.33384(19) 0.86717(15) 0.70094(12)
H4K H 0.3570 0.7911 1.1354
H4S H 0.2911 0.6354 0.8570
H4E H 0.2089 0.8646 1.3570
H4N H 0.3646 1.1430 1.2911
H4M H 0.3646 0.8570 0.7089
C8K C 0.47487(11) 0.77849(10) 1.24125(11)
C8S C 0.27849(10) 0.74125(11) 0.97487(11)
C8E C 0.22151(10) 0.75875(11) 1.47487(11)
C8N C 0.25875(11) 1.02513(11) 1.27849(10)
C8M C 0.25875(11) 0.97487(11) 0.72151(10)
C9K C 0.49566(18) 0.79470(16) 1.2807(2)
C9S C 0.29470(16) 0.7807(2) 0.99566(18)
C9E C 0.20530(16) 0.7193(2) 1.49566(18)
C9N C 0.2193(2) 1.00434(18) 1.29470(16)
C9M C 0.2193(2) 0.99566(18) 0.70530(16)
H5K H 0.4816 0.8194 1.2981
H5S H 0.3194 0.7981 0.9816
H5E H 0.1806 0.7019 1.4816
H5N H 0.2019 1.0184 1.3194
H5M H 0.2019 0.9816 0.6806
C10K C 0.5362(2) 0.77573(17) 1.29530(19)
C10S C 0.27573(17) 0.79530(19) 1.0362(2)
C10E C 0.22427(17) 0.70470(19) 1.5362(2)
C10N C 0.20470(19) 0.9638(2) 1.27573(17)
C10M C 0.20470(19) 1.0362(2) 0.72427(17)
H6K H 0.5499 0.7887 1.3228
H6S H 0.2887 0.8228 1.0499
H6E H 0.2113 0.6772 1.5499
H6N H 0.1772 0.9501 1.2887
H6M H 0.1772 1.0499 0.7113
C11K C 0.5408(2) 0.72770(17) 1.2341(2)
C11S C 0.22770(17) 0.7341(2) 1.0408(2)
C11E C 0.27230(17) 0.7659(2) 1.5408(2)
C11N C 0.2659(2) 0.9592(2) 1.22770(17)
C11M C 0.2659(2) 1.0408(2) 0.77230(17)
H7K H 0.5576 0.7049 1.2166
H7S H 0.2049 0.7166 1.0576
H7E H 0.2951 0.7834 1.5576
H7N H 0.2834 0.9424 1.2049
H7M H 0.2834 1.0576 0.7951
C12K C 0.49906(19) 0.74474(17) 1.21432(19)
C12S C 0.24474(17) 0.71432(19) 0.99906(19)
C12E C 0.25526(17) 0.78568(19) 1.49906(19)
C12N C 0.28568(19) 1.00094(19) 1.24474(17)
C12M C 0.28568(19) 0.99906(19) 0.75526(17)
H8K H 0.4878 0.7342 1.1847
H8S H 0.2342 0.6847 0.9878
H8E H 0.2658 0.8153 1.4878
H8N H 0.3153 1.0122 1.2342
H8M H 0.3153 0.9878 0.7658
C13B C -0.10450(10) 0.78604(9) 0.90583(8)
C13K C 0.21396(9) 0.90583(8) 1.10450(10)
C13I C 0.21396(9) 1.09417(8) 0.89550(10)
C13E C 0.09417(8) 0.89550(10) 1.21396(9)
C13G C -0.09417(8) 1.10450(10) 1.21396(9)
C14B C -0.07040(11) 0.78028(16) 0.94674(11)
C14K C 0.21972(16) 0.94674(11) 1.07040(11)
C14I C 0.21972(16) 1.05326(11) 0.92960(11)
C14E C 0.05326(11) 0.92960(11) 1.21972(16)
C14G C -0.05326(11) 1.07040(11) 1.21972(16)
C15B C -0.02394(11) 0.77936(16) 0.93918(11)
C15K C 0.22064(16) 0.93918(11) 1.02394(11)
C15I C 0.22064(16) 1.06082(11) 0.97606(11)
C15E C 0.06082(11) 0.97606(11) 1.22064(16)
C15G C -0.06082(11) 1.02394(11) 1.22064(16)
H9B H -0.0124 0.7798 0.9079
H9K H 0.2202 0.9079 1.0124
H9I H 0.2202 1.0921 0.9876
H9E H 0.0921 0.9876 1.2202
H9G H -0.0921 1.0124 1.2202
C16B C 0.00896(11) 0.77769(16) 0.97804(11)
C16K C 0.22231(16) 0.97804(11) 0.99104(11)
C16I C 0.22231(16) 1.02196(11) 1.00896(11)
C16E C 0.02196(11) 1.00896(11) 1.22231(16)
C16G C -0.02196(11) 0.99104(11) 1.22231(16)
C17B C 0.05714(11) 0.77523(16) 0.96895(11)
C17K C 0.22477(16) 0.96895(11) 0.94286(11)
C17I C 0.22477(16) 1.03105(11) 1.05714(11)
C17E C 0.03105(11) 1.05714(11) 1.22477(16)
C17G C -0.03105(11) 0.94286(11) 1.22477(16)
H10B H 0.0684 0.7720 0.9377
H10K H 0.2280 0.9377 0.9316
H10I H 0.2280 1.0623 1.0684
H10E H 0.0623 1.0684 1.2280
H10G H -0.0623 0.9316 1.2280
C18B C -0.08810(12) 0.77759(15) 0.99367(11)
C18K C 0.22241(15) 0.99367(11) 1.08810(12)
C18I C 0.22241(15) 1.00633(11) 0.91190(12)
C18E C 0.00633(11) 0.91190(12) 1.22241(15)
C18G C -0.00633(11) 1.08810(12) 1.22241(15)
H11B H -0.1210 0.7774 0.9992
H11K H 0.2226 0.9992 1.1210
H11I H 0.2226 1.0008 0.8790
H11E H 0.0008 0.8790 1.2226
H11G H -0.0008 1.1210 1.2226
C19? C 0.2298(3) 0.7970(3) 1.0168(3)
C20? C 0.2729(3) 0.7422(3) 1.0577(3)
C21? C 0.2915(3) 0.7234(3) 1.0169(3)
C22? C 0.2429(3) 0.7826(3) 0.9714(4)
H12? H 0.2114 0.8247 1.0189
H13? H 0.2842 0.7304 1.0868
H14? H 0.3132 0.6981 1.0184
H15? H 0.2318 0.7961 0.9430
loop_
_geom_bond_atom_site_label_1
_geom_bond_atom_site_label_2
_geom_bond_site_symmetry_1
_geom_bond_site_symmetry_2
Ni1 O1 1_555 1_555
O1 Ni1K 1_555 1_555
O2 Ni1 1_555 1_555
O3 C1 1_555 1_555
O4 Ni1 1_555 1_555
O5 C13 1_555 1_555
N1 C10 1_555 1_555
C1 O2 1_555 1_555
C2 C1 1_555 1_555
C3 C2 1_555 1_555
H1 C3 1_555 1_555
C4 C3 1_555 1_555
H2 C4 1_555 1_555
C5 C4 1_555 1_555
C6 C5 1_555 1_555
H3 C6 1_555 1_555
C7 C2 1_555 1_555
H4 C7 1_555 1_555
C8 C5 1_555 1_555
C9 C8 1_555 1_555
H5 C9 1_555 1_555
C10 C9 1_555 1_555
H6 C10 1_555 1_555
C11 N1 1_555 1_555
H7 C11 1_555 1_555
C12 C8 1_555 1_555
H8 C12 1_555 1_555
C13 O4 1_555 1_555
C14 C13 1_555 1_555
C15 C14 1_555 1_555
H9 C15 1_555 1_555
C16 C15 1_555 1_555
C17 C16 1_555 1_555
H10 C17 1_555 1_555
C18 C14 1_555 1_555
H11 C18 1_555 1_555
Ni1K O2K 1_555 1_555
Ni1S O1M 1_555 1_555
Ni1E O1 1_555 1_555
Ni1T O1M 1_555 1_555
Ni1B O1B 1_555 1_555
Ni1V N1 1_555 1_555
Ni1F O1B 1_555 1_555
Ni1P N1K 1_555 1_555
Ni1I O4I 1_555 1_555
Ni1C O5I 1_555 1_555
Ni1M N1E 1_555 1_555
Ni1G O4G 1_555 1_555
Ni1H O5G 1_555 1_555
Ni1N O2N 1_555 1_555
Ni1R O3N 1_555 1_555
Ni1M_2 O1M 1_555 1_555
O2K C1K 1_555 1_555
O2S Ni1S 1_555 1_555
O2E Ni1E 1_555 1_555
O2N C1N 1_555 1_555
O2M Ni1M_2 1_555 1_555
O2T Ni1T 1_555 1_555
O2B Ni1B 1_555 1_555
O3K Ni1 1_555 1_555
O3S Ni1T 1_555 1_555
O3E Ni1K 1_555 1_555
O3N C1N 1_555 1_555
O3M Ni1S 1_555 1_555
O3J Ni1B 1_555 1_555
O4B Ni1B 1_555 1_555
O4K Ni1K 1_555 1_555
O4I C13I 1_555 1_555
O4E Ni1E 1_555 1_555
O4G C13G 1_555 1_555
O4S Ni1S 1_555 1_555
O4T Ni1T 1_555 1_555
O5B Ni1F 1_555 1_555
O5K Ni1 1_555 1_555
O5I C13I 1_555 1_555
O5E Ni1K 1_555 1_555
O5G C13G 1_555 1_555
O5M Ni1S 1_555 1_555
O5S Ni1T 1_555 1_555
O5J Ni1B 1_555 1_555
N1K C10K 1_555 1_555
N1S Ni1 1_555 1_555
N1E C10E 1_555 1_555
N1N Ni1K 1_555 1_555
N1M Ni1I 1_555 1_555
N1J Ni1S 1_555 1_555
N1U Ni1E 1_555 1_555
N1C Ni1T 1_555 1_555
N1P Ni1B 1_555 1_555
C1K O3K 1_555 1_555
C1S O2S 1_555 1_555
C1E O2E 1_555 1_555
C1N C2N 1_555 1_555
C1M O2M 1_555 1_555
C2K C1K 1_555 1_555
C2S C1S 1_555 1_555
C2E C1E 1_555 1_555
C2N C3N 1_555 1_555
C2M C1M 1_555 1_555
C3K C2K 1_555 1_555
C3S C2S 1_555 1_555
C3E C2E 1_555 1_555
C3N H1N 1_555 1_555
C3M C2M 1_555 1_555
H1K C3K 1_555 1_555
H1S C3S 1_555 1_555
H1E C3E 1_555 1_555
H1M C3M 1_555 1_555
C4K C3K 1_555 1_555
C4S C3S 1_555 1_555
C4E C3E 1_555 1_555
C4N C3N 1_555 1_555
C4M C3M 1_555 1_555
H2K C4K 1_555 1_555
H2S C4S 1_555 1_555
H2E C4E 1_555 1_555
H2N C4N 1_555 1_555
H2M C4M 1_555 1_555
C5K C4K 1_555 1_555
C5S C4S 1_555 1_555
C5E C4E 1_555 1_555
C5N C4N 1_555 1_555
C5M C4M 1_555 1_555
C6K C5K 1_555 1_555
C6S C5S 1_555 1_555
C6E C5E 1_555 1_555
C6N C5N 1_555 1_555
C6M C5M 1_555 1_555
H3K C6K 1_555 1_555
H3S C6S 1_555 1_555
H3E C6E 1_555 1_555
H3N C6N 1_555 1_555
H3M C6M 1_555 1_555
C7K C2K 1_555 1_555
C7S C2S 1_555 1_555
C7E C2E 1_555 1_555
C7N C2N 1_555 1_555
C7M C2M 1_555 1_555
H4K C7K 1_555 1_555
H4S C7S 1_555 1_555
H4E C7E 1_555 1_555
H4N C7N 1_555 1_555
H4M C7M 1_555 1_555
C8K C5K 1_555 1_555
C8S C5S 1_555 1_555
C8E C5E 1_555 1_555
C8N C5N 1_555 1_555
C8M C5M 1_555 1_555
C9K C8K 1_555 1_555
C9S C8S 1_555 1_555
C9E C8E 1_555 1_555
C9N C8N 1_555 1_555
C9M C8M 1_555 1_555
H5K C9K 1_555 1_555
H5S C9S 1_555 1_555
H5E C9E 1_555 1_555
H5N C9N 1_555 1_555
H5M C9M 1_555 1_555
C10K C9K 1_555 1_555
C10S N1S 1_555 1_555
C10E C9E 1_555 1_555
C10N N1N 1_555 1_555
C10M N1M 1_555 1_555
H6K C10K 1_555 1_555
H6S C10S 1_555 1_555
H6E C10E 1_555 1_555
H6N C10N 1_555 1_555
H6M C10M 1_555 1_555
C11K N1K 1_555 1_555
C11S N1S 1_555 1_555
C11E N1E 1_555 1_555
C11N N1N 1_555 1_555
C11M N1M 1_555 1_555
H7K C11K 1_555 1_555
H7S C11S 1_555 1_555
H7E C11E 1_555 1_555
H7N C11N 1_555 1_555
H7M C11M 1_555 1_555
C12K C8K 1_555 1_555
C12S C8S 1_555 1_555
C12E C8E 1_555 1_555
C12N C8N 1_555 1_555
C12M C8M 1_555 1_555
H8K C12K 1_555 1_555
H8S C12S 1_555 1_555
H8E C12E 1_555 1_555
H8N C12N 1_555 1_555
H8M C12M 1_555 1_555
C13B O4B 1_555 1_555
C13K O4K 1_555 1_555
C13I C14I 1_555 1_555
C13E O4E 1_555 1_555
C13G C14G 1_555 1_555
C14B C13B 1_555 1_555
C14K C13K 1_555 1_555
C14I C15I 1_555 1_555
C14E C13E 1_555 1_555
C14G C15G 1_555 1_555
C15B C14B 1_555 1_555
C15K C14K 1_555 1_555
C15I H9I 1_555 1_555
C15E C14E 1_555 1_555
C15G H9G 1_555 1_555
H9B C15B 1_555 1_555
H9K C15K 1_555 1_555
H9E C15E 1_555 1_555
C16B C16 1_555 1_555
C16K C15K 1_555 1_555
C16I C15I 1_555 1_555
C16E C15E 1_555 1_555
C16G C15G 1_555 1_555
C17B C18 1_555 1_555
C17K C16K 1_555 1_555
C17I C16I 1_555 1_555
C17E C16E 1_555 1_555
C17G C16G 1_555 1_555
H10B C17B 1_555 1_555
H10K C17K 1_555 1_555
H10I C17I 1_555 1_555
H10E C17E 1_555 1_555
H10G C17G 1_555 1_555
C18B C17 1_555 1_555
C18K C14K 1_555 1_555
C18I C14I 1_555 1_555
C18E C14E 1_555 1_555
C18G C14G 1_555 1_555
H11B C18B 1_555 1_555
H11K C18K 1_555 1_555
H11I C18I 1_555 1_555
H11E C18E 1_555 1_555
H11G C18G 1_555 1_555
O3 Ni1E 1_555 1_555
O5 Ni1E 1_555 1_555
C6 C7 1_555 1_555
C11 C12 1_555 1_555
O3S C1S 1_555 1_555
O3E C1E 1_555 1_555
O3M C1M 1_555 1_555
O5B C13B 1_555 1_555
O5K C13K 1_555 1_555
O5E C13E 1_555 1_555
C6K C7K 1_555 1_555
C6S C7S 1_555 1_555
C6E C7E 1_555 1_555
C6N C7N 1_555 1_555
C6M C7M 1_555 1_555
C9S C10S 1_555 1_555
C9N C10N 1_555 1_555
C9M C10M 1_555 1_555
C11K C12K 1_555 1_555
C11S C12S 1_555 1_555
C11E C12E 1_555 1_555
C11N C12N 1_555 1_555
C11M C12M 1_555 1_555
C14B C18B 1_555 1_555
C15B C16B 1_555 1_555
C16B C17B 1_555 1_555
C16K C16I 1_555 1_555
C16E C16G 1_555 1_555
C17K C18I 1_555 1_555
C17I C18K 1_555 1_555
C17E C18G 1_555 1_555
C17G C18E 1_555 1_555

#END
