
#######################################################################
#
#                 Cambridge Crystallographic Data Centre
#                                CCDC 
#
#######################################################################
#
# If this CIF has been generated from an entry in the Cambridge 
# Structural Database, then it will include bibliographic, chemical, 
# crystal, experimental, refinement or atomic coordinate data resulting 
# from the CCDC's data processing and validation procedures.
#
#######################################################################

data_UWAGAB04
_chemical_formula_moiety         '(C78 H48 N2 O13 Zn4)n'
_chemical_name_systematic        
catena-(bis(\m~6~-4',4'',4'''-Nitrilotribiphenyl-4-carboxylato)-(\m~4~-oxo)-tetra-zinc)
_symmetry_cell_setting           cubic
_symmetry_space_group_name_H-M   'P a -3'
_symmetry_Int_Tables_number      205
_space_group_name_Hall           '-P 2ac 2ab 3'
loop_
_symmetry_equiv_pos_site_id
_symmetry_equiv_pos_as_xyz
1 x,y,z
2 1/2-x,-y,1/2+z
3 1/2+x,1/2-y,-z
4 -x,1/2+y,1/2-z
5 y,z,x
6 1/2-y,-z,1/2+x
7 1/2+y,1/2-z,-x
8 -y,1/2+z,1/2-x
9 z,x,y
10 -z,1/2+x,1/2-y
11 1/2-z,-x,1/2+y
12 1/2+z,1/2-x,-y
13 -x,-y,-z
14 1/2+x,y,1/2-z
15 1/2-x,1/2+y,z
16 x,1/2-y,1/2+z
17 -y,-z,-x
18 1/2+y,z,1/2-x
19 1/2-y,1/2+z,x
20 y,1/2-z,1/2+x
21 -z,-x,-y
22 z,1/2-x,1/2+y
23 1/2+z,x,1/2-y
24 1/2-z,1/2+x,y
_cell_length_a                   32.387(5)
_cell_length_b                   32.387(5)
_cell_length_c                   32.387(5)
_cell_angle_alpha                90
_cell_angle_beta                 90
_cell_angle_gamma                90
_cell_volume                     33971.3
_exptl_crystal_colour            brown
_exptl_crystal_description       prism
_cell_formula_units_Z            8
loop_
_atom_site_label
_atom_site_type_symbol
_atom_site_fract_x
_atom_site_fract_y
_atom_site_fract_z
C1 C 0.3181(3) 0.1385(3) -0.0336(2)
H1 H 0.2998 0.1206 -0.0206
C2 C 0.3306(3) 0.1267(3) -0.0700(2)
H2 H 0.3198 0.102 -0.08
C3 C 0.3423(3) 0.1907(3) -0.0884(3)
H3 H 0.3427 0.2086 -0.1109
C4 C 0.3301(3) 0.2036(3) -0.0483(3)
H4 H 0.3239 0.2311 -0.043
C5 C 0.26464(16) 0.43274(14) 0.22795(17)
H5 H 0.2408 0.4284 0.2434
O1 O 0.25159(7) 0.25159(7) 0.25159(7)
O2 O 0.24598(9) 0.20290(9) 0.16565(8)
O3 O 0.29647(10) 0.24973(11) 0.16527(9)
O4 O 0.30297(11) 0.32915(10) 0.21980(11)
O5 O 0.24550(11) 0.35130(9) 0.24893(11)
C6 C 0.27585(12) 0.22104(12) 0.14884(13)
C7 C 0.28814(14) 0.20795(14) 0.10691(14)
C8 C 0.27126(13) 0.17436(14) 0.08805(14)
H6 H 0.2506 0.1596 0.1014
C9 C 0.28423(14) 0.16183(15) 0.04955(16)
H7 H 0.2731 0.138 0.0381
C10 C 0.31323(16) 0.18386(17) 0.02776(16)
C11 C 0.3297(2) 0.2184(2) 0.0462(2)
H8 H 0.349 0.2342 0.032
C12 C 0.3178(2) 0.22992(18) 0.08541(18)
H9 H 0.3299 0.2529 0.0976
C13 C 0.32731(19) 0.17067(18) -0.01332(18)
C14 C 0.3548(2) 0.14450(19) -0.0919(2)
C15 C 0.27839(14) 0.35666(13) 0.22966(14)
C16 C 0.28924(15) 0.39969(13) 0.21768(14)
C17 C 0.32471(19) 0.40729(15) 0.1950(2)
H10 H 0.3419 0.3856 0.1874
C18 C 0.3342(2) 0.44685(17) 0.1838(2)
H11 H 0.3584 0.4514 0.169
C19 C 0.30990(15) 0.48003(13) 0.19326(15)
C20 C 0.27492(17) 0.47245(15) 0.21553(18)
H12 H 0.2576 0.4943 0.2225
C21 C 0.32240(14) 0.52212(13) 0.18072(14)
C22 C 0.36385(14) 0.53314(14) 0.17667(15)
H13 H 0.384 0.5134 0.1823
C23 C 0.37614(14) 0.57180(14) 0.16476(14)
H14 H 0.4041 0.5779 0.1621
C24 C 0.34658(13) 0.60199(13) 0.15658(13)
C25 C 0.30511(13) 0.59244(13) 0.16150(14)
H15 H 0.2851 0.6125 0.1569
C26 C 0.29362(14) 0.55312(14) 0.17324(15)
H16 H 0.2657 0.5471 0.1763
N1 N 0.3698(3) 0.1302(3) -0.1302(3)
N2 N 0.35805(12) 0.64195(12) 0.14195(12)
Zn1 Zn 0.300313(13) 0.269399(13) 0.221584(13)
Zn2 Zn 0.216810(13) 0.216810(13) 0.216810(13)
C1K C 0.4664(2) 0.1819(3) -0.1385(3)
C1E C 0.3615(3) 0.0336(2) -0.1819(3)
H1K H 0.4794 0.2002 -0.1206
H1E H 0.3794 0.0206 -0.2002
C2K C 0.4300(2) 0.1694(3) -0.1267(3)
C2E C 0.3733(3) 0.0700(2) -0.1694(3)
H2K H 0.42 0.1802 -0.102
H2E H 0.398 0.08 -0.1802
C3K C 0.4116(3) 0.1577(3) -0.1907(3)
C3E C 0.3093(3) 0.0884(3) -0.1577(3)
H3K H 0.3891 0.1573 -0.2086
H3E H 0.2914 0.1109 -0.1573
C4K C 0.4517(3) 0.1699(3) -0.2036(3)
C4E C 0.2964(3) 0.0483(3) -0.1699(3)
H4K H 0.457 0.1761 -0.2311
H4E H 0.2689 0.043 -0.1761
C5J C 0.27205(17) 0.73536(16) -0.06726(14)
C5G C 0.56726(14) 0.72795(17) 0.23536(16)
H5J H 0.2566 0.7592 -0.0716
H5G H 0.5716 0.7434 0.2592
O2K O 0.66565(8) 0.25402(9) -0.20290(9)
O2E O 0.29710(9) -0.16565(8) -0.25402(9)
O2H O 0.16565(8) 0.24598(9) 0.20290(9)
O2D O 0.20290(9) 0.16565(8) 0.24598(9)
O3K O 0.66527(9) 0.20353(10) -0.24973(11)
O3E O 0.25027(11) -0.16527(9) -0.20353(10)
O3D O 0.24973(11) 0.16527(9) 0.29647(10)
O3H O 0.16527(9) 0.29647(10) 0.24973(11)
O4J O 0.28020(11) 0.69703(11) -0.17085(10)
O4G O 0.67085(10) 0.71980(11) 0.19703(11)
O4D O 0.32915(10) 0.21980(11) 0.30297(11)
O4H O 0.21980(11) 0.30297(11) 0.32915(10)
O5J O 0.25107(11) 0.75450(11) -0.14870(9)
O5G O 0.64870(9) 0.74893(11) 0.25450(11)
O5D O 0.35130(9) 0.24893(11) 0.24550(11)
O5H O 0.24893(11) 0.24550(11) 0.35130(9)
C6K C 0.64884(13) 0.22415(12) -0.22104(12)
C6E C 0.27896(12) -0.14884(13) -0.22415(12)
C7K C 0.60691(14) 0.21186(14) -0.20795(14)
C7E C 0.29205(14) -0.10691(14) -0.21186(14)
C8K C 0.58805(14) 0.22874(13) -0.17436(14)
C8E C 0.32564(14) -0.08805(14) -0.22874(13)
H6K H 0.6014 0.2494 -0.1596
H6E H 0.3404 -0.1014 -0.2494
C9K C 0.54955(16) 0.21577(14) -0.16183(15)
C9E C 0.33817(15) -0.04955(16) -0.21577(14)
H7K H 0.5381 0.2269 -0.138
H7E H 0.362 -0.0381 -0.2269
C10K C 0.52776(16) 0.18677(16) -0.18386(17)
C10E C 0.31614(17) -0.02776(16) -0.18677(16)
C11K C 0.5462(2) 0.1703(2) -0.2184(2)
C11E C 0.2816(2) -0.0462(2) -0.1703(2)
H8K H 0.532 0.151 -0.2342
H8E H 0.2658 -0.032 -0.151
C12K C 0.58541(18) 0.1822(2) -0.22992(18)
C12E C 0.27008(18) -0.08541(18) -0.1822(2)
H9K H 0.5976 0.1701 -0.2529
H9E H 0.2471 -0.0976 -0.1701
C13K C 0.48668(18) 0.17269(19) -0.17067(18)
C13E C 0.32933(18) 0.01332(18) -0.17269(19)
C14K C 0.4081(2) 0.1452(2) -0.14450(19)
C14E C 0.35550(19) 0.0919(2) -0.1452(2)
C15J C 0.27034(14) 0.72161(14) -0.14334(13)
C15G C 0.64334(13) 0.72966(14) 0.22161(14)
C16J C 0.28232(14) 0.71076(15) -0.10031(13)
C16G C 0.60031(13) 0.71768(14) 0.21076(15)
C17J C 0.3050(2) 0.67529(19) -0.09271(15)
C17G C 0.59271(15) 0.6950(2) 0.17529(19)
H10J H 0.3126 0.6581 -0.1144
H10G H 0.6144 0.6874 0.1581
C18J C 0.3162(2) 0.6658(2) -0.05315(17)
C18G C 0.55315(17) 0.6838(2) 0.1658(2)
H11J H 0.331 0.6416 -0.0486
H11G H 0.5486 0.669 0.1416
C19J C 0.30674(15) 0.69010(15) -0.01997(13)
C19G C 0.51997(13) 0.69326(15) 0.19010(15)
C20J C 0.28447(18) 0.72508(17) -0.02755(15)
C20G C 0.52755(15) 0.71553(18) 0.22508(17)
H12J H 0.2775 0.7424 -0.0057
H12G H 0.5057 0.7225 0.2424
C21J C 0.31928(14) 0.67760(14) 0.02212(13)
C21G C 0.47788(13) 0.68072(14) 0.17760(14)
C22J C 0.32333(15) 0.63615(14) 0.03314(14)
C22G C 0.46686(14) 0.67667(15) 0.13615(14)
H13J H 0.3177 0.616 0.0134
H13G H 0.4866 0.6823 0.116
C23J C 0.33524(14) 0.62386(14) 0.07180(14)
C23G C 0.42820(14) 0.66476(14) 0.12386(14)
H14J H 0.3379 0.5959 0.0779
H14G H 0.4221 0.6621 0.0959
C24J C 0.34342(13) 0.65342(13) 0.10199(13)
C24G C 0.39801(13) 0.65658(13) 0.15342(13)
C25J C 0.33850(14) 0.69489(13) 0.09244(13)
C25G C 0.40756(13) 0.66150(14) 0.19489(13)
H15J H 0.3431 0.7149 0.1125
H15G H 0.3875 0.6569 0.2149
C26J C 0.32676(15) 0.70638(14) 0.05312(14)
C26G C 0.44688(14) 0.67324(15) 0.20638(14)
H16J H 0.3237 0.7343 0.0471
H16G H 0.4529 0.6763 0.2343
Zn1D Zn 0.269399(13) 0.221584(13) 0.300313(13)
Zn1H Zn 0.221584(13) 0.300313(13) 0.269399(13)
Zn1K Zn 0.721584(13) 0.199687(13) -0.269399(13)
Zn1E Zn 0.230601(13) -0.221584(13) -0.199687(13)
Zn1J Zn 0.278416(13) 0.699687(13) -0.230601(13)
Zn1E_2 Zn 0.230601(13) 0.778416(13) -0.199687(13)
Zn1G Zn 0.730601(13) 0.721584(13) 0.199687(13)
Zn1C Zn 0.699687(13) 0.769399(13) 0.278416(13)
Zn2B Zn 0.716810(13) 0.283190(13) -0.216810(13)
Zn2A Zn 0.283190(13) -0.216810(13) -0.283190(13)
loop_
_geom_bond_atom_site_label_1
_geom_bond_atom_site_label_2
_geom_bond_site_symmetry_1
_geom_bond_site_symmetry_2
C1 H1 1_555 1_555
C2 C1 1_555 1_555
H2 C2 1_555 1_555
C3 H3 1_555 1_555
C4 C3 1_555 1_555
H4 C4 1_555 1_555
C5 H5 1_555 1_555
O1 Zn1 1_555 1_555
O2 C6 1_555 1_555
O3 C6 1_555 1_555
O4 C15 1_555 1_555
O5 C15 1_555 1_555
C6 C7 1_555 1_555
C7 C8 1_555 1_555
C8 H6 1_555 1_555
C9 C8 1_555 1_555
H7 C9 1_555 1_555
C10 C9 1_555 1_555
C11 C10 1_555 1_555
H8 C11 1_555 1_555
C12 C7 1_555 1_555
H9 C12 1_555 1_555
C13 C1 1_555 1_555
C14 C2 1_555 1_555
C15 C16 1_555 1_555
C16 C5 1_555 1_555
C17 C16 1_555 1_555
H10 C17 1_555 1_555
C18 C17 1_555 1_555
H11 C18 1_555 1_555
C19 C18 1_555 1_555
C20 C5 1_555 1_555
H12 C20 1_555 1_555
C21 C19 1_555 1_555
C22 C21 1_555 1_555
H13 C22 1_555 1_555
C23 C22 1_555 1_555
H14 C23 1_555 1_555
C24 C23 1_555 1_555
C25 C24 1_555 1_555
H15 C25 1_555 1_555
C26 C21 1_555 1_555
H16 C26 1_555 1_555
N1 C14 1_555 1_555
N2 C24 1_555 1_555
Zn1 O3 1_555 1_555
Zn2 O1 1_555 1_555
C1K H1K 1_555 1_555
C1E H1E 1_555 1_555
C2K C1K 1_555 1_555
C2E C1E 1_555 1_555
H2K C2K 1_555 1_555
H2E C2E 1_555 1_555
C3K H3K 1_555 1_555
C3E H3E 1_555 1_555
C4K C3K 1_555 1_555
C4E C3E 1_555 1_555
H4K C4K 1_555 1_555
H4E C4E 1_555 1_555
C5J H5J 1_555 1_555
C5G H5G 1_555 1_555
O2K C6K 1_555 1_555
O2E C6E 1_555 1_555
O2H Zn2 1_555 1_555
O2D Zn2 1_555 1_555
O3K C6K 1_555 1_555
O3E C6E 1_555 1_555
O3D Zn1D 1_555 1_555
O3H Zn1H 1_555 1_555
O4J C15J 1_555 1_555
O4G C15G 1_555 1_555
O4D Zn1D 1_555 1_555
O4H Zn1H 1_555 1_555
O5J C15J 1_555 1_555
O5G C15G 1_555 1_555
O5D Zn1 1_555 1_555
O5H Zn1D 1_555 1_555
C6K C7K 1_555 1_555
C6E C7E 1_555 1_555
C7K C8K 1_555 1_555
C7E C8E 1_555 1_555
C8K H6K 1_555 1_555
C8E H6E 1_555 1_555
C9K C8K 1_555 1_555
C9E C8E 1_555 1_555
H7K C9K 1_555 1_555
H7E C9E 1_555 1_555
C10K C9K 1_555 1_555
C10E C9E 1_555 1_555
C11K C10K 1_555 1_555
C11E C10E 1_555 1_555
H8K C11K 1_555 1_555
H8E C11E 1_555 1_555
C12K C7K 1_555 1_555
C12E C7E 1_555 1_555
H9K C12K 1_555 1_555
H9E C12E 1_555 1_555
C13K C1K 1_555 1_555
C13E C1E 1_555 1_555
C14K N1 1_555 1_555
C14E N1 1_555 1_555
C15J C16J 1_555 1_555
C15G C16G 1_555 1_555
C16J C5J 1_555 1_555
C16G C5G 1_555 1_555
C17J C16J 1_555 1_555
C17G C16G 1_555 1_555
H10J C17J 1_555 1_555
H10G C17G 1_555 1_555
C18J C17J 1_555 1_555
C18G C17G 1_555 1_555
H11J C18J 1_555 1_555
H11G C18G 1_555 1_555
C19J C18J 1_555 1_555
C19G C18G 1_555 1_555
C20J C5J 1_555 1_555
C20G C5G 1_555 1_555
H12J C20J 1_555 1_555
H12G C20G 1_555 1_555
C21J C19J 1_555 1_555
C21G C19G 1_555 1_555
C22J C21J 1_555 1_555
C22G C21G 1_555 1_555
H13J C22J 1_555 1_555
H13G C22G 1_555 1_555
C23J C22J 1_555 1_555
C23G C22G 1_555 1_555
H14J C23J 1_555 1_555
H14G C23G 1_555 1_555
C24J N2 1_555 1_555
C24G N2 1_555 1_555
C25J C24J 1_555 1_555
C25G C24G 1_555 1_555
H15J C25J 1_555 1_555
H15G C25G 1_555 1_555
C26J C21J 1_555 1_555
C26G C21G 1_555 1_555
H16J C26J 1_555 1_555
H16G C26G 1_555 1_555
Zn1D O1 1_555 1_555
Zn1H O1 1_555 1_555
Zn1K O3K 1_555 1_555
Zn1E O3E 1_555 1_555
Zn1J O4J 1_555 1_555
Zn1E_2 O5J 1_555 1_555
Zn1G O4G 1_555 1_555
Zn1C O5G 1_555 1_555
Zn2B O2K 1_555 1_555
Zn2A O2E 1_555 1_555
C3 C14 1_555 1_555
C4 C13 1_555 1_555
O2 Zn2 1_555 1_555
O4 Zn1 1_555 1_555
O5 Zn1H 1_555 1_555
C10 C13 1_555 1_555
C11 C12 1_555 1_555
C19 C20 1_555 1_555
C25 C26 1_555 1_555
C2K C14K 1_555 1_555
C2E C14E 1_555 1_555
C3K C14K 1_555 1_555
C3E C14E 1_555 1_555
C4K C13K 1_555 1_555
C4E C13E 1_555 1_555
C10K C13K 1_555 1_555
C10E C13E 1_555 1_555
C11K C12K 1_555 1_555
C11E C12E 1_555 1_555
C19J C20J 1_555 1_555
C19G C20G 1_555 1_555
C23J C24J 1_555 1_555
C23G C24G 1_555 1_555
C25J C26J 1_555 1_555
C25G C26G 1_555 1_555

#END
