
#######################################################################
#
#                 Cambridge Crystallographic Data Centre
#                                CCDC 
#
#######################################################################
#
# If this CIF has been generated from an entry in the Cambridge 
# Structural Database, then it will include bibliographic, chemical, 
# crystal, experimental, refinement or atomic coordinate data resulting 
# from the CCDC's data processing and validation procedures.
#
#######################################################################

data_GAZZIS
_chemical_formula_moiety         '(C40 H22 In1 O8 1-)1.75n,1.75n(C2 H8 N1 1+)'
_chemical_name_systematic        
"catena-(dimethylammonium (\m~4~-biphenyl-3,3',5,5'-tetrakis(4-carboxyphenyl))-tetra-indium)"
_symmetry_cell_setting           monoclinic
_symmetry_space_group_name_H-M   'C 2/c'
_symmetry_Int_Tables_number      15
_space_group_name_Hall           '-C 2yc'
loop_
_symmetry_equiv_pos_site_id
_symmetry_equiv_pos_as_xyz
1 x,y,z
2 -x,y,1/2-z
3 1/2+x,1/2+y,z
4 1/2-x,1/2+y,1/2-z
5 -x,-y,-z
6 x,-y,1/2+z
7 1/2-x,1/2-y,-z
8 1/2+x,1/2-y,1/2+z
_cell_length_a                   19.814(7)
_cell_length_b                   28.330(10)
_cell_length_c                   26.219(10)
_cell_angle_alpha                90
_cell_angle_beta                 97.866(6)
_cell_angle_gamma                90
_cell_volume                     14579
_exptl_crystal_colour            colorless
_exptl_crystal_description       tablet
_cell_formula_units_Z            4
loop_
_atom_site_label
_atom_site_type_symbol
_atom_site_fract_x
_atom_site_fract_y
_atom_site_fract_z
In1 In 0.885810(9) 0.252180(6) 0.115710(7)
O1 O -0.01560(9) 0.21338(7) 0.12037(7)
O2 O -0.06523(10) 0.23737(8) 0.04448(7)
O3 O 0.39131(12) 0.24328(7) -0.30354(9)
O4 O 0.27906(13) 0.23800(9) -0.32681(9)
O5 O 0.83280(10) 0.17968(7) 0.11610(8)
O6 O 0.78807(9) 0.23727(7) 0.06608(7)
O7 O 0.34815(11) -0.17461(7) 0.09940(10)
O8 O 0.45763(11) -0.18246(7) 0.11846(9)
C1 C 0.04681(14) 0.20535(10) 0.04905(11)
C2 C 0.04870(17) 0.21094(16) -0.00245(13)
H1 H 0.0093 0.2217 -0.0240
C3 C 0.10807(17) 0.20096(17) -0.02397(14)
H2 H 0.1085 0.2048 -0.0599
C4 C 0.16646(14) 0.18542(11) 0.00719(11)
C5 C 0.16295(17) 0.17916(13) 0.05843(12)
H3 H 0.2020 0.1679 0.0802
C6 C 0.10446(16) 0.18866(12) 0.07941(12)
H4 H 0.1037 0.1837 0.1152
C7 C 0.32311(16) 0.22784(12) -0.23825(11)
C8 C 0.37873(15) 0.22608(11) -0.20033(11)
H5 H 0.4226 0.2335 -0.2088
C9 C 0.37189(14) 0.21392(11) -0.15084(11)
H6 H 0.4110 0.2125 -0.1256
C10 C 0.30730(14) 0.20355(11) -0.13702(11)
C11 C 0.25065(15) 0.20760(13) -0.17538(12)
H7 H 0.2062 0.2028 -0.1667
C12 C 0.25861(16) 0.21830(12) -0.22471(12)
H8 H 0.2198 0.2193 -0.2504
C13 C 0.71768(14) 0.17052(10) 0.07369(11)
C14 C 0.70378(15) 0.13179(11) 0.10328(13)
H9 H 0.7378 0.1200 0.1292
C15 C 0.64012(15) 0.11049(11) 0.09476(13)
H10 H 0.6308 0.0841 0.1150
C16 C 0.58979(14) 0.12740(10) 0.05695(12)
C17 C 0.60591(15) 0.16476(10) 0.02621(11)
H11 H 0.5731 0.1754 -0.0012
C18 C 0.66961(14) 0.18686(10) 0.03494(11)
H12 H 0.6795 0.2129 0.0143
C19 C 0.41638(14) -0.10552(10) 0.09501(12)
C20 C 0.43488(14) -0.00998(10) 0.07131(12)
C21 C 0.3618(3) -0.0732(2) 0.0956(3)
H13 H 0.3190 -0.0839 0.1035
C22 C 0.3711(3) -0.0263(2) 0.0846(3)
H14 H 0.3348 -0.0045 0.0858
C23 C 0.4875(3) -0.0410(2) 0.0754(3)
H15 H 0.5317 -0.0305 0.0707
C24 C 0.4768(3) -0.0883(2) 0.0865(3)
H16 H 0.5143 -0.1095 0.0882
C25 C 0.29933(14) 0.18751(11) -0.08441(11)
C26 C 0.35158(15) 0.16143(11) -0.05617(11)
H17 H 0.3933 0.1572 -0.0696
C27 C 0.34374(14) 0.14140(10) -0.00840(11)
C28 C 0.28281(14) 0.14851(11) 0.01097(11)
H18 H 0.2762 0.1344 0.0428
C29 C 0.23066(14) 0.17628(11) -0.01582(11)
C30 C 0.23996(14) 0.19529(11) -0.06279(11)
H19 H 0.2049 0.2142 -0.0808
C31 C 0.44460(14) 0.03927(11) 0.05681(11)
C32 C 0.38913(14) 0.06765(11) 0.03508(12)
H20 H 0.3441 0.0554 0.0316
C33 C 0.40031(14) 0.11350(10) 0.01870(11)
C34 C 0.46485(14) 0.13188(10) 0.02557(11)
H21 H 0.4719 0.1632 0.0144
C35 C 0.52002(14) 0.10588(11) 0.04848(12)
C36 C 0.50939(14) 0.05998(11) 0.06282(12)
H22 H 0.5474 0.0417 0.0773
C37 C -0.01432(14) 0.21891(10) 0.07229(11)
C38 C 0.33036(19) 0.23723(12) -0.29365(13)
C39 C 0.78372(14) 0.19645(10) 0.08589(11)
C40 C 0.40731(15) -0.15637(11) 0.10550(11)
In1G In 0.385810(9) 0.247820(6) -0.384290(7)
In1_2 In -0.114190(9) 0.252180(6) 0.115710(7)
In1B In 0.385810(9) -0.247820(6) 0.115710(7)
O1_2 O 0.98440(9) 0.21338(7) 0.12037(7)
O2_2 O 0.93477(10) 0.23737(8) 0.04448(7)
O3G O 0.89131(12) 0.25672(7) 0.19646(9)
O7B O 0.84815(11) 0.32539(7) 0.09940(10)
O8B O 0.95763(11) 0.31754(7) 0.11846(9)
C37_2 C 0.98568(14) 0.21891(10) 0.07229(11)
C40B C 0.90731(15) 0.34363(11) 0.10550(11)
N1 N -0.30410(15) 0.31354(11) 0.09391(11)
H23 H -0.2916 0.3376 0.1168
H24 H -0.2689 0.2921 0.0962
C41 C -0.3172(2) 0.33259(14) 0.04137(15)
H25 H -0.2761 0.3484 0.0330
H26 H -0.3547 0.3553 0.0391
H27 H -0.3294 0.3068 0.0170
C42 C -0.3673(3) 0.2898(2) 0.1072(3)
H28 H -0.3583 0.2769 0.1421
H29 H -0.3804 0.2642 0.0827
H30 H -0.4044 0.3129 0.1054
C43? C -0.6330(4) -0.0820(2) 0.0623(3)
C44? C -0.6238(3) -0.0355(2) 0.0506(3)
C45? C -0.5142(3) -0.0355(2) 0.1016(3)
C46? C -0.5223(3) -0.0843(2) 0.1124(3)
H31? H -0.6732 -0.0980 0.0480
H32? H -0.6580 -0.0199 0.0278
H33? H -0.4732 -0.0200 0.1153
H34? H -0.4862 -0.1017 0.1312
loop_
_geom_bond_atom_site_label_1
_geom_bond_atom_site_label_2
_geom_bond_site_symmetry_1
_geom_bond_site_symmetry_2
In1 O5 1_555 1_555
O1 C37 1_555 1_555
O2 C37 1_555 1_555
O3 C38 1_555 1_555
O4 C38 1_555 1_555
O5 C39 1_555 1_555
O6 In1 1_555 1_555
O7 C40 1_555 1_555
O8 C40 1_555 1_555
C1 C2 1_555 1_555
C2 H1 1_555 1_555
C3 C2 1_555 1_555
H2 C3 1_555 1_555
C4 C3 1_555 1_555
C5 C4 1_555 1_555
H3 C5 1_555 1_555
C6 C1 1_555 1_555
H4 C6 1_555 1_555
C7 C8 1_555 1_555
C8 H5 1_555 1_555
C9 C8 1_555 1_555
H6 C9 1_555 1_555
C10 C9 1_555 1_555
C11 C10 1_555 1_555
H7 C11 1_555 1_555
C12 C7 1_555 1_555
H8 C12 1_555 1_555
C13 C14 1_555 1_555
C14 H9 1_555 1_555
C15 C14 1_555 1_555
H10 C15 1_555 1_555
C16 C15 1_555 1_555
C17 C16 1_555 1_555
H11 C17 1_555 1_555
C18 C13 1_555 1_555
H12 C18 1_555 1_555
C19 C21 1_555 1_555
C20 C22 1_555 1_555
C21 H13 1_555 1_555
C22 C21 1_555 1_555
H14 C22 1_555 1_555
C23 C20 1_555 1_555
H15 C23 1_555 1_555
C24 C19 1_555 1_555
H16 C24 1_555 1_555
C25 C10 1_555 1_555
C26 C25 1_555 1_555
H17 C26 1_555 1_555
C27 C26 1_555 1_555
C28 C27 1_555 1_555
H18 C28 1_555 1_555
C29 C4 1_555 1_555
C30 C25 1_555 1_555
H19 C30 1_555 1_555
C31 C20 1_555 1_555
C32 C31 1_555 1_555
H20 C32 1_555 1_555
C33 C27 1_555 1_555
C34 C33 1_555 1_555
H21 C34 1_555 1_555
C35 C16 1_555 1_555
C36 C31 1_555 1_555
H22 C36 1_555 1_555
C37 C1 1_555 1_555
C38 C7 1_555 1_555
C39 O6 1_555 1_555
C40 C19 1_555 1_555
N1 H23 1_555 1_555
H24 N1 1_555 1_555
C41 N1 1_555 1_555
H25 C41 1_555 1_555
H26 C41 1_555 1_555
H27 C41 1_555 1_555
C42 N1 1_555 1_555
H28 C42 1_555 1_555
H29 C42 1_555 1_555
H30 C42 1_555 1_555
In1G O3 1_555 1_555
In1_2 O1 1_555 1_555
In1B O7 1_555 1_555
O1_2 In1 1_555 1_555
O2_2 In1 1_555 1_555
O3G In1 1_555 1_555
O7B In1 1_555 1_555
O8B In1 1_555 1_555
C37_2 O1_2 1_555 1_555
C40B O7B 1_555 1_555
O2 In1_2 1_555 1_555
O8 In1B 1_555 1_555
C5 C6 1_555 1_555
C11 C12 1_555 1_555
C13 C39 1_555 1_555
C17 C18 1_555 1_555
C23 C24 1_555 1_555
C28 C29 1_555 1_555
C29 C30 1_555 1_555
C32 C33 1_555 1_555
C34 C35 1_555 1_555
C35 C36 1_555 1_555
O2_2 C37_2 1_555 1_555
O8B C40B 1_555 1_555

#END
