
#######################################################################
#
#                 Cambridge Crystallographic Data Centre
#                                CCDC 
#
#######################################################################
#
# If this CIF has been generated from an entry in the Cambridge 
# Structural Database, then it will include bibliographic, chemical, 
# crystal, experimental, refinement or atomic coordinate data resulting 
# from the CCDC's data processing and validation procedures.
#
#######################################################################

data_GAZZEO
_chemical_formula_moiety         
'(C40 H22 In1 O8 1-)1.75n,1.75n(C2 H8 N1 1+),12n(C3 H7 N1 O1),10n(H2 O1)'
_chemical_name_systematic        
"catena-(dimethylammonium (\m~4~-biphenyl-3,3',5,5'-tetrakis(4-carboxyphenyl))-tetra-indium dimethylformamide solvate decahydrate)"
_symmetry_cell_setting           orthorhombic
_symmetry_space_group_name_H-M   'F 2 2 2'
_symmetry_Int_Tables_number      22
_space_group_name_Hall           'F 2 2'
loop_
_symmetry_equiv_pos_site_id
_symmetry_equiv_pos_as_xyz
1 x,y,z
2 -x,-y,z
3 -x,y,-z
4 x,-y,-z
5 x,1/2+y,1/2+z
6 -x,1/2-y,1/2+z
7 -x,1/2+y,1/2-z
8 x,1/2-y,1/2-z
9 1/2+x,y,1/2+z
10 1/2-x,-y,1/2+z
11 1/2-x,y,1/2-z
12 1/2+x,-y,1/2-z
13 1/2+x,1/2+y,z
14 1/2-x,1/2-y,z
15 1/2-x,1/2+y,-z
16 1/2+x,1/2-y,-z
_cell_length_a                   16.512(7)
_cell_length_b                   25.952(11)
_cell_length_c                   30.569(12)
_cell_angle_alpha                90
_cell_angle_beta                 90
_cell_angle_gamma                90
_cell_volume                     13099.4
_exptl_crystal_colour            colorless
_exptl_crystal_description       tablet
_cell_formula_units_Z            4
loop_
_atom_site_label
_atom_site_type_symbol
_atom_site_fract_x
_atom_site_fract_y
_atom_site_fract_z
_atom_site_U_iso_or_equiv
_atom_site_thermal_displace_type
In1 In 1.0000 0.0000 0.0000 0.0511 Uani
O1 O 0.9096(5) 0.0113(4) 0.0588(2) 0.0873 Uani
O2 O 0.9354(3) -0.0648(2) 0.03123(13) 0.0703 Uani
C1 C 0.8643(4) -0.0638(3) 0.09915(19) 0.0673 Uani
C2 C 0.8856(5) -0.1162(4) 0.1081(3) 0.0460 Uiso
H1 H 0.9201 -0.1335 0.0880 0.0550 Uiso
C3 C 0.8589(5) -0.1428(4) 0.1438(3) 0.0450 Uiso
H2 H 0.8738 -0.1775 0.1494 0.0540 Uiso
C4 C 0.7872(6) -0.0666(5) 0.1649(4) 0.0620 Uiso
H3 H 0.7525 -0.0487 0.1845 0.0750 Uiso
C5 C 0.8163(6) -0.0399(4) 0.1278(3) 0.0590 Uiso
H4 H 0.8018 -0.0049 0.1233 0.0710 Uiso
C6 C 0.8046(4) -0.1128(3) 0.17338(19) 0.0573 Uani
C7 C 0.7754(3) -0.1414(3) 0.2131(2) 0.0597 Uani
C8 C 0.7751(3) -0.1928(3) 0.21358(17) 0.0617 Uani
H5 H 0.7928 -0.2103 0.1880 0.0740 Uiso
C9 C 0.7500 -0.2232(4) 0.2500 0.0533 Uani
C10 C 0.7500 -0.1121(5) 0.2500 0.0593 Uani
H6 H 0.7500 -0.0755 0.2500 0.0710 Uiso
C11 C 0.9052(7) -0.0366(5) 0.0610(4) 0.0833 Uani
O1A O 1.0904(5) -0.0113(4) 0.0588(2) 0.0873 Uani
O1B O 1.0904(5) 0.0113(4) -0.0588(2) 0.0873 Uani
O1C O 0.9096(5) -0.0113(4) -0.0588(2) 0.0873 Uani
O2A O 1.0646(3) 0.0648(2) 0.03123(13) 0.0703 Uani
O2B O 1.0646(3) -0.0648(2) -0.03123(13) 0.0703 Uani
O2C O 0.9354(3) 0.0648(2) -0.03123(13) 0.0703 Uani
C7J C 0.7246(3) -0.1414(3) 0.2869(2) 0.0597 Uani
C8J C 0.7249(3) -0.1928(3) 0.28642(17) 0.0617 Uani
C9G C 0.7500 -0.2768(4) 0.2500 0.0533 Uani
In2 In 0.7500 0.08223(9) 0.2500 0.0594 Uani
O3 O 0.6793(8) 0.0184(5) 0.2213(3) 0.0613 Uani
O4 O 0.6548(10) 0.0938(6) 0.1941(5) 0.0790 Uani
O5 O 0.6692(8) 0.0738(5) 0.3110(3) 0.0490 Uani
O6 O 0.6819(5) 0.1484(4) 0.2824(3) 0.0967 Uani
C12 C 0.6185(5) 0.0240(4) 0.1489(3) 0.0670 Uiso
C13 C 0.5948(5) -0.0268(4) 0.1544(3) 0.1130 Uiso
H7 H 0.6097 -0.0453 0.1804 0.1360 Uiso
C14 C 0.5495(5) -0.0507(4) 0.1223(3) 0.1330 Uiso
H8 H 0.5331 -0.0858 0.1261 0.1600 Uiso
C15 C 0.5280(5) -0.0238(4) 0.0846(3) 0.1160 Uiso
C16 C 0.5516(5) 0.0269(4) 0.0791(3) 0.0450 Uiso
C17 C 0.5969(5) 0.0508(4) 0.1112(3) 0.0700 Uiso
H10 H 0.6133 0.0859 0.1074 0.0840 Uiso
C18 C 0.5214(9) -0.0600(5) 0.0383(4) 0.0580 Uiso
C19 C 0.5000 -0.0331(8) 0.0000 0.0650 Uiso
C20 C 0.5211(8) -0.1138(5) 0.0388(5) 0.0460 Uiso
H11 H 0.5347 -0.1330 0.0642 0.0550 Uiso
C21 C 0.5000 -0.1376(7) 0.0000 0.0660 Uiso
C22 C 0.5000 -0.1970(7) 0.0000 0.0610 Uiso
C23 C 0.4758(9) -0.2234(7) 0.0359(6) 0.0550 Uiso
H12 H 0.4591 -0.2045 0.0609 0.0660 Uiso
C24 C 0.4741(9) -0.2756(8) 0.0376(6) 0.0560 Uiso
C25 C 0.5000 -0.2989(14) 0.0000 0.0870 Uiso
H13 H 0.5000 -0.3355 0.0000 0.1050 Uiso
C26 C 0.4482(7) -0.3053(6) 0.0763(6) 0.0640 Uiso
C27 C 0.4415(9) -0.2805(9) 0.1162(5) 0.0940 Uiso
H14 H 0.4538 -0.2448 0.1185 0.1130 Uiso
C28 C 0.4164(8) -0.3080(7) 0.1529(7) 0.0780 Uiso
H15 H 0.4129 -0.2892 0.1795 0.0930 Uiso
C29 C 0.3961(7) -0.3596(6) 0.1549(5) 0.0730 Uiso
C30 C 0.4048(10) -0.3813(6) 0.1140(6) 0.1570 Uiso
H16 H 0.3925 -0.4170 0.1119 0.1880 Uiso
C31 C 0.4294(10) -0.3574(6) 0.0752(6) 0.0750 Uiso
H17 H 0.4331 -0.3764 0.0487 0.0900 Uiso
C32 C 0.6512(11) 0.0462(8) 0.1920(6) 0.0550 Uiso
C33 C 0.6602(10) 0.1183(8) 0.3115(6) 0.0530 Uiso
O3J O 0.8207(8) 0.0184(5) 0.2787(3) 0.0613 Uani
O4J O 0.8452(10) 0.0938(6) 0.3059(5) 0.0790 Uani
O5J O 0.8308(8) 0.0738(5) 0.1890(3) 0.0490 Uani
O6J O 0.8181(5) 0.1484(4) 0.2176(3) 0.0967 Uani
C15A C 0.4720(5) 0.0238(4) 0.0846(3) 0.1160 Uiso
C16A C 0.4484(5) -0.0269(4) 0.0791(3) 0.0450 Uiso
C18B C 0.4786(9) -0.0600(5) -0.0383(4) 0.0580 Uiso
C19A C 0.5000 0.0331(8) 0.0000 0.0650 Uiso
C20B C 0.4789(8) -0.1138(5) -0.0388(5) 0.0460 Uiso
C23B C 0.5242(9) -0.2234(7) -0.0359(6) 0.0550 Uiso
C24B C 0.5259(9) -0.2756(8) -0.0376(6) 0.0560 Uiso
C29F C 0.6039(7) 0.1404(6) 0.3451(5) 0.0730 Uiso
C33F C 0.3398(10) -0.3817(8) 0.1885(6) 0.0530 Uiso
H9? H 0.5368 0.0455 0.0531 0.0540 Uiso
C34? C 0.8361(7) -0.1123(6) 0.0957(5) 0.0420 Uiso
C35? C 0.8073(6) -0.1345(6) 0.1329(5) 0.0430 Uiso
C36? C 0.8360(7) -0.0597(6) 0.1753(5) 0.0350 Uiso
C37? C 0.8650(7) -0.0350(6) 0.1393(5) 0.0390 Uiso
H18? H 0.8362 -0.1301 0.0685 0.0500 Uiso
H19? H 0.7872 -0.1687 0.1303 0.0520 Uiso
H20? H 0.8359 -0.0420 0.2025 0.0420 Uiso
H21? H 0.8847 -0.0007 0.1406 0.0460 Uiso
loop_
_atom_site_aniso_label
_atom_site_aniso_U_11
_atom_site_aniso_U_22
_atom_site_aniso_U_33
_atom_site_aniso_U_23
_atom_site_aniso_U_13
_atom_site_aniso_U_12
In1 0.0761(6) 0.0528(7) 0.0243(4) 0.000 0.000 0.000
O1 0.109(4) 0.104(10) 0.049(3) 0.026(4) 0.012(3) -0.008(5)
O2 0.100(4) 0.082(4) 0.029(2) -0.008(2) 0.021(2) -0.020(3)
C1 0.090(5) 0.084(6) 0.028(3) -0.002(3) 0.016(3) 0.010(4)
C6 0.091(5) 0.050(4) 0.031(3) 0.000(3) 0.019(3) -0.007(4)
C7 0.082(5) 0.062(5) 0.035(3) 0.002(3) 0.029(3) -0.006(4)
C8 0.089(5) 0.072(5) 0.024(3) -0.010(3) 0.022(3) 0.007(4)
C9 0.090(6) 0.056(5) 0.014(3) 0.000 0.011(4) 0.000
C10 0.080(6) 0.063(7) 0.035(5) 0.000 0.038(4) 0.000
C11 0.090(6) 0.115(10) 0.045(5) 0.021(6) 0.001(4) 0.000(6)
O1A 0.109 0.104 0.049 -0.026 -0.012 -0.008
O1B 0.109 0.104 0.049 -0.026 0.012 0.008
O1C 0.109 0.104 0.049 0.026 -0.012 0.008
O2A 0.1 0.082 0.029 0.008 -0.021 -0.02
O2B 0.1 0.082 0.029 0.008 0.021 0.02
O2C 0.1 0.082 0.029 -0.008 -0.021 0.02
C7J 0.082 0.062 0.035 -0.002 0.029 0.006
C8J 0.089 0.072 0.024 0.01 0.022 -0.007
C9G 0.09 0.056 0.014 0 -0.011 0
In2 0.0926(15) 0.0511(16) 0.0346(10) 0.000 0.0238(8) 0.000
O3 0.084(8) 0.066(10) 0.034(5) -0.015(5) 0.012(5) 0.019(6)
O4 0.101(10) 0.060(11) 0.076(9) -0.014(7) 0.012(8) 0.014(8)
O5 0.088 0.037 0.022 -0.003 0.029 -0.017
O6 0.137 0.084 0.069 -0.012 0.063 -0.016
O3J 0.084 0.066 0.034 0.015 0.012 -0.019
O4J 0.101 0.06 0.076 0.014 0.012 -0.014
O5J 0.088 0.037 0.022 0.003 0.029 0.017
O6J 0.137 0.084 0.069 0.012 0.063 0.016
loop_
_geom_bond_atom_site_label_1
_geom_bond_atom_site_label_2
_geom_bond_site_symmetry_1
_geom_bond_site_symmetry_2
In1 O1 1_555 1_555
O1 C11 1_555 1_555
O2 In1 1_555 1_555
C1 C2 1_555 1_555
C2 H1 1_555 1_555
C3 C2 1_555 1_555
H2 C3 1_555 1_555
C4 H3 1_555 1_555
C5 C1 1_555 1_555
H4 C5 1_555 1_555
C6 C3 1_555 1_555
C7 C6 1_555 1_555
C8 C7 1_555 1_555
H5 C8 1_555 1_555
C9 C8 1_555 1_555
C10 C7 1_555 1_555
H6 C10 1_555 1_555
C11 O2 1_555 1_555
In2 O3 1_555 1_555
O3 C32 1_555 1_555
O4 In2 1_555 1_555
O5 In2 1_555 1_555
O6 In2 1_555 1_555
C12 C13 1_555 1_555
C13 H7 1_555 1_555
C14 C13 1_555 1_555
H8 C14 1_555 1_555
C15 C14 1_555 1_555
C16 C15 1_555 1_555
C17 C12 1_555 1_555
H10 C17 1_555 1_555
C18 C15 1_555 1_555
C19 C18 1_555 1_555
C20 C18 1_555 1_555
H11 C20 1_555 1_555
C21 C20 1_555 1_555
C22 C21 1_555 1_555
C23 C22 1_555 1_555
H12 C23 1_555 1_555
C24 C23 1_555 1_555
C25 C24 1_555 1_555
H13 C25 1_555 1_555
C26 C24 1_555 1_555
C27 C26 1_555 1_555
H14 C27 1_555 1_555
C28 C27 1_555 1_555
H15 C28 1_555 1_555
C29 C28 1_555 1_555
C30 C29 1_555 1_555
H16 C30 1_555 1_555
C31 C26 1_555 1_555
H17 C31 1_555 1_555
C32 O4 1_555 1_555
C33 O5 1_555 1_555
O1A In1 1_555 1_555
O1B In1 1_555 1_555
O1C In1 1_555 1_555
O2A In1 1_555 1_555
O2B In1 1_555 1_555
O2C In1 1_555 1_555
C7J C10 1_555 1_555
C8J C9 1_555 1_555
C9G C9 1_555 1_555
O3J In2 1_555 1_555
O4J In2 1_555 1_555
O5J In2 1_555 1_555
O6J In2 1_555 1_555
C15A C15 1_555 1_555
C16A C15 1_555 1_555
C18B C19 1_555 1_555
C19A C19 1_555 1_555
C20B C21 1_555 1_555
C23B C22 1_555 1_555
C24B C25 1_555 1_555
C29F C33 1_555 1_555
C33F C29 1_555 1_555
C1 C11 1_555 1_555
C4 C5 1_555 1_555
C4 C6 1_555 1_555
O6 C33 1_555 1_555
C12 C32 1_555 1_555
C16 C17 1_555 1_555
C16 C15A 1_555 1_555
C30 C31 1_555 1_555
C7J C8J 1_555 1_555
C15A C16A 1_555 1_555
C18B C20B 1_555 1_555
C23B C24B 1_555 1_555

#END
