
#######################################################################
#
#                 Cambridge Crystallographic Data Centre
#                                CCDC 
#
#######################################################################
#
# If this CIF has been generated from an entry in the Cambridge 
# Structural Database, then it will include bibliographic, chemical, 
# crystal, experimental, refinement or atomic coordinate data resulting 
# from the CCDC's data processing and validation procedures.
#
#######################################################################

data_DAWCUB
_chemical_formula_moiety         '(C94 H78 Cd6 N2 O32)n,4n(H2 O1)'
_chemical_name_systematic        
'catena-(tetrakis(\m~6~-tris(4-Carboxylatophenyl)methane)-hexa-aqua-bis(dimethylformamide)-hexa-cadmium tetrahydrate)'
_symmetry_cell_setting           monoclinic
_symmetry_space_group_name_H-M   'P 2/c'
_symmetry_Int_Tables_number      13
_space_group_name_Hall           '-P 2yc'
loop_
_symmetry_equiv_pos_site_id
_symmetry_equiv_pos_as_xyz
1 x,y,z
2 -x,y,1/2-z
3 -x,-y,-z
4 x,-y,1/2+z
_cell_length_a                   14.132(3)
_cell_length_b                   25.112(5)
_cell_length_c                   19.910(3)
_cell_angle_alpha                90
_cell_angle_beta                 121.510(10)
_cell_angle_gamma                90
_cell_volume                     6023.87
_exptl_crystal_colour            colorless
_exptl_crystal_description       block
_cell_formula_units_Z            2
loop_
_atom_site_label
_atom_site_type_symbol
_atom_site_fract_x
_atom_site_fract_y
_atom_site_fract_z
O2 O 0.044(2) 0.060(2) 0.913(2)
H2 H 0.0234 0.0312 0.8872
H3 H 0.1092 0.0567 0.9526
O3 O 0.518(3) 0.441(2) 0.412(2)
H4 H 0.5021 0.4141 0.3809
H5 H 0.5711 0.4580 0.4140
C1 C 0.1497(10) 0.7128(5) 0.3974(7)
C2 C 0.2187(10) 0.7453(5) 0.3782(7)
C3 C 0.3194(10) 0.7633(5) 0.4362(7)
H6 H 0.3456 0.7538 0.4882
C4 C 0.3830(10) 0.7951(5) 0.4193(7)
H7 H 0.4530 0.8056 0.4599
C5 C 0.3457(10) 0.8119(5) 0.3440(7)
C6 C 0.2459(10) 0.7938(5) 0.2854(7)
H8 H 0.2188 0.8042 0.2336
C7 C 0.1839(10) 0.7597(5) 0.3029(7)
H9 H 0.1169 0.7465 0.2619
C8 C 0.4083(10) 0.8507(5) 0.3215(7)
H10 H 0.3999 0.8370 0.2726
C9 C 0.5343(10) 0.8529(5) 0.3820(7)
C10 C 0.6044(10) 0.8181(5) 0.3773(7)
H11 H 0.5753 0.7945 0.3351
C11 C 0.7139(10) 0.8163(5) 0.4309(7)
H12 H 0.7583 0.7917 0.4248
C12 C 0.7607(10) 0.8499(5) 0.4939(7)
C13 C 0.6943(11) 0.8858(5) 0.5027(8)
H13 H 0.7244 0.9086 0.5459
C14 C 0.5830(11) 0.8874(5) 0.4468(8)
H14 H 0.5384 0.9123 0.4520
C15 C 0.8833(10) 0.8500(5) 0.5558(8)
C16 C 0.3522(10) 0.9050(5) 0.3015(8)
C17 C 0.3399(11) 0.9328(5) 0.2384(8)
H15 H 0.3682 0.9187 0.2093
C18 C 0.2850(11) 0.9826(5) 0.2165(8)
H16 H 0.2767 1.0009 0.1731
C19 C 0.2438(11) 1.0038(5) 0.2603(8)
C20 C 0.2616(11) 0.9761(5) 0.3248(8)
H17 H 0.2366 0.9910 0.3555
C21 C 0.3143(10) 0.9273(5) 0.3476(8)
H18 H 0.3242 0.9099 0.3920
C22 C 0.1794(13) 1.0566(6) 0.2325(10)
C23 C 0.9004(11) 0.4471(5) 0.5912(7)
C24 C 0.8418(10) 0.4985(5) 0.5579(7)
C25 C 0.8398(11) 0.5197(5) 0.4912(7)
H19 H 0.8735 0.5020 0.4681
C26 C 0.7850(11) 0.5683(5) 0.4614(7)
H20 H 0.7824 0.5830 0.4176
C27 C 0.7340(10) 0.5954(5) 0.4955(7)
C28 C 0.7419(10) 0.5722(5) 0.5618(7)
H21 H 0.7107 0.5897 0.5868
C29 C 0.7929(10) 0.5254(5) 0.5906(7)
H22 H 0.7947 0.5111 0.6343
C30 C 0.6792(10) 0.6500(5) 0.4612(7)
H23 H 0.7144 0.6640 0.4336
C31 C 0.7065(10) 0.6887(5) 0.5272(7)
C32 C 0.8117(10) 0.7062(5) 0.5720(7)
H24 H 0.8649 0.6950 0.5611
C33 C 0.8409(10) 0.7399(5) 0.6330(7)
H25 H 0.9139 0.7517 0.6625
C34 C 0.7659(10) 0.7574(5) 0.6530(7)
C35 C 0.6603(10) 0.7404(5) 0.6054(7)
H26 H 0.6065 0.7520 0.6155
C36 C 0.6286(11) 0.7066(5) 0.5423(8)
H27 H 0.5548 0.6962 0.5106
C37 C 0.7992(10) 0.7905(5) 0.7223(7)
C38 C 0.5566(10) 0.6453(5) 0.4002(7)
C39 C 0.4899(11) 0.6097(6) 0.4054(9)
H28 H 0.5201 0.5855 0.4469
C40 C 0.3716(12) 0.6081(6) 0.3476(8)
H29 H 0.3254 0.5842 0.3528
C41 C 0.3297(11) 0.6428(5) 0.2852(8)
C42 C 0.4000(12) 0.6800(6) 0.2856(9)
H30 H 0.3725 0.7064 0.2472
C43 C 0.5103(12) 0.6790(6) 0.3417(8)
H31 H 0.5558 0.7042 0.3382
C44 C 0.2100(11) 0.6420(6) 0.2195(9)
C45 C 0.0552(13) 0.6129(7) 0.5814(8)
H32 H 0.0459 0.5825 0.5518
C46 C 0.114(2) 0.6543(8) 0.7099(11)
H33 H 0.0967 0.6863 0.6792
H34 H 0.1913 0.6546 0.7508
H35 H 0.0694 0.6523 0.7330
C47 C 0.1111(17) 0.5530(8) 0.6937(10)
H36 H 0.1064 0.5267 0.6570
H37 H 0.0562 0.5456 0.7070
H38 H 0.1837 0.5519 0.7405
Cd1 Cd -0.00052(7) 0.66191(3) 0.42438(5)
Cd2 Cd 0.0000 0.62482(4) 0.2500
Cd3 Cd 1.11993(7) 0.84087(4) 0.63443(5)
Cd4 Cd 1.0000 0.87453(5) 0.7500
N1 N 0.0912(11) 0.6066(6) 0.6574(7)
O4 O 0.1746(8) 0.7054(4) 0.4666(5)
O5 O 0.0589(7) 0.6944(3) 0.3410(5)
O6 O 0.9432(7) 0.8198(4) 0.5426(5)
O7 O 0.9207(8) 0.8781(4) 0.6147(5)
O8 O 0.1280(9) 1.0678(4) 0.2671(7)
O9 O 0.1844(10) 1.0810(4) 0.1799(7)
O10 O 0.9382(8) 0.4218(4) 0.5548(5)
O11 O 0.9062(8) 0.4325(4) 0.6530(5)
O12 O 0.7348(8) 0.8013(4) 0.7441(6)
O13 O 0.8984(7) 0.8071(3) 0.7629(5)
O14 O 0.1825(8) 0.6637(4) 0.1563(6)
O15 O 0.1453(8) 0.6178(4) 0.2357(6)
O16 O -0.0463(10) 0.7532(4) 0.4328(6)
H39 H -0.0981 0.7540 0.4425
H40 H 0.0108 0.7686 0.4697
O17 O 1.1923(13) 0.7786(7) 0.5890(8)
H41 H 1.2122 0.7512 0.6183
H42 H 1.2483 0.7919 0.5899
O18 O 1.0969(16) 0.8889(8) 0.5170(10)
H43 H 1.0293 0.8970 0.4851
H44 H 1.1196 0.8687 0.4941
O19 O 0.0336(8) 0.6556(4) 0.5482(5)
C1A C -0.1497(10) 0.7128(5) 0.1026(7)
C2A C -0.2187(10) 0.7453(5) 0.1218(7)
C3A C -0.3194(10) 0.7633(5) 0.0638(7)
H6A H -0.3456 0.7538 0.0118
C4A C -0.3830(10) 0.7951(5) 0.0807(7)
H7A H -0.4530 0.8056 0.0401
C5A C -0.3457(10) 0.8119(5) 0.1560(7)
C6A C -0.2459(10) 0.7938(5) 0.2146(7)
H8A H -0.2188 0.8042 0.2664
C7A C -0.1839(10) 0.7597(5) 0.1971(7)
H9A H -0.1169 0.7465 0.2381
C8A C -0.4083(10) 0.8507(5) 0.1785(7)
H10A H -0.3999 0.8370 0.2274
C9A C -0.5343(10) 0.8529(5) 0.1180(7)
C10A C -0.6044(10) 0.8181(5) 0.1227(7)
H11A H -0.5753 0.7945 0.1649
C11A C -0.7139(10) 0.8163(5) 0.0691(7)
H12A H -0.7583 0.7917 0.0752
C12A C -0.7607(10) 0.8499(5) 0.0061(7)
C13A C -0.6943(11) 0.8858(5) -0.0027(8)
H13A H -0.7244 0.9086 -0.0459
C14A C -0.5830(11) 0.8874(5) 0.0532(8)
H14A H -0.5384 0.9123 0.0480
C15A C -0.8833(10) 0.8500(5) -0.0558(8)
C15A_2 C 1.1167(10) 0.8500(5) 0.9442(8)
C16A C -0.3522(10) 0.9050(5) 0.1985(8)
C17A C -0.3399(11) 0.9328(5) 0.2616(8)
H15A H -0.3682 0.9187 0.2907
C18A C -0.2850(11) 0.9826(5) 0.2835(8)
H16A H -0.2767 1.0009 0.3269
C19A C -0.2438(11) 1.0038(5) 0.2397(8)
C20A C -0.2616(11) 0.9761(5) 0.1752(8)
H17A H -0.2366 0.9910 0.1445
C21A C -0.3143(10) 0.9273(5) 0.1524(8)
H18A H -0.3242 0.9099 0.1080
C22A C -0.1794(13) 1.0566(6) 0.2675(10)
C22C C 1.1794(13) 0.9434(6) 0.7325(10)
C22B C 0.8206(13) 0.9434(6) 0.7675(10)
C22B_2 C -1.1794(13) 0.9434(6) -0.2325(10)
C23A C -0.9004(11) 0.4471(5) -0.0912(7)
C23B C 0.0996(11) 0.5529(5) 0.4088(7)
C23C C -0.0996(11) 0.5529(5) 0.0912(7)
C24A C -0.8418(10) 0.4985(5) -0.0579(7)
C25A C -0.8398(11) 0.5197(5) 0.0088(7)
H19A H -0.8735 0.5020 0.0319
C26A C -0.7850(11) 0.5683(5) 0.0386(7)
H20A H -0.7824 0.5830 0.0824
C27A C -0.7340(10) 0.5954(5) 0.0045(7)
C28A C -0.7419(10) 0.5722(5) -0.0618(7)
H21A H -0.7107 0.5897 -0.0868
C29A C -0.7929(10) 0.5254(5) -0.0906(7)
H22A H -0.7947 0.5111 -0.1343
C30A C -0.6792(10) 0.6500(5) 0.0388(7)
H23A H -0.7144 0.6640 0.0664
C31A C -0.7065(10) 0.6887(5) -0.0272(7)
C32A C -0.8117(10) 0.7062(5) -0.0720(7)
H24A H -0.8649 0.6950 -0.0611
C33A C -0.8409(10) 0.7399(5) -0.1330(7)
H25A H -0.9139 0.7517 -0.1625
C34A C -0.7659(10) 0.7574(5) -0.1530(7)
C35A C -0.6603(10) 0.7404(5) -0.1054(7)
H26A H -0.6065 0.7520 -0.1155
C36A C -0.6286(11) 0.7066(5) -0.0423(8)
H27A H -0.5548 0.6962 -0.0106
C37A C -0.7992(10) 0.7905(5) -0.2223(7)
C37A_2 C 1.2008(10) 0.7905(5) 0.7777(7)
C37_2 C -1.2008(10) 0.7905(5) -0.2777(7)
C38A C -0.5566(10) 0.6453(5) 0.0998(7)
C39A C -0.4899(11) 0.6097(6) 0.0946(9)
H28A H -0.5201 0.5855 0.0531
C40A C -0.3716(12) 0.6081(6) 0.1524(8)
H29A H -0.3254 0.5842 0.1472
C41A C -0.3297(11) 0.6428(5) 0.2148(8)
C42A C -0.4000(12) 0.6800(6) 0.2144(9)
H30A H -0.3725 0.7064 0.2528
C43A C -0.5103(12) 0.6790(6) 0.1583(8)
H31A H -0.5558 0.7042 0.1618
C44A C -0.2100(11) 0.6420(6) 0.2805(9)
C45A C -0.0552(13) 0.6129(7) -0.0814(8)
H32A H -0.0459 0.5825 -0.0518
C46A C -0.114(2) 0.6543(8) -0.2099(11)
H33A H -0.0967 0.6863 -0.1792
H34A H -0.1913 0.6546 -0.2508
H35A H -0.0694 0.6523 -0.2330
C47A C -0.1111(17) 0.5530(8) -0.1937(10)
H36A H -0.1064 0.5267 -0.1570
H37A H -0.0562 0.5456 -0.2070
H38A H -0.1837 0.5519 -0.2405
Cd1A Cd 0.00052(7) 0.66191(3) 0.07562(5)
Cd1B Cd 1.00052(7) 0.33809(3) 0.57562(5)
Cd1C Cd -1.00052(7) 0.33809(3) -0.07562(5)
Cd2B Cd 1.0000 0.37518(4) 0.7500
Cd2B_2 Cd -1.0000 0.37518(4) -0.2500
Cd3A Cd -1.11993(7) 0.84087(4) -0.13443(5)
Cd3C Cd 0.11993(7) 1.15913(4) 0.13443(5)
Cd3A_2 Cd 0.88007(7) 0.84087(4) 0.86557(5)
Cd3B Cd -0.11993(7) 1.15913(4) 0.36557(5)
Cd3_2 Cd -0.88007(7) 0.84087(4) -0.36557(5)
Cd4B Cd 0.0000 1.12547(5) 0.2500
Cd4_2 Cd -1.0000 0.87453(5) -0.2500
N1A N -0.0912(11) 0.6066(6) -0.1574(7)
O4A O -0.1746(8) 0.7054(4) 0.0334(5)
O4B O 0.8254(8) 0.2946(4) 0.5334(5)
O4C O -0.8254(8) 0.2946(4) -0.0334(5)
O5A O -0.0589(7) 0.6944(3) 0.1590(5)
O5B O 0.9411(7) 0.3056(3) 0.6590(5)
O5C O 1.0589(7) 0.3056(3) 0.8410(5)
O5C_2 O -0.9411(7) 0.3056(3) -0.1590(5)
O5B_2 O -1.0589(7) 0.3056(3) -0.3410(5)
O6A O -0.9432(7) 0.8198(4) -0.0426(5)
O6C O -0.0568(7) 1.1802(4) 0.0426(5)
O6A_2 O 1.0568(7) 0.8198(4) 0.9574(5)
O6B O 0.0568(7) 1.1802(4) 0.4574(5)
O6_2 O -1.0568(7) 0.8198(4) -0.4574(5)
O7A O -0.9207(8) 0.8781(4) -0.1147(5)
O7A_2 O 1.0793(8) 0.8781(4) 0.8853(5)
O7B O 0.0793(8) 1.1219(4) 0.3853(5)
O7C O -0.0793(8) 1.1219(4) 0.1147(5)
O7_2 O -1.0793(8) 0.8781(4) -0.3853(5)
O8A O -0.1280(9) 1.0678(4) 0.2329(7)
O8B O 0.8720(9) 0.9322(4) 0.7329(7)
O8C O 1.1280(9) 0.9322(4) 0.7671(7)
O8B_2 O -1.1280(9) 0.9322(4) -0.2671(7)
O8C_2 O -0.8720(9) 0.9322(4) -0.2329(7)
O9A O -0.1844(10) 1.0810(4) 0.3201(7)
O9C O 1.1844(10) 0.9190(4) 0.6799(7)
O9B O -1.1844(10) 0.9190(4) -0.1799(7)
O9B_2 O 0.8156(10) 0.9190(4) 0.8201(7)
O9C_2 O -0.8156(10) 0.9190(4) -0.3201(7)
O10A O -0.9382(8) 0.4218(4) -0.0548(5)
O10B O 0.0618(8) 0.5782(4) 0.4452(5)
O10C O -0.0618(8) 0.5782(4) 0.0548(5)
O11A O -0.9062(8) 0.4325(4) -0.1530(5)
O11B O 0.0938(8) 0.5675(4) 0.3470(5)
O11C O -0.0938(8) 0.5675(4) 0.1530(5)
O11A_2 O 1.0938(8) 0.4325(4) 0.8470(5)
O11_2 O -1.0938(8) 0.4325(4) -0.3470(5)
O12A O -0.7348(8) 0.8013(4) -0.2441(6)
O12A_2 O 1.2652(8) 0.8013(4) 0.7559(6)
O12_2 O -1.2652(8) 0.8013(4) -0.2559(6)
O12B O 0.2652(8) 1.1987(4) 0.2559(6)
O12C O -0.2652(8) 1.1987(4) 0.2441(6)
O13A O -0.8984(7) 0.8071(3) -0.2629(5)
O13A_2 O 1.1016(7) 0.8071(3) 0.7371(5)
O13_2 O -1.1016(7) 0.8071(3) -0.2371(5)
O13B O 0.1016(7) 1.1929(3) 0.2371(5)
O13C O -0.1016(7) 1.1929(3) 0.2629(5)
O14A O -0.1825(8) 0.6637(4) 0.3437(6)
O14C O 1.1825(8) 0.3363(4) 0.6563(6)
O14B O -1.1825(8) 0.3363(4) -0.1563(6)
O15A O -0.1453(8) 0.6178(4) 0.2643(6)
O15B O 0.8547(8) 0.3822(4) 0.7643(6)
O15C O 1.1453(8) 0.3822(4) 0.7357(6)
O15B_2 O -1.1453(8) 0.3822(4) -0.2357(6)
O15C_2 O -0.8547(8) 0.3822(4) -0.2643(6)
O16A O 0.0463(10) 0.7532(4) 0.0672(6)
O16B O 1.0463(10) 0.2468(4) 0.5672(6)
O16C O -1.0463(10) 0.2468(4) -0.0672(6)
H39A H 0.0981 0.7540 0.0575
H40A H -0.0108 0.7686 0.0303
O17A O -1.1923(13) 0.7786(7) -0.0890(8)
O17C O 0.1923(13) 1.2214(7) 0.0890(8)
O17A_2 O 0.8077(13) 0.7786(7) 0.9110(8)
O17B O -0.1923(13) 1.2214(7) 0.4110(8)
O17_2 O -0.8077(13) 0.7786(7) -0.4110(8)
H41A H -1.2122 0.7512 -0.1183
H42A H -1.2483 0.7919 -0.0899
O18A O -1.0969(16) 0.8889(8) -0.0170(10)
O18C O 0.0969(16) 1.1111(8) 0.0170(10)
O18A_2 O 0.9031(16) 0.8889(8) 0.9830(10)
O18B O -0.0969(16) 1.1111(8) 0.4830(10)
O18_2 O -0.9031(16) 0.8889(8) -0.4830(10)
H43A H -1.0293 0.8970 0.0149
H44A H -1.1196 0.8687 0.0059
O19A O -0.0336(8) 0.6556(4) -0.0482(5)
O19B O 0.9664(8) 0.3444(4) 0.4518(5)
O19C O -0.9664(8) 0.3444(4) 0.0482(5)
O1 O 0.465(2) 0.9124(13) 0.6060(12)
H1 H 0.5227 0.9159 0.6035
H45? H 0.4279 0.9412 0.5919
loop_
_geom_bond_atom_site_label_1
_geom_bond_atom_site_label_2
_geom_bond_site_symmetry_1
_geom_bond_site_symmetry_2
O1 H1 1_555 1_555
O2 H2 1_555 1_555
H3 O2 1_555 1_555
O3 H4 1_555 1_555
H5 O3 1_555 1_555
C1 C2 1_555 1_555
C2 C3 1_555 1_555
C3 H6 1_555 1_555
C4 C3 1_555 1_555
H7 C4 1_555 1_555
C5 C4 1_555 1_555
C6 C5 1_555 1_555
H8 C6 1_555 1_555
C7 C2 1_555 1_555
H9 C7 1_555 1_555
C8 C5 1_555 1_555
H10 C8 1_555 1_555
C9 C8 1_555 1_555
C10 C9 1_555 1_555
H11 C10 1_555 1_555
C11 C10 1_555 1_555
H12 C11 1_555 1_555
C12 C11 1_555 1_555
C13 C12 1_555 1_555
H13 C13 1_555 1_555
C14 C9 1_555 1_555
H14 C14 1_555 1_555
C15 C12 1_555 1_555
C16 C8 1_555 1_555
C17 C16 1_555 1_555
H15 C17 1_555 1_555
C18 C17 1_555 1_555
H16 C18 1_555 1_555
C19 C18 1_555 1_555
C20 C19 1_555 1_555
H17 C20 1_555 1_555
C21 C16 1_555 1_555
H18 C21 1_555 1_555
C22 C19 1_555 1_555
C23 C24 1_555 1_555
C24 C25 1_555 1_555
C25 H19 1_555 1_555
C26 C25 1_555 1_555
H20 C26 1_555 1_555
C27 C26 1_555 1_555
C28 C27 1_555 1_555
H21 C28 1_555 1_555
C29 C24 1_555 1_555
H22 C29 1_555 1_555
C30 C27 1_555 1_555
H23 C30 1_555 1_555
C31 C30 1_555 1_555
C32 C31 1_555 1_555
H24 C32 1_555 1_555
C33 C32 1_555 1_555
H25 C33 1_555 1_555
C34 C33 1_555 1_555
C35 C34 1_555 1_555
H26 C35 1_555 1_555
C36 C31 1_555 1_555
H27 C36 1_555 1_555
C37 C34 1_555 1_555
C38 C30 1_555 1_555
C39 C38 1_555 1_555
H28 C39 1_555 1_555
C40 C39 1_555 1_555
H29 C40 1_555 1_555
C41 C40 1_555 1_555
C42 C41 1_555 1_555
H30 C42 1_555 1_555
C43 C38 1_555 1_555
H31 C43 1_555 1_555
C44 C41 1_555 1_555
C45 H32 1_555 1_555
C46 H33 1_555 1_555
H34 C46 1_555 1_555
H35 C46 1_555 1_555
C47 H36 1_555 1_555
H37 C47 1_555 1_555
H38 C47 1_555 1_555
Cd1 O4 1_555 1_555
Cd2 O5 1_555 1_555
Cd3 O6 1_555 1_555
Cd4 O7 1_555 1_555
N1 C45 1_555 1_555
O4 C1 1_555 1_555
O5 C1 1_555 1_555
O6 C15 1_555 1_555
O7 C15 1_555 1_555
O8 C22 1_555 1_555
O9 C22 1_555 1_555
O10 C23 1_555 1_555
O11 C23 1_555 1_555
O12 C37 1_555 1_555
O13 C37 1_555 1_555
O14 C44 1_555 1_555
O15 C44 1_555 1_555
O16 Cd1 1_555 1_555
H39 O16 1_555 1_555
H40 O16 1_555 1_555
O17 Cd3 1_555 1_555
H41 O17 1_555 1_555
H42 O17 1_555 1_555
O18 Cd3 1_555 1_555
H43 O18 1_555 1_555
H44 O18 1_555 1_555
O19 C45 1_555 1_555
C1A C2A 1_555 1_555
C2A C3A 1_555 1_555
C3A H6A 1_555 1_555
C4A C3A 1_555 1_555
H7A C4A 1_555 1_555
C5A C4A 1_555 1_555
C6A C5A 1_555 1_555
H8A C6A 1_555 1_555
C7A C2A 1_555 1_555
H9A C7A 1_555 1_555
C8A C5A 1_555 1_555
H10A C8A 1_555 1_555
C9A C8A 1_555 1_555
C10A C9A 1_555 1_555
H11A C10A 1_555 1_555
C11A C10A 1_555 1_555
H12A C11A 1_555 1_555
C12A C11A 1_555 1_555
C13A C12A 1_555 1_555
H13A C13A 1_555 1_555
C14A C9A 1_555 1_555
H14A C14A 1_555 1_555
C15A C12A 1_555 1_555
C15A_2 O6A_2 1_555 1_555
C16A C8A 1_555 1_555
C17A C16A 1_555 1_555
H15A C17A 1_555 1_555
C18A C17A 1_555 1_555
H16A C18A 1_555 1_555
C19A C18A 1_555 1_555
C20A C19A 1_555 1_555
H17A C20A 1_555 1_555
C21A C16A 1_555 1_555
H18A C21A 1_555 1_555
C22A C19A 1_555 1_555
C22C O8C 1_555 1_555
C22B O8B 1_555 1_555
C22B_2 O8B_2 1_555 1_555
C23A C24A 1_555 1_555
C23B O10B 1_555 1_555
C23C O10C 1_555 1_555
C24A C25A 1_555 1_555
C25A H19A 1_555 1_555
C26A C25A 1_555 1_555
H20A C26A 1_555 1_555
C27A C26A 1_555 1_555
C28A C27A 1_555 1_555
H21A C28A 1_555 1_555
C29A C24A 1_555 1_555
H22A C29A 1_555 1_555
C30A C27A 1_555 1_555
H23A C30A 1_555 1_555
C31A C30A 1_555 1_555
C32A C31A 1_555 1_555
H24A C32A 1_555 1_555
C33A C32A 1_555 1_555
H25A C33A 1_555 1_555
C34A C33A 1_555 1_555
C35A C34A 1_555 1_555
H26A C35A 1_555 1_555
C36A C31A 1_555 1_555
H27A C36A 1_555 1_555
C37A C34A 1_555 1_555
C37A_2 O12A_2 1_555 1_555
C37_2 O12_2 1_555 1_555
C38A C30A 1_555 1_555
C39A C38A 1_555 1_555
H28A C39A 1_555 1_555
C40A C39A 1_555 1_555
H29A C40A 1_555 1_555
C41A C40A 1_555 1_555
C42A C41A 1_555 1_555
H30A C42A 1_555 1_555
C43A C38A 1_555 1_555
H31A C43A 1_555 1_555
C44A C41A 1_555 1_555
C45A H32A 1_555 1_555
C46A H33A 1_555 1_555
H34A C46A 1_555 1_555
H35A C46A 1_555 1_555
C47A H36A 1_555 1_555
H37A C47A 1_555 1_555
H38A C47A 1_555 1_555
Cd1A O14 1_555 1_555
Cd1B O10 1_555 1_555
Cd1C O4C 1_555 1_555
Cd2B O11 1_555 1_555
Cd2B_2 O5C_2 1_555 1_555
Cd3A O6A 1_555 1_555
Cd3C O9 1_555 1_555
Cd3A_2 O12 1_555 1_555
Cd3B O6B 1_555 1_555
Cd3_2 O6_2 1_555 1_555
Cd4B O8 1_555 1_555
Cd4_2 O7A 1_555 1_555
N1A C45A 1_555 1_555
O4A C1A 1_555 1_555
O4B Cd1B 1_555 1_555
O5A Cd2 1_555 1_555
O5B Cd1B 1_555 1_555
O5C Cd2B 1_555 1_555
O5C_2 Cd1C 1_555 1_555
O5B_2 Cd2B_2 1_555 1_555
O6A C15A 1_555 1_555
O6C Cd3C 1_555 1_555
O6A_2 Cd3A_2 1_555 1_555
O7A C15A 1_555 1_555
O7A_2 Cd4 1_555 1_555
O7B Cd4B 1_555 1_555
O7C Cd4B 1_555 1_555
O7_2 Cd4_2 1_555 1_555
O8A C22A 1_555 1_555
O8B Cd4 1_555 1_555
O8C Cd4 1_555 1_555
O8B_2 Cd4_2 1_555 1_555
O8C_2 Cd4_2 1_555 1_555
O9A C22A 1_555 1_555
O9C Cd3 1_555 1_555
O9B C22B_2 1_555 1_555
O9B_2 C22B 1_555 1_555
O9C_2 Cd3_2 1_555 1_555
O10A C23A 1_555 1_555
O10B Cd1 1_555 1_555
O10C Cd1A 1_555 1_555
O11A C23A 1_555 1_555
O11B Cd2 1_555 1_555
O11C Cd2 1_555 1_555
O11A_2 Cd2B 1_555 1_555
O11_2 Cd2B_2 1_555 1_555
O12A C37A 1_555 1_555
O12A_2 Cd3 1_555 1_555
O12_2 Cd3A 1_555 1_555
O12B Cd3C 1_555 1_555
O12C Cd3B 1_555 1_555
O13A C37A 1_555 1_555
O13A_2 Cd3 1_555 1_555
O13_2 C37_2 1_555 1_555
O13B Cd3C 1_555 1_555
O13C Cd3B 1_555 1_555
O14A Cd1 1_555 1_555
O14C Cd1B 1_555 1_555
O14B Cd1C 1_555 1_555
O15A Cd2 1_555 1_555
O15B Cd2B 1_555 1_555
O15C Cd2B 1_555 1_555
O15B_2 Cd2B_2 1_555 1_555
O15C_2 Cd2B_2 1_555 1_555
O16A Cd1A 1_555 1_555
O16B Cd1B 1_555 1_555
O16C Cd1C 1_555 1_555
H39A O16A 1_555 1_555
H40A O16A 1_555 1_555
O17A Cd3A 1_555 1_555
O17C Cd3C 1_555 1_555
O17A_2 Cd3A_2 1_555 1_555
O17B Cd3B 1_555 1_555
O17_2 Cd3_2 1_555 1_555
H41A O17A 1_555 1_555
H42A O17A 1_555 1_555
O18A Cd3A 1_555 1_555
O18C Cd3C 1_555 1_555
O18A_2 Cd3A_2 1_555 1_555
O18B Cd3B 1_555 1_555
O18_2 Cd3_2 1_555 1_555
H43A O18A 1_555 1_555
H44A O18A 1_555 1_555
O19A C45A 1_555 1_555
O19B Cd1B 1_555 1_555
O19C Cd1C 1_555 1_555
C6 C7 1_555 1_555
C13 C14 1_555 1_555
C20 C21 1_555 1_555
C28 C29 1_555 1_555
C35 C36 1_555 1_555
C42 C43 1_555 1_555
C46 N1 1_555 1_555
C47 N1 1_555 1_555
Cd1 O5 1_555 1_555
Cd1 O19 1_555 1_555
Cd2 O15 1_555 1_555
Cd4 O13 1_555 1_555
Cd4 O13A_2 1_555 1_555
O13 Cd3A_2 1_555 1_555
C1A O5A 1_555 1_555
C6A C7A 1_555 1_555
C13A C14A 1_555 1_555
C15A_2 O7A_2 1_555 1_555
C20A C21A 1_555 1_555
C22C O9C 1_555 1_555
C23B O11B 1_555 1_555
C23C O11C 1_555 1_555
C28A C29A 1_555 1_555
C35A C36A 1_555 1_555
C37A_2 O13A_2 1_555 1_555
C42A C43A 1_555 1_555
C44A O14A 1_555 1_555
C44A O15A 1_555 1_555
C46A N1A 1_555 1_555
C47A N1A 1_555 1_555
Cd1A O4A 1_555 1_555
Cd1A O5A 1_555 1_555
Cd1A O19A 1_555 1_555
Cd1C O10A 1_555 1_555
Cd2B O5B 1_555 1_555
Cd2B_2 O11A 1_555 1_555
Cd3A O9B 1_555 1_555
Cd3A O13_2 1_555 1_555
Cd3A_2 O9B_2 1_555 1_555
Cd3B O9A 1_555 1_555
Cd3_2 O12A 1_555 1_555
Cd3_2 O13A 1_555 1_555
Cd4B O8A 1_555 1_555
Cd4B O13B 1_555 1_555
Cd4B O13C 1_555 1_555
Cd4_2 O13A 1_555 1_555
Cd4_2 O13_2 1_555 1_555

#END
