
#######################################################################
#
#                 Cambridge Crystallographic Data Centre
#                                CCDC 
#
#######################################################################
#
# If this CIF has been generated from an entry in the Cambridge 
# Structural Database, then it will include bibliographic, chemical, 
# crystal, experimental, refinement or atomic coordinate data resulting 
# from the CCDC's data processing and validation procedures.
#
#######################################################################

data_DAWDEM
_chemical_formula_moiety         '(C92 H66 Cd4 N8 O18)n,5n(H2 O1)'
_chemical_name_systematic        
"catena-(bis(\m~3~-tris(4-Carboxylatophenyl)methane)-bis(\m~3~-nitrito)-tris(\m~2~-1,4-bis(4'-pyridyl)benzene-N,N')-diaqua-tetra-cadmium pentahydrate)"
_symmetry_cell_setting           monoclinic
_symmetry_space_group_name_H-M   'C 2/c'
_symmetry_Int_Tables_number      15
_space_group_name_Hall           '-C 2yc'
loop_
_symmetry_equiv_pos_site_id
_symmetry_equiv_pos_as_xyz
1 x,y,z
2 -x,y,1/2-z
3 1/2+x,1/2+y,z
4 1/2-x,1/2+y,1/2-z
5 -x,-y,-z
6 x,-y,1/2+z
7 1/2-x,1/2-y,-z
8 1/2+x,1/2-y,1/2+z
_cell_length_a                   29.1269(17)
_cell_length_b                   12.9184(8)
_cell_length_c                   25.2889(14)
_cell_angle_alpha                90
_cell_angle_beta                 103.4080(10)
_cell_angle_gamma                90
_cell_volume                     9256.17
_exptl_crystal_colour            colorless
_exptl_crystal_description       block
_cell_formula_units_Z            4
loop_
_atom_site_label
_atom_site_type_symbol
_atom_site_fract_x
_atom_site_fract_y
_atom_site_fract_z
O11 O 0.3673(2) 0.3924(5) 0.66457(19)
H35 H 0.3772 0.4168 0.6380
H36 H 0.3780 0.3314 0.6717
O12 O 0.0341(3) 0.2276(9) 0.3295(3)
H37 H 0.0366 0.2900 0.3404
H38 H 0.0589 0.1944 0.3444
O13 O 1.0076(4) 0.3688(8) 0.3496(8)
H39 H 0.9853 0.3808 0.3653
H40 H 0.9961 0.3545 0.3163
C1 C -0.07912(12) 1.1300(3) 0.03476(14)
H1 H -0.0544 1.1340 0.0655
C2 C -0.12191(11) 1.1713(3) 0.03663(14)
H2 H -0.1256 1.2021 0.0686
C3 C -0.15939(10) 1.1685(2) -0.00708(13)
C4 C -0.15131(11) 1.1235(3) -0.05371(13)
H3 H -0.1750 1.1216 -0.0854
C5 C -0.10705(12) 1.0811(3) -0.05237(13)
H4 H -0.1025 1.0488 -0.0836
C6 C -0.20604(10) 1.2098(2) -0.00383(13)
C7 C -0.22089(13) 1.2045(3) 0.04511(15)
H5 H -0.2016 1.1727 0.0752
C8 C -0.23645(14) 1.2543(3) -0.04925(17)
H6 H -0.2278 1.2561 -0.0824
C9 C -0.06963(11) 0.8077(3) -0.05531(11)
C10 C -0.10261(12) 0.7803(3) -0.10887(11)
C11 C -0.14240(14) 0.7284(3) -0.11169(13)
H7 H -0.1506 0.7093 -0.0796
C12 C -0.17263(15) 0.7015(3) -0.16172(13)
H8 H -0.2004 0.6660 -0.1619
C13 C -0.16221(17) 0.7260(3) -0.20937(13)
C14 C -0.1212(2) 0.7803(4) -0.20577(14)
H9 H -0.1118 0.7956 -0.2376
C15 C -0.09422(18) 0.8122(4) -0.15858(14)
H10 H -0.0692 0.8569 -0.1587
C16 C -0.19434(16) 0.6979(3) -0.26532(12)
H11 H -0.1964 0.7601 -0.2879
C17 C -0.16754(17) 0.6156(3) -0.29144(14)
C18 C -0.17077(19) 0.6197(3) -0.34662(15)
H12 H -0.1888 0.6710 -0.3676
C19 C -0.14129(16) 0.5375(3) -0.26316(13)
H13 H -0.1383 0.5330 -0.2258
C20 C -0.24488(18) 0.6685(3) -0.26472(14)
C21 C -0.2761(2) 0.7459(4) -0.25419(19)
H14 H -0.2654 0.8137 -0.2479
C22 C -0.3220(2) 0.7221(5) -0.2532(2)
H15 H -0.3412 0.7747 -0.2453
C23 C -0.3411(2) 0.6220(5) -0.26340(16)
C24 C -0.31102(19) 0.5474(4) -0.27409(19)
H16 H -0.3220 0.4800 -0.2810
C25 C -0.26526(18) 0.5699(3) -0.27478(16)
H17 H -0.2464 0.5164 -0.2824
C26 C -0.09330(13) 0.3956(3) -0.37035(13)
C27 C -0.12006(14) 0.4729(3) -0.34248(12)
C28 C -0.1470(2) 0.5469(4) -0.37092(15)
H18 H -0.1500 0.5499 -0.4083
C29 C -0.11904(15) 0.4651(3) -0.28854(14)
H19 H -0.1031 0.4102 -0.2686
C30 C -0.15957(13) 0.8658(4) 0.03045(15)
H20 H -0.1516 0.8521 -0.0024
C31 C -0.20315(13) 0.9074(4) 0.02845(15)
H21 H -0.2235 0.9208 -0.0050
C32 C -0.21679(11) 0.9291(3) 0.07521(13)
C33 C -0.1890(3) 0.8823(7) 0.1215(3)
H22 H -0.1997 0.8779 0.1533
C34 C -0.1476(4) 0.8443(10) 0.1192(3)
H23 H -0.1297 0.8149 0.1509
C35 C -0.26365(11) 0.9747(3) 0.07486(13)
C36 C -0.30142(12) 0.9609(3) 0.03325(13)
H24 H -0.2979 0.9229 0.0032
C37 C -0.34515(12) 1.0014(3) 0.03376(13)
H25 H -0.3704 0.9908 0.0042
C38 C -0.35171(11) 1.0579(3) 0.07794(13)
C39 C -0.31359(13) 1.0678(4) 0.12147(15)
H26 H -0.3172 1.1026 0.1524
C40 C -0.27076(13) 1.0277(4) 0.12010(15)
H27 H -0.2456 1.0360 0.1501
C41 C -0.39904(11) 1.1013(3) 0.07884(14)
C42 C -0.40729(14) 1.1512(4) 0.12262(15)
H28 H -0.3831 1.1592 0.1536
C43 C -0.43524(14) 1.1046(4) 0.03186(17)
H29 H -0.4304 1.0798 -0.0009
C44 C -0.47873(14) 1.1455(4) 0.03493(18)
H30 H -0.5029 1.1460 0.0036
C45 C -0.45219(14) 1.1909(4) 0.12123(15)
H31 H -0.4569 1.2247 0.1520
C46 C -0.3913(2) 0.5926(7) -0.2581(2)
Cd1 Cd 0.0000 1.0000 0.0000
Cd2 Cd -0.058380(8) 0.762100(19) 0.077570(8)
Cd3 Cd 0.0000 0.88625(4) 0.2500
N1 N -0.07163(8) 1.0840(2) -0.00992(10)
N2 N -0.12846(9) 0.8439(2) 0.07489(10)
N3 N -0.48750(9) 1.1836(2) 0.07982(11)
O1 O -0.07818(9) 0.7650(2) -0.01407(9)
O2 O -0.03741(8) 0.8720(2) -0.05607(9)
O3 O -0.10079(10) 0.3977(2) -0.42123(9)
O4 O -0.06739(9) 0.3305(2) -0.34375(9)
O5 O -0.01590(8) 0.92285(19) 0.07587(7)
O6 O -0.02094(11) 0.8836(2) 0.15704(8)
O7 O 0.0000 0.7232(5) 0.2500
H32 H -0.0075 0.7013 0.2174
O8 O 0.0221(2) 1.0402(5) 0.2507(3)
O9 O -0.41631(15) 0.6778(5) -0.26004(17)
O10 O -0.3994(2) 0.5115(7) -0.2513(2)
N4 N -0.00599(13) 0.9419(3) 0.12601(11)
C1F C -0.42088(12) 1.3700(3) -0.03476(14)
H1F H -0.4456 1.3660 -0.0655
C2F C -0.37809(11) 1.3287(3) -0.03663(14)
H2F H -0.3744 1.2979 -0.0686
C3F C -0.34061(10) 1.3315(2) 0.00708(13)
C4F C -0.34869(11) 1.3765(3) 0.05371(13)
H3F H -0.3250 1.3784 0.0854
C5F C -0.39295(12) 1.4189(3) 0.05237(13)
H4F H -0.3975 1.4512 0.0836
C6F C -0.29396(10) 1.2902(2) 0.00383(13)
C7F C -0.27911(13) 1.2955(3) -0.04511(15)
H5F H -0.2984 1.3273 -0.0752
C8F C -0.26355(14) 1.2457(3) 0.04925(17)
H6F H -0.2722 1.2439 0.0824
C9D C 0.06963(11) 1.1923(3) 0.05531(11)
C10D C 0.10261(12) 1.2197(3) 0.10887(11)
C11D C 0.14240(14) 1.2716(3) 0.11169(13)
H7D H 0.1506 1.2907 0.0796
C12D C 0.17263(15) 1.2985(3) 0.16172(13)
H8D H 0.2004 1.3340 0.1619
C13D C 0.16221(17) 1.2740(3) 0.20937(13)
C14D C 0.1212(2) 1.2197(4) 0.20577(14)
H9D H 0.1118 1.2044 0.2376
C15D C 0.09422(18) 1.1878(4) 0.15858(14)
H10D H 0.0692 1.1431 0.1587
C16D C 0.19434(16) 1.3021(3) 0.26532(12)
H11D H 0.1964 1.2399 0.2879
C17D C 0.16754(17) 1.3844(3) 0.29144(14)
C18D C 0.17077(19) 1.3803(3) 0.34662(15)
H12D H 0.1888 1.3290 0.3676
C19D C 0.14129(16) 1.4625(3) 0.26316(13)
H13D H 0.1383 1.4670 0.2258
C20D C 0.24488(18) 1.3315(3) 0.26472(14)
C21D C 0.2761(2) 1.2541(4) 0.25419(19)
H14D H 0.2654 1.1863 0.2479
C22D C 0.3220(2) 1.2779(5) 0.2532(2)
H15D H 0.3412 1.2253 0.2453
C23D C 0.3411(2) 1.3780(5) 0.26340(16)
C24D C 0.31102(19) 1.4526(4) 0.27409(19)
H16D H 0.3220 1.5200 0.2810
C25D C 0.26526(18) 1.4301(3) 0.27478(16)
H17D H 0.2464 1.4836 0.2824
C26D C 0.09330(13) 1.6044(3) 0.37035(13)
C27D C 0.12006(14) 1.5271(3) 0.34248(12)
C28D C 0.1470(2) 1.4531(4) 0.37092(15)
H18D H 0.1500 1.4501 0.4083
C29D C 0.11904(15) 1.5349(3) 0.28854(14)
H19D H 0.1031 1.5898 0.2686
C30B C 0.34043(13) 0.3658(4) 0.03045(15)
H20B H 0.3484 0.3521 -0.0024
C31B C 0.29685(13) 0.4074(4) 0.02845(15)
H21B H 0.2765 0.4208 -0.0050
C32B C 0.28321(11) 0.4291(3) 0.07521(13)
C33B C 0.3110(3) 0.3823(7) 0.1215(3)
H22B H 0.3003 0.3779 0.1533
C34B C 0.3524(4) 0.3443(10) 0.1192(3)
H23B H 0.3703 0.3149 0.1509
C35B C 0.23635(11) 0.4747(3) 0.07486(13)
C36B C 0.19858(12) 0.4609(3) 0.03325(13)
H24B H 0.2021 0.4229 0.0032
C37B C 0.15485(12) 0.5014(3) 0.03376(13)
H25B H 0.1296 0.4908 0.0042
C38B C 0.14829(11) 0.5579(3) 0.07794(13)
C39B C 0.18641(13) 0.5678(4) 0.12147(15)
H26B H 0.1828 0.6026 0.1524
C40B C 0.22924(13) 0.5277(4) 0.12010(15)
H27B H 0.2544 0.5360 0.1501
C41B C 0.10096(11) 0.6013(3) 0.07884(14)
C42B C 0.09271(14) 0.6512(4) 0.12262(15)
H28B H 0.1169 0.6592 0.1536
C43B C 0.06476(14) 0.6046(4) 0.03186(17)
H29B H 0.0696 0.5798 -0.0009
C44B C 0.02127(14) 0.6455(4) 0.03493(18)
H30B H -0.0029 0.6460 0.0036
C45B C 0.04781(14) 0.6909(4) 0.12123(15)
H31B H 0.0431 0.7247 0.1520
C46D C 0.3913(2) 1.4074(7) 0.2581(2)
Cd1B Cd -0.5000 1.5000 0.0000
Cd2D Cd 0.058380(8) 1.237900(19) -0.077570(8)
Cd2B Cd -0.558380(8) 1.262100(19) 0.077570(8)
Cd2E Cd -0.058380(8) 0.237900(19) -0.422430(8)
Cd2A Cd 0.058380(8) 1.762100(19) 0.422430(8)
Cd2B_2 Cd 0.441620(8) 0.262100(19) 0.077570(8)
Cd3D Cd 0.0000 1.11375(4) -0.2500
N1F N -0.42837(8) 1.4160(2) 0.00992(10)
N1D N 0.07163(8) 0.9160(2) 0.00992(10)
N2B N 0.37154(9) 0.3439(2) 0.07489(10)
N2D N 0.12846(9) 1.1561(2) -0.07489(10)
N3B N 0.01250(9) 0.6836(2) 0.07982(11)
N3F N -0.01250(9) 1.3164(2) -0.07982(11)
O1D O 0.07818(9) 1.2350(2) 0.01407(9)
O2D O 0.03741(8) 1.1280(2) 0.05607(9)
O3D O 0.10079(10) 1.6023(2) 0.42123(9)
O3E O -0.10079(10) 0.6023(2) 0.07877(9)
O3A O 0.10079(10) 1.3977(2) -0.07877(9)
O4D O 0.06739(9) 1.6695(2) 0.34375(9)
O4E O -0.06739(9) 0.6695(2) 0.15625(9)
O4A O 0.06739(9) 1.3305(2) -0.15625(9)
O5D O 0.01590(8) 1.07715(19) -0.07587(7)
O6D O 0.02094(11) 1.1164(2) -0.15704(8)
O6A O 0.02094(11) 0.8836(2) 0.34296(8)
H32A H 0.0075 0.7013 0.2826
O8A O -0.0221(2) 1.0402(5) 0.2493(3)
O9D O 0.41631(15) 1.3222(5) 0.26004(17)
O10D O 0.3994(2) 1.4885(7) 0.2513(2)
N4D N 0.00599(13) 1.0581(3) -0.12601(11)
H33? H 0.0176 1.0621 0.2182
H34? H 0.0062 1.0766 0.2680
C47? C 0.1796(3) 0.9388(9) 0.3815(3)
C48? C 0.1380(2) 0.8821(8) 0.3836(3)
H41? H 0.1811 0.9803 0.3520
H42? H 0.1159 0.8728 0.3509
H43? H -0.0274 0.7013 0.2346
loop_
_geom_bond_atom_site_label_1
_geom_bond_atom_site_label_2
_geom_bond_site_symmetry_1
_geom_bond_site_symmetry_2
C1 H1 1_555 1_555
C2 C1 1_555 1_555
H2 C2 1_555 1_555
C3 C2 1_555 1_555
C4 C3 1_555 1_555
H3 C4 1_555 1_555
C5 C4 1_555 1_555
H4 C5 1_555 1_555
C6 C3 1_555 1_555
C7 C6 1_555 1_555
H5 C7 1_555 1_555
C8 C6 1_555 1_555
H6 C8 1_555 1_555
C9 C10 1_555 1_555
C10 C11 1_555 1_555
C11 H7 1_555 1_555
C12 C11 1_555 1_555
H8 C12 1_555 1_555
C13 C12 1_555 1_555
C14 C13 1_555 1_555
H9 C14 1_555 1_555
C15 C10 1_555 1_555
H10 C15 1_555 1_555
C16 C13 1_555 1_555
H11 C16 1_555 1_555
C17 C16 1_555 1_555
C18 C17 1_555 1_555
H12 C18 1_555 1_555
C19 C17 1_555 1_555
H13 C19 1_555 1_555
C20 C16 1_555 1_555
C21 C20 1_555 1_555
H14 C21 1_555 1_555
C22 C21 1_555 1_555
H15 C22 1_555 1_555
C23 C22 1_555 1_555
C24 C23 1_555 1_555
H16 C24 1_555 1_555
C25 C20 1_555 1_555
H17 C25 1_555 1_555
C26 C27 1_555 1_555
C27 C28 1_555 1_555
C28 C18 1_555 1_555
H18 C28 1_555 1_555
C29 C19 1_555 1_555
H19 C29 1_555 1_555
C30 H20 1_555 1_555
C31 C30 1_555 1_555
H21 C31 1_555 1_555
C32 C31 1_555 1_555
C33 C32 1_555 1_555
H22 C33 1_555 1_555
C34 C33 1_555 1_555
H23 C34 1_555 1_555
C35 C32 1_555 1_555
C36 C35 1_555 1_555
H24 C36 1_555 1_555
C37 C36 1_555 1_555
H25 C37 1_555 1_555
C38 C37 1_555 1_555
C39 C38 1_555 1_555
H26 C39 1_555 1_555
C40 C35 1_555 1_555
H27 C40 1_555 1_555
C41 C38 1_555 1_555
C42 C41 1_555 1_555
H28 C42 1_555 1_555
C43 C41 1_555 1_555
H29 C43 1_555 1_555
C44 C43 1_555 1_555
H30 C44 1_555 1_555
C45 C42 1_555 1_555
H31 C45 1_555 1_555
C46 C23 1_555 1_555
Cd1 N1 1_555 1_555
Cd2 N2 1_555 1_555
Cd3 O6 1_555 1_555
N1 C1 1_555 1_555
N2 C30 1_555 1_555
N3 C44 1_555 1_555
O1 C9 1_555 1_555
O2 C9 1_555 1_555
O3 C26 1_555 1_555
O4 C26 1_555 1_555
O5 Cd1 1_555 1_555
O6 Cd2 1_555 1_555
O7 Cd3 1_555 1_555
H32 O7 1_555 1_555
O8 Cd3 1_555 1_555
O9 C46 1_555 1_555
O10 C46 1_555 1_555
O11 H35 1_555 1_555
H36 O11 1_555 1_555
O12 H37 1_555 1_555
H38 O12 1_555 1_555
O13 H39 1_555 1_555
H40 O13 1_555 1_555
N4 O5 1_555 1_555
C1F H1F 1_555 1_555
C2F C1F 1_555 1_555
H2F C2F 1_555 1_555
C3F C2F 1_555 1_555
C4F C3F 1_555 1_555
H3F C4F 1_555 1_555
C5F C4F 1_555 1_555
H4F C5F 1_555 1_555
C6F C3F 1_555 1_555
C7F C8 1_555 1_555
H5F C7F 1_555 1_555
C8F C7 1_555 1_555
H6F C8F 1_555 1_555
C9D C10D 1_555 1_555
C10D C11D 1_555 1_555
C11D H7D 1_555 1_555
C12D C11D 1_555 1_555
H8D C12D 1_555 1_555
C13D C12D 1_555 1_555
C14D C13D 1_555 1_555
H9D C14D 1_555 1_555
C15D C10D 1_555 1_555
H10D C15D 1_555 1_555
C16D C13D 1_555 1_555
H11D C16D 1_555 1_555
C17D C16D 1_555 1_555
C18D C17D 1_555 1_555
H12D C18D 1_555 1_555
C19D C17D 1_555 1_555
H13D C19D 1_555 1_555
C20D C16D 1_555 1_555
C21D C20D 1_555 1_555
H14D C21D 1_555 1_555
C22D C21D 1_555 1_555
H15D C22D 1_555 1_555
C23D C22D 1_555 1_555
C24D C23D 1_555 1_555
H16D C24D 1_555 1_555
C25D C20D 1_555 1_555
H17D C25D 1_555 1_555
C26D C27D 1_555 1_555
C27D C28D 1_555 1_555
C28D C18D 1_555 1_555
H18D C28D 1_555 1_555
C29D C19D 1_555 1_555
H19D C29D 1_555 1_555
C30B H20B 1_555 1_555
C31B C30B 1_555 1_555
H21B C31B 1_555 1_555
C32B C31B 1_555 1_555
C33B C32B 1_555 1_555
H22B C33B 1_555 1_555
C34B C33B 1_555 1_555
H23B C34B 1_555 1_555
C35B C32B 1_555 1_555
C36B C35B 1_555 1_555
H24B C36B 1_555 1_555
C37B C36B 1_555 1_555
H25B C37B 1_555 1_555
C38B C37B 1_555 1_555
C39B C38B 1_555 1_555
H26B C39B 1_555 1_555
C40B C35B 1_555 1_555
H27B C40B 1_555 1_555
C41B C38B 1_555 1_555
C42B C41B 1_555 1_555
H28B C42B 1_555 1_555
C43B C41B 1_555 1_555
H29B C43B 1_555 1_555
C44B C43B 1_555 1_555
H30B C44B 1_555 1_555
C45B C42B 1_555 1_555
H31B C45B 1_555 1_555
C46D C23D 1_555 1_555
Cd1B N1F 1_555 1_555
Cd2D N2D 1_555 1_555
Cd2B N3 1_555 1_555
Cd2E O3 1_555 1_555
Cd2A O3D 1_555 1_555
Cd2B_2 N2B 1_555 1_555
Cd3D O6D 1_555 1_555
N1F C1F 1_555 1_555
N1D Cd1 1_555 1_555
N2B C30B 1_555 1_555
N3B Cd2 1_555 1_555
N3F Cd2D 1_555 1_555
O1D C9D 1_555 1_555
O2D Cd1 1_555 1_555
O3D C26D 1_555 1_555
O3E Cd2 1_555 1_555
O3A Cd2D 1_555 1_555
O4D C26D 1_555 1_555
O4E Cd2 1_555 1_555
O4A Cd2D 1_555 1_555
O5D Cd1 1_555 1_555
O6D Cd2D 1_555 1_555
O6A Cd3 1_555 1_555
H32A O7 1_555 1_555
O8A Cd3 1_555 1_555
O9D C46D 1_555 1_555
O10D C46D 1_555 1_555
N4D O5D 1_555 1_555
C5 N1 1_555 1_555
C14 C15 1_555 1_555
C24 C25 1_555 1_555
C27 C29 1_555 1_555
C34 N2 1_555 1_555
C39 C40 1_555 1_555
C45 N3 1_555 1_555
Cd1 O2 1_555 1_555
Cd2 O1 1_555 1_555
Cd2 O5 1_555 1_555
O4 Cd2E 1_555 1_555
O6 N4 1_555 1_555
O8 O8A 1_555 1_555
C5F N1F 1_555 1_555
C6F C7F 1_555 1_555
C6F C8F 1_555 1_555
C9D O2D 1_555 1_555
C14D C15D 1_555 1_555
C24D C25D 1_555 1_555
C27D C29D 1_555 1_555
C34B N2B 1_555 1_555
C39B C40B 1_555 1_555
C44B N3B 1_555 1_555
C45B N3B 1_555 1_555
Cd2D O1D 1_555 1_555
Cd2D O5D 1_555 1_555
Cd2A O4D 1_555 1_555
O6D N4D 1_555 1_555

#END
