
#######################################################################
#
#                 Cambridge Crystallographic Data Centre
#                                CCDC 
#
#######################################################################
#
# If this CIF has been generated from an entry in the Cambridge 
# Structural Database, then it will include bibliographic, chemical, 
# crystal, experimental, refinement or atomic coordinate data resulting 
# from the CCDC's data processing and validation procedures.
#
#######################################################################

data_FAFBUL
_chemical_formula_moiety         '(C15 H9 Mn5 N12 O12)n'
_chemical_name_systematic        
'catena-((\m~2~-Benzene-1,3,5-tris(tetrazolate-tetrayl))-hexakis(\m~3~-formato)-penta-manganese unknown solvate)'
_symmetry_cell_setting           hexagonal
_symmetry_space_group_name_H-M   'P 63/m'
_symmetry_Int_Tables_number      176
_space_group_name_Hall           '-P 6c'
loop_
_symmetry_equiv_pos_site_id
_symmetry_equiv_pos_as_xyz
1 x,y,z
2 -y,x-y,z
3 -x+y,-x,z
4 -x,-y,1/2+z
5 y,-x+y,1/2+z
6 x-y,x,1/2+z
7 -x,-y,-z
8 y,-x+y,-z
9 x-y,x,-z
10 x,y,1/2-z
11 -y,x-y,1/2-z
12 -x+y,-x,1/2-z
_cell_length_a                   11.7410(6)
_cell_length_b                   11.7410(6)
_cell_length_c                   13.3199(13)
_cell_angle_alpha                90
_cell_angle_beta                 90
_cell_angle_gamma                120
_cell_volume                     1590.16
_exptl_crystal_colour            colorless
_exptl_crystal_description       'hexagonal rod'
_cell_formula_units_Z            2
loop_
_atom_site_label
_atom_site_type_symbol
_atom_site_fract_x
_atom_site_fract_y
_atom_site_fract_z
Mn1 Mn 0.5000 0.5000 0.5000
Mn2 Mn 0.3333 0.6667 0.39960(8)
N1 N 0.5354(2) 0.5122(3) 0.66760(19)
N2 N 0.6047(3) 0.4566(3) 0.7018(2)
O1 O 0.2925(2) 0.3915(2) 0.5268(2)
O2 O 0.1851(2) 0.4979(2) 0.49332(19)
C1 C 0.4934(4) 0.5439(4) 0.7500
C2 C 0.4110(4) 0.6079(4) 0.7500
C3 C 0.2758(4) 0.5314(4) 0.7500
H1 H 0.2368 0.4403 0.7500
C4 C 0.1940(3) 0.4029(3) 0.5252(3)
H2 H 0.1174 0.3325 0.5507
Mn1B Mn 0.0000 0.5000 0.5000
Mn1A Mn -0.5000 0.0000 0.5000
Mn1_2 Mn -0.5000 0.5000 0.5000
Mn1C Mn 0.5000 0.5000 1.0000
Mn1D Mn 0.5000 1.0000 1.0000
Mn1E Mn 0.0000 0.5000 1.0000
Mn1A_2 Mn 0.5000 1.0000 0.5000
Mn2F Mn -0.3333 0.3333 0.60040(8)
Mn2C Mn -0.3333 0.3333 0.89960(8)
Mn2C_2 Mn 0.6667 0.3333 0.89960(8)
Mn2C_3 Mn 0.6667 1.3333 0.89960(8)
Mn2F_2 Mn 0.6667 0.3333 0.60040(8)
Mn2F_3 Mn 0.6667 1.3333 0.60040(8)
N1A N 0.4878(3) 1.0232(4) 0.66760(19)
N1B N -0.0232(4) 0.4646(2) 0.66760(19)
N1I N 0.5354(2) 0.5122(3) 0.83240(19)
N1J N 0.4878(3) 1.0232(4) 0.83240(19)
N1K N -0.0232(4) 0.4646(2) 0.83240(19)
N1A_2 N -0.5122(3) 0.0232(4) 0.66760(19)
N1F N 0.4646(2) 0.4878(3) 0.33240(19)
N1G N -0.4878(3) -0.0232(4) 0.33240(19)
N1H N 0.0232(4) 0.5354(2) 0.33240(19)
N2A N 0.5434(3) 1.1481(4) 0.7018(2)
N2B N -0.1481(4) 0.3953(3) 0.7018(2)
N2I N 0.6047(3) 0.4566(3) 0.7982(2)
N2J N 0.5434(3) 1.1481(4) 0.7982(2)
N2K N -0.1481(4) 0.3953(3) 0.7982(2)
N2_2 N -0.3953(3) 0.4566(3) 0.7018(2)
N2A_2 N -0.4566(3) 0.1481(4) 0.7018(2)
N2F N 0.3953(3) 0.5434(3) 0.2982(2)
N2G N 0.4566(3) 0.8519(4) 0.2982(2)
N2H N 0.1481(4) 0.6047(3) 0.2982(2)
O1A O 0.6085(2) 0.9010(3) 0.5268(2)
O1B O 0.0990(3) 0.7075(2) 0.5268(2)
O1F O -0.2925(2) 0.6085(2) 0.4732(2)
O1G O -0.6085(2) 0.0990(3) 0.4732(2)
O1H O -0.0990(3) 0.2925(2) 0.4732(2)
O1A_2 O -0.3915(2) -0.0990(3) 0.5268(2)
O1F_2 O 0.7075(2) 0.6085(2) 0.4732(2)
O2A O 0.5021(2) 0.6872(3) 0.49332(19)
O2B O 0.3128(3) 0.8149(2) 0.49332(19)
O2F O -0.1851(2) 0.5021(2) 0.50668(19)
O2G O -0.5021(2) 0.3128(3) 0.50668(19)
O2H O -0.3128(3) 0.1851(2) 0.50668(19)
O2B_2 O -0.6872(3) -0.1851(2) 0.49332(19)
O2G_2 O 0.4979(2) 0.3128(3) 0.50668(19)
C1A C 0.4561(4) 0.9495(6) 0.7500
C1B C 0.0505(6) 0.5066(4) 0.7500
C2A C 0.3921(4) 0.8031(6) 0.7500
C2B C 0.1969(6) 0.5890(4) 0.7500
C3A C 0.4686(4) 0.7444(6) 0.7500
C3B C 0.2556(6) 0.7242(4) 0.7500
H1A H 0.5597 0.7965 0.7500
H1B H 0.2035 0.7632 0.7500
C4A C 0.5971(3) 0.7911(4) 0.5252(3)
C4B C 0.2089(4) 0.8060(3) 0.5252(3)
C4F C -0.1940(3) 0.5971(3) 0.4748(3)
C4G C -0.5971(3) 0.2089(4) 0.4748(3)
C4H C -0.2089(4) 0.1940(3) 0.4748(3)
H2A H 0.6675 0.7849 0.5507
H2B H 0.2151 0.8826 0.5507
H2F H -0.1174 0.6675 0.4493
H2G H -0.6675 0.2151 0.4493
H2H H -0.2151 0.1174 0.4493
loop_
_geom_bond_atom_site_label_1
_geom_bond_atom_site_label_2
_geom_bond_site_symmetry_1
_geom_bond_site_symmetry_2
Mn1 N1 1_555 1_555
Mn2 O2 1_555 1_555
N1 N2 1_555 1_555
N2 Mn2F_2 1_555 1_555
O1 Mn1 1_555 1_555
O2 C4 1_555 1_555
C1 N1 1_555 1_555
C2 C1 1_555 1_555
C3 C2 1_555 1_555
H1 C3 1_555 1_555
C4 O1 1_555 1_555
H2 C4 1_555 1_555
Mn1B O2 1_555 1_555
Mn1A N1A_2 1_555 1_555
Mn1_2 O1F 1_555 1_555
Mn1C N1I 1_555 1_555
Mn1D N1J 1_555 1_555
Mn1E N1K 1_555 1_555
Mn1A_2 N1A 1_555 1_555
Mn2F N2B 1_555 1_555
Mn2C N2K 1_555 1_555
Mn2C_2 N2I 1_555 1_555
Mn2C_3 N2J 1_555 1_555
Mn2F_2 O2G_2 1_555 1_555
Mn2F_3 N2A 1_555 1_555
N1A N2A 1_555 1_555
N1B Mn1B 1_555 1_555
N1I C1 1_555 1_555
N1J N2J 1_555 1_555
N1K N2K 1_555 1_555
N1A_2 N2A_2 1_555 1_555
N1F Mn1 1_555 1_555
N1G Mn1A 1_555 1_555
N1H Mn1B 1_555 1_555
N2A N2J 1_555 1_555
N2B N1B 1_555 1_555
N2I N2 1_555 1_555
N2K N2B 1_555 1_555
N2_2 Mn2F 1_555 1_555
N2A_2 Mn2F 1_555 1_555
N2F Mn2 1_555 1_555
N2G Mn2 1_555 1_555
N2H Mn2 1_555 1_555
O1A Mn1A_2 1_555 1_555
O1B Mn1B 1_555 1_555
O1F C4F 1_555 1_555
O1G Mn1A 1_555 1_555
O1H Mn1B 1_555 1_555
O1A_2 Mn1A 1_555 1_555
O1F_2 Mn1 1_555 1_555
O2A Mn1 1_555 1_555
O2B Mn2 1_555 1_555
O2F Mn1B 1_555 1_555
O2G Mn1_2 1_555 1_555
O2H Mn1A 1_555 1_555
O2B_2 Mn1A 1_555 1_555
O2G_2 Mn1 1_555 1_555
C1A N1A 1_555 1_555
C1B N1B 1_555 1_555
C2A C1A 1_555 1_555
C2B C3 1_555 1_555
C3A C2 1_555 1_555
C3B C2A 1_555 1_555
H1A C3A 1_555 1_555
H1B C3B 1_555 1_555
C4A O1A 1_555 1_555
C4B O1B 1_555 1_555
C4F O2F 1_555 1_555
C4G O1G 1_555 1_555
C4H O1H 1_555 1_555
H2A C4A 1_555 1_555
H2B C4B 1_555 1_555
H2F C4F 1_555 1_555
H2G C4G 1_555 1_555
H2H C4H 1_555 1_555
Mn2 O2A 1_555 1_555
Mn1A_2 O2B 1_555 1_555
Mn2F O2F 1_555 1_555
Mn2F O2G 1_555 1_555
Mn2F O2H 1_555 1_555
N1I N2I 1_555 1_555
N1J C1A 1_555 1_555
N1K C1B 1_555 1_555
N1F N2F 1_555 1_555
N1H N2H 1_555 1_555
O2A C4A 1_555 1_555
O2B C4B 1_555 1_555
O2G C4G 1_555 1_555
O2H C4H 1_555 1_555
C1B C2B 1_555 1_555
C2A C3A 1_555 1_555
C2B C3B 1_555 1_555

#END
