
#######################################################################
#
#                 Cambridge Crystallographic Data Centre
#                                CCDC 
#
#######################################################################
#
# If this CIF has been generated from an entry in the Cambridge 
# Structural Database, then it will include bibliographic, chemical, 
# crystal, experimental, refinement or atomic coordinate data resulting 
# from the CCDC's data processing and validation procedures.
#
#######################################################################

data_GEVSAD
_chemical_formula_moiety         '(C26 H26 N4 O2 Zn1 2+)n,2(N1 O3 1-),2(H2 O1)'
_chemical_name_systematic        
"catena-((\m~2~-4,4'-Ethane-1,2-diylbis(N-(pyridin-2-ylmethylene)aniline))-diaqua-zinc(ii) dinitrate dihydrate)"
_symmetry_cell_setting           monoclinic
_symmetry_space_group_name_H-M   'P 21/n'
_symmetry_Int_Tables_number      14
_space_group_name_Hall           '-P 2yn'
loop_
_symmetry_equiv_pos_site_id
_symmetry_equiv_pos_as_xyz
1 x,y,z
2 1/2-x,1/2+y,1/2-z
3 -x,-y,-z
4 1/2+x,1/2-y,1/2+z
_cell_length_a                   15.305(4)
_cell_length_b                   10.611(3)
_cell_length_c                   18.043(5)
_cell_angle_alpha                90
_cell_angle_beta                 93.120(7)
_cell_angle_gamma                90
_cell_volume                     2925.86
_exptl_crystal_colour            yellow
_exptl_crystal_description       block
_cell_formula_units_Z            4
loop_
_atom_site_label
_atom_site_type_symbol
_atom_site_fract_x
_atom_site_fract_y
_atom_site_fract_z
_atom_site_U_iso_or_equiv
_atom_site_thermal_displace_type
C1 C 0.26917(18) 0.7369(3) -0.14390(15) 0.0239 Uani
H1 H 0.2990 0.8101 -0.1257 0.0290 Uiso
C2 C 0.27068(19) 0.7080(3) -0.21878(16) 0.0287 Uani
H2 H 0.3017 0.7602 -0.2511 0.0340 Uiso
C3 C 0.22665(19) 0.6029(3) -0.24579(15) 0.0280 Uani
H3 H 0.2269 0.5814 -0.2969 0.0340 Uiso
C4 C 0.18200(18) 0.5292(3) -0.19684(15) 0.0253 Uani
H4 H 0.1500 0.4572 -0.2138 0.0300 Uiso
C5 C 0.18520(17) 0.5629(3) -0.12298(14) 0.0211 Uani
C6 C 0.14032(17) 0.4847(3) -0.06942(14) 0.0211 Uani
H5 H 0.1075 0.4131 -0.0860 0.0250 Uiso
C7 C 0.10538(16) 0.4344(3) 0.05161(14) 0.0204 Uani
C8 C 0.0975(2) 0.3049(3) 0.04216(15) 0.0276 Uani
H6 H 0.1195 0.2658 -0.0004 0.0330 Uiso
C9 C 0.0575(2) 0.2321(3) 0.09502(16) 0.0280 Uani
H7 H 0.0520 0.1438 0.0878 0.0340 Uiso
C10 C 0.02564(17) 0.2867(3) 0.15810(15) 0.0226 Uani
C11 C 0.03550(18) 0.4159(3) 0.16683(15) 0.0241 Uani
H8 H 0.0149 0.4550 0.2099 0.0290 Uiso
C12 C 0.07442(18) 0.4892(3) 0.11462(14) 0.0228 Uani
H9 H 0.0799 0.5776 0.1220 0.0270 Uiso
C13 C -0.02080(19) 0.2069(3) 0.21348(15) 0.0247 Uani
H10 H 0.0003 0.1190 0.2103 0.0300 Uiso
H11 H -0.0843 0.2069 0.1996 0.0300 Uiso
C14 C -0.19056(16) -0.0416(2) 0.65304(14) 0.0201 Uani
C15 C -0.17013(17) -0.0023(3) 0.72501(14) 0.0239 Uani
H12 H -0.1323 0.0675 0.7347 0.0290 Uiso
C16 C -0.2061(2) -0.0672(3) 0.78283(15) 0.0290 Uani
H13 H -0.1940 -0.0420 0.8329 0.0350 Uiso
C17 C -0.2598(2) -0.1693(3) 0.76629(16) 0.0313 Uani
H14 H -0.2849 -0.2158 0.8048 0.0380 Uiso
C18 C -0.27626(19) -0.2025(3) 0.69262(15) 0.0256 Uani
H15 H -0.3129 -0.2730 0.6816 0.0310 Uiso
C19 C -0.15258(16) 0.0227(3) 0.59012(14) 0.0201 Uani
H16 H -0.1203 0.0985 0.5978 0.0240 Uiso
C20 C -0.12849(16) 0.0440(3) 0.46542(13) 0.0190 Uani
C21 C -0.14155(18) 0.1733(3) 0.45786(15) 0.0238 Uani
H17 H -0.1758 0.2173 0.4918 0.0290 Uiso
C22 C -0.10449(19) 0.2374(3) 0.40067(15) 0.0263 Uani
H18 H -0.1135 0.3257 0.3961 0.0320 Uiso
C23 C -0.05460(17) 0.1763(3) 0.34987(15) 0.0230 Uani
C24 C -0.04668(17) 0.0457(3) 0.35519(14) 0.0226 Uani
H19 H -0.0160 0.0012 0.3190 0.0270 Uiso
C25 C -0.08292(17) -0.0211(3) 0.41265(14) 0.0213 Uani
H20 H -0.0766 -0.1100 0.4158 0.0260 Uiso
C26 C -0.00727(19) 0.2518(3) 0.29324(15) 0.0263 Uani
H21 H -0.0267 0.3406 0.2958 0.0320 Uiso
H22 H 0.0562 0.2499 0.3072 0.0320 Uiso
N1 N -0.16337(14) -0.0242(2) 0.52518(11) 0.0187 Uani
N2 N -0.24317(14) -0.1402(2) 0.63652(12) 0.0215 Uani
N3 N 0.14567(13) 0.5135(2) -0.00036(12) 0.0184 Uani
N4 N 0.22718(14) 0.6651(2) -0.09655(12) 0.0200 Uani
O1 O 0.31779(15) 0.8318(2) 0.02699(12) 0.0326 Uani
H23 H 0.2904 0.8959 0.0112 0.0490 Uiso
O2 O 0.13407(16) 0.8031(2) 0.02948(13) 0.0360 Uani
H24 H 0.1337 0.8535 -0.0064 0.0540 Uiso
Zn1 Zn 0.23509(2) 0.67647(3) 0.021212(16) 0.0204 Uani
H25 H 0.104(3) 0.822(4) 0.065(2) 0.0550 Uiso
H26 H 0.376(2) 0.823(3) 0.0150(19) 0.0350 Uiso
N1C N 0.33663(14) 0.5242(2) 0.02518(11) 0.0187 Uani
N2C N 0.25683(14) 0.6402(2) 0.13652(12) 0.0215 Uani
Zn1C Zn -0.26491(2) -0.17647(3) 0.521212(16) 0.0204 Uani
N5 N 0.17513(17) 0.0687(2) 0.92372(14) 0.0315 Uani
O3 O 0.16522(15) 0.1668(2) 0.88702(12) 0.0339 Uani
O4 O 0.11149(15) -0.0018(2) 0.93371(14) 0.0436 Uani
O5 O 0.24827(17) 0.0375(3) 0.9487(2) 0.0743 Uani
N6 N 0.50849(16) 0.1850(2) 0.21000(14) 0.0272 Uani
O6 O 0.45612(15) 0.2588(2) 0.17862(13) 0.0394 Uani
O7 O 0.54727(14) 0.1027(2) 0.17390(12) 0.0351 Uani
O8 O 0.52450(15) 0.1913(2) 0.27873(12) 0.0360 Uani
O9 O 0.96317(14) 0.1161(2) 0.86221(12) 0.0321 Uani
H27 H 0.982(2) 0.191(4) 0.836(2) 0.0460 Uiso
H28 H 1.014(3) 0.079(4) 0.889(2) 0.0520 Uiso
O10 O 0.52334(17) 0.1259(3) 0.02390(14) 0.0460 Uani
H29 H 0.522(10) 0.052(6) 0.004(8) 0.3100 Uiso
H30 H 0.530(3) 0.136(4) 0.0731(11) 0.0650 Uiso
loop_
_atom_site_aniso_label
_atom_site_aniso_U_11
_atom_site_aniso_U_22
_atom_site_aniso_U_33
_atom_site_aniso_U_23
_atom_site_aniso_U_13
_atom_site_aniso_U_12
C1 0.0249(14) 0.0235(14) 0.0237(13) 0.0031(11) 0.0056(10) -0.0005(11)
C2 0.0264(15) 0.0380(17) 0.0226(14) 0.0053(12) 0.0099(11) -0.0017(12)
C3 0.0284(15) 0.0373(17) 0.0190(13) 0.0007(12) 0.0064(11) 0.0006(12)
C4 0.0264(14) 0.0279(14) 0.0219(13) -0.0015(11) 0.0047(10) 0.0001(11)
C5 0.0176(13) 0.0256(14) 0.0203(12) 0.0023(11) 0.0041(10) 0.0024(10)
C6 0.0186(13) 0.0232(13) 0.0217(13) 0.0019(11) 0.0027(10) -0.0004(10)
C7 0.0170(12) 0.0255(14) 0.0193(12) 0.0048(10) 0.0067(9) 0.0006(10)
C8 0.0370(16) 0.0270(15) 0.0199(13) -0.0001(11) 0.0127(11) 0.0013(12)
C9 0.0368(17) 0.0206(14) 0.0275(14) 0.0010(11) 0.0107(12) -0.0008(12)
C10 0.0197(13) 0.0290(14) 0.0193(12) 0.0031(11) 0.0037(10) 0.0004(10)
C11 0.0239(14) 0.0290(15) 0.0204(13) 0.0012(11) 0.0099(10) -0.0018(11)
C12 0.0249(14) 0.0212(13) 0.0229(13) 0.0011(11) 0.0071(10) -0.0029(10)
C13 0.0255(14) 0.0270(14) 0.0222(13) 0.0030(11) 0.0077(11) -0.0008(11)
C14 0.0169 0.022 0.0219 0.0022 0.0058 0.0015
C15 0.0213 0.0272 0.0236 -0.0029 0.0041 -0.001
C16 0.0335 0.0348 0.0191 -0.0003 0.0038 -0.0018
C17 0.0322 0.0405 0.0218 0.0057 0.0059 -0.0083
C18 0.0277 0.0291 0.0203 0.0064 0.0033 -0.0066
C19 0.0167 0.0217 0.0221 -0.0005 0.003 -0.0002
C20 0.0166 0.0239 0.0169 0.0013 0.0038 -0.0018
C21 0.0259 0.0266 0.0196 -0.0014 0.0073 0.0046
C22 0.0321 0.0233 0.0238 0.0036 0.0052 0.0023
C23 0.021 0.0278 0.0207 0.0029 0.0049 -0.0007
C24 0.0191 0.0279 0.0216 0.0021 0.008 0.0028
C25 0.0204 0.0226 0.0213 0.0011 0.0057 0.0014
C26 0.0292 0.0279 0.0225 0.0044 0.0073 -0.004
N1 0.0173 0.0231 0.0161 0.0032 0.005 -0.0005
N2 0.0187 0.0264 0.0197 0.0015 0.0043 0.0003
N3 0.0135(10) 0.0232(11) 0.0189(10) 0.0049(9) 0.0044(8) 0.0006(8)
N4 0.0171(10) 0.0254(12) 0.0180(10) 0.0025(9) 0.0050(8) 0.0019(9)
O1 0.0365(13) 0.0267(11) 0.0351(12) -0.0007(9) 0.0060(9) -0.0054(9)
O2 0.0432(14) 0.0367(13) 0.0297(11) 0.0085(9) 0.0161(10) 0.0178(10)
Zn1 0.02253(17) 0.02172(17) 0.01741(16) 0.00052(12) 0.00483(11) 0.00089(12)
N1C 0.0173 0.0231 0.0161 -0.0032 0.005 0.0005
N2C 0.0187 0.0264 0.0197 -0.0015 0.0043 -0.0003
Zn1C 0.02253 0.02172 0.01741 -0.00052 0.00483 -0.00089
N5 0.0299(14) 0.0303(14) 0.0353(14) 0.0004(11) 0.0115(11) 0.0053(11)
O3 0.0432(13) 0.0271(11) 0.0328(11) 0.0076(9) 0.0148(9) 0.0052(9)
O4 0.0322(12) 0.0443(14) 0.0543(15) 0.0230(12) 0.0013(11) -0.0052(10)
O5 0.0317(15) 0.0514(18) 0.138(3) 0.0437(19) -0.0129(16) -0.0055(12)
N6 0.0232(12) 0.0269(13) 0.0324(13) 0.0044(11) 0.0085(10) 0.0000(10)
O6 0.0338(13) 0.0396(13) 0.0454(13) 0.0131(11) 0.0070(10) 0.0107(10)
O7 0.0366(12) 0.0342(12) 0.0347(12) -0.0027(10) 0.0040(9) 0.0096(10)
O8 0.0453(14) 0.0320(12) 0.0312(12) 0.0002(9) 0.0062(10) 0.0063(10)
O9 0.0275(12) 0.0368(13) 0.0325(11) 0.0031(10) 0.0073(9) 0.0006(9)
O10 0.0406(14) 0.0660(18) 0.0315(13) 0.0009(13) 0.0019(10) -0.0063(13)
loop_
_geom_bond_atom_site_label_1
_geom_bond_atom_site_label_2
_geom_bond_site_symmetry_1
_geom_bond_site_symmetry_2
C1 H1 1_555 1_555
C2 C1 1_555 1_555
H2 C2 1_555 1_555
C3 C2 1_555 1_555
H3 C3 1_555 1_555
C4 C3 1_555 1_555
H4 C4 1_555 1_555
C5 C4 1_555 1_555
C6 C5 1_555 1_555
H5 C6 1_555 1_555
C7 C8 1_555 1_555
C8 H6 1_555 1_555
C9 C8 1_555 1_555
H7 C9 1_555 1_555
C10 C9 1_555 1_555
C11 C10 1_555 1_555
H8 C11 1_555 1_555
C12 C7 1_555 1_555
H9 C12 1_555 1_555
C13 C10 1_555 1_555
H10 C13 1_555 1_555
H11 C13 1_555 1_555
C14 C15 1_555 1_555
C15 H12 1_555 1_555
C16 C15 1_555 1_555
H13 C16 1_555 1_555
C17 C16 1_555 1_555
H14 C17 1_555 1_555
C18 C17 1_555 1_555
H15 C18 1_555 1_555
C19 C14 1_555 1_555
H16 C19 1_555 1_555
C20 C21 1_555 1_555
C21 H17 1_555 1_555
C22 C21 1_555 1_555
H18 C22 1_555 1_555
C23 C22 1_555 1_555
C24 C23 1_555 1_555
H19 C24 1_555 1_555
C25 C20 1_555 1_555
H20 C25 1_555 1_555
C26 C13 1_555 1_555
H21 C26 1_555 1_555
H22 C26 1_555 1_555
N1 C19 1_555 1_555
N2 C14 1_555 1_555
N3 C6 1_555 1_555
N4 C1 1_555 1_555
O1 H23 1_555 1_555
O2 H24 1_555 1_555
Zn1 N3 1_555 1_555
H25 O2 1_555 1_555
H26 O1 1_555 1_555
N5 O3 1_555 1_555
O4 N5 1_555 1_555
O5 N5 1_555 1_555
N6 O6 1_555 1_555
O7 N6 1_555 1_555
O8 N6 1_555 1_555
O9 H27 1_555 1_555
H28 O9 1_555 1_555
O10 H29 1_555 1_555
H30 O10 1_555 1_555
N1C Zn1 1_555 1_555
N2C Zn1 1_555 1_555
Zn1C N1 1_555 1_555
C5 N4 1_555 1_555
C7 N3 1_555 1_555
C11 C12 1_555 1_555
C18 N2 1_555 1_555
C20 N1 1_555 1_555
C23 C26 1_555 1_555
C24 C25 1_555 1_555
N2 Zn1C 1_555 1_555
N4 Zn1 1_555 1_555
O1 Zn1 1_555 1_555
O2 Zn1 1_555 1_555

#END
