
#######################################################################
#
#                 Cambridge Crystallographic Data Centre
#                                CCDC 
#
#######################################################################
#
# If this CIF has been generated from an entry in the Cambridge 
# Structural Database, then it will include bibliographic, chemical, 
# crystal, experimental, refinement or atomic coordinate data resulting 
# from the CCDC's data processing and validation procedures.
#
#######################################################################

data_TUMQUP
_chemical_formula_moiety         '(C15 H9 Co1 N5 O4)n'
_chemical_name_systematic        
catena-((\m~4~-5-(3-Methyl-5-(pyrazin-2-yl)-4H-1,2,4-triazol-4-yl)isophthalato)-cobalt)
_symmetry_cell_setting           monoclinic
_symmetry_space_group_name_H-M   'P 21/n'
_symmetry_Int_Tables_number      14
_space_group_name_Hall           '-P 2yn'
loop_
_symmetry_equiv_pos_site_id
_symmetry_equiv_pos_as_xyz
1 x,y,z
2 1/2-x,1/2+y,1/2-z
3 -x,-y,-z
4 1/2+x,1/2-y,1/2+z
_cell_length_a                   9.9547(13)
_cell_length_b                   17.5327(16)
_cell_length_c                   11.8945(14)
_cell_angle_alpha                90
_cell_angle_beta                 98.436(10)
_cell_angle_gamma                90
_cell_volume                     2053.52
_exptl_crystal_colour            red
_exptl_crystal_description       block
_cell_formula_units_Z            4
loop_
_atom_site_label
_atom_site_type_symbol
_atom_site_fract_x
_atom_site_fract_y
_atom_site_fract_z
C1 C 0.3262(3) 0.07922(16) 0.1854(2)
C2 C 0.8335(3) 0.12281(17) 0.2099(2)
C3 C 0.5800(3) 0.10283(14) 0.2006(2)
H1 H 0.5885 0.0554 0.1637
C4 C 0.4523(2) 0.12681(14) 0.2233(2)
C5 C 0.6951(2) 0.14820(14) 0.2320(2)
C6 C 0.4398(2) 0.19571(14) 0.2784(2)
H2 H 0.3544 0.2114 0.2971
C7 C 0.6810(2) 0.21928(14) 0.2838(2)
H3 H 0.7575 0.2516 0.3033
C8 C 0.5542(2) 0.24159(13) 0.3060(2)
C9 C 0.6237(3) 0.26488(15) 0.5579(2)
H4 H 0.7154 0.2523 0.5430
H5 H 0.5664 0.2192 0.5475
H6 H 0.6280 0.2834 0.6361
C10 C 0.5647(2) 0.32528(14) 0.4774(2)
C11 C 0.4913(2) 0.38152(13) 0.3161(2)
C12 C 0.4465(2) 0.40290(14) 0.1955(2)
C13 C 0.4366(3) 0.35603(15) 0.1015(2)
H7 H 0.4699 0.3053 0.1105
C14 C 0.3381(4) 0.45257(17) -0.0103(3)
H8 H 0.2940 0.4710 -0.0814
C15 C 0.3561(3) 0.50237(17) 0.0831(2)
H9 H 0.3294 0.5542 0.0732
N1 N 0.5389(2) 0.31392(11) 0.36200(17)
N2 N 0.53377(19) 0.39665(11) 0.49992(16)
N3 N 0.48645(19) 0.43193(11) 0.39768(17)
N4 N 0.4105(2) 0.47743(13) 0.18603(18)
N5 N 0.3808(3) 0.38007(15) -0.00291(19)
O1 O 0.3296(3) 0.02537(14) 0.1178(2)
O2 O 0.22030(18) 0.10028(11) 0.22350(17)
O3 O 0.8498(2) 0.05376(13) 0.1851(2)
O4 O 0.9285(2) 0.1694(2) 0.2185(2)
Co1 Co 0.45070(3) 0.54564(2) 0.34284(3)
N2B N 0.46623(19) 0.60335(11) 0.50008(16)
O2A O 0.27970(18) 0.60028(11) 0.27650(17)
O3A O 0.6502(2) 0.55376(13) 0.3149(2)
Co1A Co 0.04930(3) 0.04564(2) 0.15716(3)
Co1A_2 Co 1.04930(3) 0.04564(2) 0.15716(3)
Co1B Co 0.54930(3) 0.45436(2) 0.65716(3)
loop_
_geom_bond_atom_site_label_1
_geom_bond_atom_site_label_2
_geom_bond_site_symmetry_1
_geom_bond_site_symmetry_2
C1 C4 1_555 1_555
C2 C5 1_555 1_555
C3 H1 1_555 1_555
C4 C3 1_555 1_555
C5 C3 1_555 1_555
C6 C4 1_555 1_555
H2 C6 1_555 1_555
C7 C5 1_555 1_555
H3 C7 1_555 1_555
C8 C6 1_555 1_555
C9 H4 1_555 1_555
H5 C9 1_555 1_555
H6 C9 1_555 1_555
C10 C9 1_555 1_555
C11 C12 1_555 1_555
C12 C13 1_555 1_555
C13 H7 1_555 1_555
C14 H8 1_555 1_555
C15 C14 1_555 1_555
H9 C15 1_555 1_555
N1 C8 1_555 1_555
N2 C10 1_555 1_555
N3 C11 1_555 1_555
N4 C12 1_555 1_555
N5 C13 1_555 1_555
O1 C1 1_555 1_555
O2 C1 1_555 1_555
O3 C2 1_555 1_555
O4 C2 1_555 1_555
Co1 N3 1_555 1_555
N2B Co1 1_555 1_555
O2A Co1 1_555 1_555
O3A Co1 1_555 1_555
Co1A O2 1_555 1_555
Co1A_2 O3 1_555 1_555
Co1B N2 1_555 1_555
C7 C8 1_555 1_555
C10 N1 1_555 1_555
C11 N1 1_555 1_555
C14 N5 1_555 1_555
C15 N4 1_555 1_555
N2 N3 1_555 1_555
N4 Co1 1_555 1_555

#END
