
#######################################################################
#
#                 Cambridge Crystallographic Data Centre
#                                CCDC 
#
#######################################################################
#
# If this CIF has been generated from an entry in the Cambridge 
# Structural Database, then it will include bibliographic, chemical, 
# crystal, experimental, refinement or atomic coordinate data resulting 
# from the CCDC's data processing and validation procedures.
#
#######################################################################

data_OCUFUQ
_chemical_formula_moiety         '(C26 H16 Fe3 N10 O13)n,n(C3 H7 N1 O1)'
_chemical_name_systematic        
'catena-[(\m-formato)-(\m-oxo)-pentakis(\m-pyrimidine-5-carboxylato)-tri-iron N,N-dimethylformamide solvate]'
_symmetry_cell_setting           monoclinic
_symmetry_space_group_name_H-M   'P 21/n'
_symmetry_Int_Tables_number      14
_space_group_name_Hall           '-P 2yn'
loop_
_symmetry_equiv_pos_site_id
_symmetry_equiv_pos_as_xyz
1 x,y,z
2 1/2-x,1/2+y,1/2-z
3 -x,-y,-z
4 1/2+x,1/2-y,1/2+z
_cell_length_a                   10.705(2)
_cell_length_b                   21.102(4)
_cell_length_c                   17.259(4)
_cell_angle_alpha                90
_cell_angle_beta                 92.13(3)
_cell_angle_gamma                90
_cell_volume                     3896.06
_exptl_crystal_colour            'dark brown'
_exptl_crystal_description       'thin plate'
_cell_formula_units_Z            4
loop_
_atom_site_label
_atom_site_type_symbol
_atom_site_fract_x
_atom_site_fract_y
_atom_site_fract_z
Fe1 Fe 1.07119(5) 0.36616(2) 1.88367(3)
Fe2 Fe 0.99056(5) 0.24738(2) 1.99086(3)
Fe3 Fe 0.98837(5) 0.23118(2) 1.79935(3)
O1 O 1.0643(3) 0.16116(12) 1.97454(14)
O2 O 1.0748(3) 0.14777(12) 1.84611(14)
O3 O 0.8137(2) 0.21743(13) 1.96571(15)
O4 O 0.8137(3) 0.19973(15) 1.83766(16)
O5 O 1.0919(2) 0.67583(11) 1.95914(14)
O6 O 1.0487(2) 0.59532(11) 2.03901(14)
O7 O 1.1561(3) 0.25971(12) 1.74527(14)
O8 O 1.2090(2) 0.34841(12) 1.81099(15)
O9 O 1.2024(3) 0.36486(12) 1.97149(15)
O10 O 1.1575(2) 0.27847(12) 2.04174(14)
O11 O 0.9549(3) 0.39478(13) 1.79760(15)
O12 O 0.8825(10) 0.3025(6) 1.7442(6)
O13 O 1.0204(2) 0.28333(11) 1.89546(13)
N1 N 1.1961(4) -0.03868(17) 1.8820(2)
N2 N 1.1699(8) -0.0240(2) 2.0163(3)
N3 N 0.4274(4) 0.2326(3) 1.9543(3)
N4 N 0.4269(4) 0.1907(2) 1.8264(2)
N5 N 1.1392(3) 0.46585(14) 1.87276(17)
N6 N 1.1826(4) 0.55044(15) 1.78680(19)
N7 N 1.4655(3) 0.29144(14) 1.60882(16)
N8 N 1.5514(3) 0.35376(17) 1.7125(2)
N9 N 1.5287(3) 0.39423(18) 2.1002(2)
N10 N 1.4535(3) 0.32141(14) 2.19258(16)
C1 C 1.0857(3) 0.12906(16) 1.9142(2)
C2 C 1.1286(4) 0.06172(19) 1.9295(2)
C3 C 1.1621(4) 0.0221(2) 1.8703(2)
H1 H 1.1612 0.0384 1.8189
C4 C 1.1364(8) 0.0359(3) 2.0021(3)
H2 H 1.1169 0.0620 2.0449
C5 C 1.1956(6) -0.0582(2) 1.9539(3)
H3 H 1.2159 -0.1015 1.9627
C6 C 0.7607(4) 0.20794(17) 1.8996(2)
C7 C 0.6208(4) 0.20771(19) 1.8969(2)
C8 C 0.5517(4) 0.1896(2) 1.8303(3)
H4 H 0.5950 0.1760 1.7862
C9 C 0.5522(5) 0.2301(3) 1.9567(3)
H5 H 0.5958 0.2446 2.0022
C10 C 0.3721(5) 0.2124(2) 1.8894(3)
H6 H 0.2833 0.2134 1.8872
C11 C 1.0875(3) 0.61819(17) 1.9766(2)
C12 C 1.1273(3) 0.57231(17) 1.9166(2)
C13 C 1.1564(4) 0.59163(18) 1.8429(2)
H7 H 1.1578 0.6357 1.8316
C14 C 1.1220(3) 0.50801(17) 1.92962(19)
H8 H 1.1058 0.4931 1.9802
C15 C 1.1704(4) 0.48941(18) 1.8041(2)
H9 H 1.1852 0.4598 1.7640
C16 C 1.2267(3) 0.30556(17) 1.76100(19)
C17 C 1.3442(3) 0.31257(16) 1.7180(2)
C18 C 1.4429(4) 0.34803(18) 1.7479(2)
H10 H 1.4335 0.3693 1.7959
C19 C 1.3598(3) 0.28454(16) 1.64675(19)
H11 H 1.2939 0.2598 1.6242
C20 C 1.5567(4) 0.32495(18) 1.6444(2)
H12 H 1.6330 0.3285 1.6183
C21 C 1.2237(3) 0.32623(16) 2.02541(19)
C22 C 1.3361(3) 0.33891(17) 2.0760(2)
C23 C 1.4271(4) 0.3816(2) 2.0552(2)
H13 H 1.4170 0.4029 2.0069
C24 C 1.5363(4) 0.36310(19) 2.1675(2)
H14 H 1.6073 0.3714 2.2006
C25 C 1.3541(3) 0.30920(17) 2.1471(2)
H15 H 1.2939 0.2795 2.1636
C26 C 0.8818(8) 0.3611(3) 1.7520(4)
H16 H 0.818(6) 0.385(3) 1.716(4)
Fe1B Fe 0.92881(5) 0.63384(2) 2.11633(3)
Fe2B Fe 1.00944(5) 0.75262(2) 2.00914(3)
Fe2C Fe 1.49056(5) 0.25262(2) 1.49086(3)
Fe3C Fe 1.48837(5) 0.26882(2) 2.29935(3)
O5B O 0.9081(2) 0.32417(11) 2.04086(14)
O6B O 0.9513(2) 0.40468(11) 1.96099(14)
N7C N 0.9655(3) 0.20856(14) 2.10882(16)
N10C N 0.9535(3) 0.17859(14) 1.69258(16)
O11B O 1.0451(3) 0.60522(13) 1.20240(15)
O12B O 1.1175(10) 0.6975(6) 1.2558(6)
C26B C 1.1182(8) 0.6389(3) 1.2480(4)
H16B H 1.182(6) 0.615(3) 1.284(4)
Fe1B_2 Fe 0.92881(5) 0.63384(2) 1.11633(3)
Fe2B_2 Fe 1.00944(5) 0.75262(2) 1.00914(3)
Fe3B Fe 1.01163(5) 0.76882(2) 1.20065(3)
O1B O 0.9357(3) 0.83884(12) 1.02546(14)
O2B O 0.9252(3) 0.85223(12) 1.15389(14)
O3B O 1.1863(2) 0.78257(13) 1.03429(15)
O4B O 1.1863(3) 0.80027(15) 1.16234(16)
O5B_2 O 0.9081(2) 0.32417(11) 1.04086(14)
O6B_2 O 0.9513(2) 0.40468(11) 0.96099(14)
O7B O 0.8439(3) 0.74029(12) 1.25473(14)
O8B O 0.7910(2) 0.65159(12) 1.18901(15)
O9B O 0.7976(3) 0.63514(12) 1.02851(15)
O10B O 0.8425(2) 0.72153(12) 0.95826(14)
O13B O 0.9796(2) 0.71667(11) 1.10454(13)
N1B N 0.8039(4) 1.03868(17) 1.1180(2)
N2B N 0.8301(8) 1.0240(2) 0.9837(3)
N3B N 1.5726(4) 0.7674(3) 1.0457(3)
N4B N 1.5731(4) 0.8093(2) 1.1736(2)
N5B N 0.8608(3) 0.53415(14) 1.12724(17)
N6B N 0.8174(4) 0.44956(15) 1.21320(19)
N7B N 0.5345(3) 0.70856(14) 1.39118(16)
N8B N 0.4486(3) 0.64624(17) 1.2875(2)
N9B N 0.4713(3) 0.60577(18) 0.8998(2)
N10B N 0.5465(3) 0.67859(14) 0.80742(16)
C1B C 0.9143(3) 0.87094(16) 1.0858(2)
C2B C 0.8714(4) 0.93828(19) 1.0705(2)
C3B C 0.8379(4) 0.9779(2) 1.1297(2)
H1B H 0.8388 0.9616 1.1811
C4B C 0.8636(8) 0.9641(3) 0.9979(3)
H2B H 0.8831 0.9380 0.9551
C5B C 0.8044(6) 1.0582(2) 1.0461(3)
H3B H 0.7841 1.1015 1.0373
C6B C 1.2393(4) 0.79206(17) 1.1004(2)
C7B C 1.3792(4) 0.79229(19) 1.1031(2)
C8B C 1.4483(4) 0.8104(2) 1.1697(3)
H4B H 1.4050 0.8240 1.2138
C9B C 1.4478(5) 0.7699(3) 1.0433(3)
H5B H 1.4042 0.7554 0.9978
C10B C 1.6279(5) 0.7876(2) 1.1106(3)
H6B H 1.7167 0.7866 1.1128
C11B C 0.9125(3) 0.38181(17) 1.0234(2)
C12B C 0.8727(3) 0.42769(17) 1.0834(2)
C13B C 0.8436(4) 0.40837(18) 1.1571(2)
H7B H 0.8422 0.3643 1.1684
C14B C 0.8780(3) 0.49199(17) 1.07038(19)
H8B H 0.8942 0.5069 1.0198
C15B C 0.8296(4) 0.51059(18) 1.1959(2)
H9B H 0.8148 0.5402 1.2360
C16B C 0.7733(3) 0.69444(17) 1.23900(19)
C17B C 0.6558(3) 0.68743(16) 1.2820(2)
C18B C 0.5571(4) 0.65197(18) 1.2521(2)
H10B H 0.5665 0.6307 1.2041
C19B C 0.6402(3) 0.71546(16) 1.35325(19)
H11B H 0.7061 0.7402 1.3758
C20B C 0.4433(4) 0.67505(18) 1.3556(2)
H12B H 0.3670 0.6715 1.3817
C21B C 0.7763(3) 0.67377(16) 0.97459(19)
C22B C 0.6639(3) 0.66109(17) 0.9240(2)
C23B C 0.5729(4) 0.6184(2) 0.9448(2)
H13B H 0.5830 0.5971 0.9931
C24B C 0.4637(4) 0.63690(19) 0.8325(2)
H14B H 0.3927 0.6286 0.7994
C25B C 0.6459(3) 0.69080(17) 0.8529(2)
H15B H 0.7061 0.7205 0.8364
Fe1_2 Fe 1.07119(5) 0.36616(2) 0.88367(3)
Fe2_2 Fe 0.99056(5) 0.24738(2) 0.99086(3)
Fe2A Fe 0.50944(5) 0.74738(2) 1.50914(3)
Fe3A Fe 0.51163(5) 0.73118(2) 0.70065(3)
O5_2 O 1.0919(2) 0.67583(11) 0.95914(14)
O6_2 O 1.0487(2) 0.59532(11) 1.03901(14)
N7A N 1.0345(3) 0.79144(14) 0.89118(16)
N10A N 1.0465(3) 0.82141(14) 1.30742(16)
O15 O -0.1390(9) 0.5820(4) 0.8106(5)
N13 N -0.2882(5) 0.5158(2) 0.8020(3)
C32 C -0.1684(9) 0.5482(5) 0.8528(8)
H20 H -0.1360 0.5393 0.9036
C33 C -0.3300(8) 0.4662(4) 0.8535(4)
H21 H -0.4099 0.4785 0.8750
H22 H -0.2676 0.4602 0.8959
H23 H -0.3406 0.4266 0.8245
C34 C -0.3569(11) 0.5204(4) 0.7302(5)
H24 H -0.3301 0.5583 0.7023
H25 H -0.4463 0.5236 0.7399
H26 H -0.3416 0.4827 0.6989
O14? O 0.910(2) 0.3113(14) 1.7292(15)
C27? C 0.9299(18) 0.3676(8) 1.7330(10)
C28? C 0.9119(19) 0.4049(8) 1.6618(9)
C29? C 0.878(3) 0.3735(12) 1.5853(10)
H17? H 0.8398 0.3330 1.5805
N11? N 0.910(2) 0.4118(11) 1.5212(12)
C30? C 0.960(4) 0.4730(15) 1.521(2)
H18? H 0.9903 0.4905 1.4749
N12? N 0.965(3) 0.5073(12) 1.5879(15)
C31? C 0.934(2) 0.4713(10) 1.6571(12)
H19? H 0.9285 0.4947 1.7038
loop_
_geom_bond_atom_site_label_1
_geom_bond_atom_site_label_2
_geom_bond_site_symmetry_1
_geom_bond_site_symmetry_2
Fe1 O8 1_555 1_555
Fe2 O1 1_555 1_555
Fe3 O2 1_555 1_555
O1 C1 1_555 1_555
O2 C1 1_555 1_555
O3 Fe2 1_555 1_555
O4 Fe3 1_555 1_555
O5 C11 1_555 1_555
O6 C11 1_555 1_555
O7 Fe3 1_555 1_555
O8 C16 1_555 1_555
O9 Fe1 1_555 1_555
O10 Fe2 1_555 1_555
O11 Fe1 1_555 1_555
O12 Fe3 1_555 1_555
O13 Fe1 1_555 1_555
N1 C3 1_555 1_555
N2 C4 1_555 1_555
N3 C9 1_555 1_555
N4 C8 1_555 1_555
N5 Fe1 1_555 1_555
N6 C13 1_555 1_555
N7 C19 1_555 1_555
N8 C18 1_555 1_555
N9 C23 1_555 1_555
N10 C24 1_555 1_555
C1 C2 1_555 1_555
C2 C3 1_555 1_555
C3 H1 1_555 1_555
C4 C2 1_555 1_555
H2 C4 1_555 1_555
C5 N1 1_555 1_555
H3 C5 1_555 1_555
C6 O3 1_555 1_555
C7 C6 1_555 1_555
C8 C7 1_555 1_555
H4 C8 1_555 1_555
C9 C7 1_555 1_555
H5 C9 1_555 1_555
C10 N3 1_555 1_555
H6 C10 1_555 1_555
C11 C12 1_555 1_555
C12 C13 1_555 1_555
C13 H7 1_555 1_555
C14 N5 1_555 1_555
H8 C14 1_555 1_555
C15 N5 1_555 1_555
H9 C15 1_555 1_555
C16 O7 1_555 1_555
C17 C16 1_555 1_555
C18 C17 1_555 1_555
H10 C18 1_555 1_555
C19 C17 1_555 1_555
H11 C19 1_555 1_555
C20 N7 1_555 1_555
H12 C20 1_555 1_555
C21 O9 1_555 1_555
C22 C21 1_555 1_555
C23 C22 1_555 1_555
H13 C23 1_555 1_555
C24 N9 1_555 1_555
H14 C24 1_555 1_555
C25 N10 1_555 1_555
H15 C25 1_555 1_555
C26 O11 1_555 1_555
H16 C26 1_555 1_555
O15 C32 1_555 1_555
N13 C32 1_555 1_555
C32 H20 1_555 1_555
C33 N13 1_555 1_555
H21 C33 1_555 1_555
H22 C33 1_555 1_555
H23 C33 1_555 1_555
C34 N13 1_555 1_555
H24 C34 1_555 1_555
H25 C34 1_555 1_555
H26 C34 1_555 1_555
Fe1B O6 1_555 1_555
Fe2B O5 1_555 1_555
Fe2C N7 1_555 1_555
Fe3C N10 1_555 1_555
O5B Fe2 1_555 1_555
O6B Fe1 1_555 1_555
N7C Fe2 1_555 1_555
N10C Fe3 1_555 1_555
O11B C26B 1_555 1_555
O12B C26B 1_555 1_555
C26B H16B 1_555 1_555
Fe1B_2 O11B 1_555 1_555
Fe2B_2 O1B 1_555 1_555
Fe3B O12B 1_555 1_555
O1B C1B 1_555 1_555
O2B Fe3B 1_555 1_555
O3B Fe2B_2 1_555 1_555
O4B Fe3B 1_555 1_555
O5B_2 C11B 1_555 1_555
O6B_2 C11B 1_555 1_555
O7B Fe3B 1_555 1_555
O8B Fe1B_2 1_555 1_555
O9B Fe1B_2 1_555 1_555
O10B Fe2B_2 1_555 1_555
O13B Fe1B_2 1_555 1_555
N1B C3B 1_555 1_555
N2B C4B 1_555 1_555
N3B C9B 1_555 1_555
N4B C8B 1_555 1_555
N5B Fe1B_2 1_555 1_555
N6B C13B 1_555 1_555
N7B C19B 1_555 1_555
N8B C18B 1_555 1_555
N9B C23B 1_555 1_555
N10B C24B 1_555 1_555
C1B O2B 1_555 1_555
C2B C1B 1_555 1_555
C3B C2B 1_555 1_555
H1B C3B 1_555 1_555
C4B C2B 1_555 1_555
H2B C4B 1_555 1_555
C5B N1B 1_555 1_555
H3B C5B 1_555 1_555
C6B O3B 1_555 1_555
C7B C6B 1_555 1_555
C8B C7B 1_555 1_555
H4B C8B 1_555 1_555
C9B C7B 1_555 1_555
H5B C9B 1_555 1_555
C10B N3B 1_555 1_555
H6B C10B 1_555 1_555
C11B C12B 1_555 1_555
C12B C13B 1_555 1_555
C13B H7B 1_555 1_555
C14B N5B 1_555 1_555
H8B C14B 1_555 1_555
C15B N5B 1_555 1_555
H9B C15B 1_555 1_555
C16B O7B 1_555 1_555
C17B C16B 1_555 1_555
C18B C17B 1_555 1_555
H10B C18B 1_555 1_555
C19B C17B 1_555 1_555
H11B C19B 1_555 1_555
C20B N7B 1_555 1_555
H12B C20B 1_555 1_555
C21B O9B 1_555 1_555
C22B C21B 1_555 1_555
C23B C22B 1_555 1_555
H13B C23B 1_555 1_555
C24B N9B 1_555 1_555
H14B C24B 1_555 1_555
C25B N10B 1_555 1_555
H15B C25B 1_555 1_555
Fe1_2 O6B_2 1_555 1_555
Fe2_2 O5B_2 1_555 1_555
Fe2A N7B 1_555 1_555
Fe3A N10B 1_555 1_555
O5_2 Fe2B_2 1_555 1_555
O6_2 Fe1B_2 1_555 1_555
N7A Fe2B_2 1_555 1_555
N10A Fe3B 1_555 1_555
Fe2 O13 1_555 1_555
Fe3 O13 1_555 1_555
O4 C6 1_555 1_555
O10 C21 1_555 1_555
O12 C26 1_555 1_555
N2 C5 1_555 1_555
N4 C10 1_555 1_555
N6 C15 1_555 1_555
N8 C20 1_555 1_555
C12 C14 1_555 1_555
C22 C25 1_555 1_555
Fe2B_2 O13B 1_555 1_555
Fe3B O13B 1_555 1_555
O4B C6B 1_555 1_555
O8B C16B 1_555 1_555
O10B C21B 1_555 1_555
N2B C5B 1_555 1_555
N4B C10B 1_555 1_555
N6B C15B 1_555 1_555
N8B C20B 1_555 1_555
C12B C14B 1_555 1_555
C22B C25B 1_555 1_555

#END
