
#######################################################################
#
#                 Cambridge Crystallographic Data Centre
#                                CCDC 
#
#######################################################################
#
# If this CIF has been generated from an entry in the Cambridge 
# Structural Database, then it will include bibliographic, chemical, 
# crystal, experimental, refinement or atomic coordinate data resulting 
# from the CCDC's data processing and validation procedures.
#
#######################################################################

data_LELDOX
_chemical_name_common            PCN-82
_chemical_formula_moiety         '(C36 H24 Cu2 N2 O12)n'
_chemical_name_systematic        
"catena-((\m~8~-9,9'-(2,5-dimethoxybenzene-1,4-diyl)bis(9H-carbazole-3,6-dicarboxylato))-diaqua-di-copper(ii) unknown solvate)"
_symmetry_cell_setting           cubic
_symmetry_space_group_name_H-M   'F m -3 m'
_symmetry_Int_Tables_number      225
_space_group_name_Hall           '-F 4 2 3'
loop_
_symmetry_equiv_pos_site_id
_symmetry_equiv_pos_as_xyz
1 x,y,z
2 -y,x,z
3 -x,-y,z
4 y,-x,z
5 x,-z,y
6 x,-y,-z
7 x,z,-y
8 z,y,-x
9 -x,y,-z
10 -z,y,x
11 z,x,y
12 y,z,x
13 -y,-z,x
14 z,-x,-y
15 -y,z,-x
16 -z,-x,y
17 -z,x,-y
18 y,-z,-x
19 y,x,-z
20 -y,-x,-z
21 -x,z,y
22 -x,-z,-y
23 z,-y,x
24 -z,-y,-x
25 x,1/2+y,1/2+z
26 -y,1/2+x,1/2+z
27 -x,1/2-y,1/2+z
28 y,1/2-x,1/2+z
29 x,1/2-z,1/2+y
30 x,1/2-y,1/2-z
31 x,1/2+z,1/2-y
32 z,1/2+y,1/2-x
33 -x,1/2+y,1/2-z
34 -z,1/2+y,1/2+x
35 z,1/2+x,1/2+y
36 y,1/2+z,1/2+x
37 -y,1/2-z,1/2+x
38 z,1/2-x,1/2-y
39 -y,1/2+z,1/2-x
40 -z,1/2-x,1/2+y
41 -z,1/2+x,1/2-y
42 y,1/2-z,1/2-x
43 y,1/2+x,1/2-z
44 -y,1/2-x,1/2-z
45 -x,1/2+z,1/2+y
46 -x,1/2-z,1/2-y
47 z,1/2-y,1/2+x
48 -z,1/2-y,1/2-x
49 1/2+x,y,1/2+z
50 1/2-y,x,1/2+z
51 1/2-x,-y,1/2+z
52 1/2+y,-x,1/2+z
53 1/2+x,-z,1/2+y
54 1/2+x,-y,1/2-z
55 1/2+x,z,1/2-y
56 1/2+z,y,1/2-x
57 1/2-x,y,1/2-z
58 1/2-z,y,1/2+x
59 1/2+z,x,1/2+y
60 1/2+y,z,1/2+x
61 1/2-y,-z,1/2+x
62 1/2+z,-x,1/2-y
63 1/2-y,z,1/2-x
64 1/2-z,-x,1/2+y
65 1/2-z,x,1/2-y
66 1/2+y,-z,1/2-x
67 1/2+y,x,1/2-z
68 1/2-y,-x,1/2-z
69 1/2-x,z,1/2+y
70 1/2-x,-z,1/2-y
71 1/2+z,-y,1/2+x
72 1/2-z,-y,1/2-x
73 1/2+x,1/2+y,z
74 1/2-y,1/2+x,z
75 1/2-x,1/2-y,z
76 1/2+y,1/2-x,z
77 1/2+x,1/2-z,y
78 1/2+x,1/2-y,-z
79 1/2+x,1/2+z,-y
80 1/2+z,1/2+y,-x
81 1/2-x,1/2+y,-z
82 1/2-z,1/2+y,x
83 1/2+z,1/2+x,y
84 1/2+y,1/2+z,x
85 1/2-y,1/2-z,x
86 1/2+z,1/2-x,-y
87 1/2-y,1/2+z,-x
88 1/2-z,1/2-x,y
89 1/2-z,1/2+x,-y
90 1/2+y,1/2-z,-x
91 1/2+y,1/2+x,-z
92 1/2-y,1/2-x,-z
93 1/2-x,1/2+z,y
94 1/2-x,1/2-z,-y
95 1/2+z,1/2-y,x
96 1/2-z,1/2-y,-x
97 -x,-y,-z
98 y,-x,-z
99 x,y,-z
100 -y,x,-z
101 -x,z,-y
102 -x,y,z
103 -x,-z,y
104 -z,-y,x
105 x,-y,z
106 z,-y,-x
107 -z,-x,-y
108 -y,-z,-x
109 y,z,-x
110 -z,x,y
111 y,-z,x
112 z,x,-y
113 z,-x,y
114 -y,z,x
115 -y,-x,z
116 y,x,z
117 x,-z,-y
118 x,z,y
119 -z,y,-x
120 z,y,x
121 -x,1/2-y,1/2-z
122 y,1/2-x,1/2-z
123 x,1/2+y,1/2-z
124 -y,1/2+x,1/2-z
125 -x,1/2+z,1/2-y
126 -x,1/2+y,1/2+z
127 -x,1/2-z,1/2+y
128 -z,1/2-y,1/2+x
129 x,1/2-y,1/2+z
130 z,1/2-y,1/2-x
131 -z,1/2-x,1/2-y
132 -y,1/2-z,1/2-x
133 y,1/2+z,1/2-x
134 -z,1/2+x,1/2+y
135 y,1/2-z,1/2+x
136 z,1/2+x,1/2-y
137 z,1/2-x,1/2+y
138 -y,1/2+z,1/2+x
139 -y,1/2-x,1/2+z
140 y,1/2+x,1/2+z
141 x,1/2-z,1/2-y
142 x,1/2+z,1/2+y
143 -z,1/2+y,1/2-x
144 z,1/2+y,1/2+x
145 1/2-x,-y,1/2-z
146 1/2+y,-x,1/2-z
147 1/2+x,y,1/2-z
148 1/2-y,x,1/2-z
149 1/2-x,z,1/2-y
150 1/2-x,y,1/2+z
151 1/2-x,-z,1/2+y
152 1/2-z,-y,1/2+x
153 1/2+x,-y,1/2+z
154 1/2+z,-y,1/2-x
155 1/2-z,-x,1/2-y
156 1/2-y,-z,1/2-x
157 1/2+y,z,1/2-x
158 1/2-z,x,1/2+y
159 1/2+y,-z,1/2+x
160 1/2+z,x,1/2-y
161 1/2+z,-x,1/2+y
162 1/2-y,z,1/2+x
163 1/2-y,-x,1/2+z
164 1/2+y,x,1/2+z
165 1/2+x,-z,1/2-y
166 1/2+x,z,1/2+y
167 1/2-z,y,1/2-x
168 1/2+z,y,1/2+x
169 1/2-x,1/2-y,-z
170 1/2+y,1/2-x,-z
171 1/2+x,1/2+y,-z
172 1/2-y,1/2+x,-z
173 1/2-x,1/2+z,-y
174 1/2-x,1/2+y,z
175 1/2-x,1/2-z,y
176 1/2-z,1/2-y,x
177 1/2+x,1/2-y,z
178 1/2+z,1/2-y,-x
179 1/2-z,1/2-x,-y
180 1/2-y,1/2-z,-x
181 1/2+y,1/2+z,-x
182 1/2-z,1/2+x,y
183 1/2+y,1/2-z,x
184 1/2+z,1/2+x,-y
185 1/2+z,1/2-x,y
186 1/2-y,1/2+z,x
187 1/2-y,1/2-x,z
188 1/2+y,1/2+x,z
189 1/2+x,1/2-z,-y
190 1/2+x,1/2+z,y
191 1/2-z,1/2+y,-x
192 1/2+z,1/2+y,x
_cell_length_a                   40.026(6)
_cell_length_b                   40.026(6)
_cell_length_c                   40.026(6)
_cell_angle_alpha                90
_cell_angle_beta                 90
_cell_angle_gamma                90
_cell_volume                     64124.9
_exptl_crystal_colour            green
_exptl_crystal_description       block
_cell_formula_units_Z            24
loop_
_atom_site_label
_atom_site_type_symbol
_atom_site_fract_x
_atom_site_fract_y
_atom_site_fract_z
_atom_site_U_iso_or_equiv
_atom_site_thermal_displace_type
Cu1 Cu 0.0000 -0.17280(3) 0.0000 0.0692 Uani
Cu2 Cu 0.0000 -0.23844(4) 0.0000 0.0820 Uani
O1 O 0.0000 -0.17679(10) -0.04871(11) 0.0847 Uani
O2 O 0.0000 -0.23417(11) -0.04844(13) 0.1063 Uani
O3 O 0.0000 -0.11905(18) 0.0000 0.0847 Uani
O4 O 0.0000 -0.2927(2) 0.0000 0.1117 Uani
O5 O -0.0557(6) -0.2472(7) -0.2065(6) 0.3130 Uiso
C1 C -0.0549(6) -0.2717(7) -0.1838(6) 0.3760 Uiso
H1 H -0.0669 -0.2912 -0.1923 0.4700 Uiso
H2 H -0.0655 -0.2639 -0.1631 0.4700 Uiso
H3 H -0.0316 -0.2778 -0.1792 0.4700 Uiso
N1 N 0.0000 -0.2008(3) -0.2008(3) 0.1813 Uani
C2 C 0.0000 -0.2045(2) -0.06146(18) 0.1033 Uani
C3 C 0.0000 -0.2048(2) -0.1001(2) 0.1203 Uani
C4 C 0.0000 -0.1750(2) -0.1155(2) 0.1213 Uani
H4 H 0.0000 -0.1548 -0.1030 0.1450 Uiso
C5 C 0.0000 -0.1744(2) -0.1514(2) 0.1177 Uani
C6 C 0.0000 -0.2052(3) -0.1654(3) 0.1417 Uani
C7 C 0.0000 -0.2355(3) -0.1490(3) 0.1760 Uani
H5 H 0.0000 -0.2561 -0.1608 0.2110 Uiso
C8 C 0.0000 -0.2344(3) -0.1167(3) 0.1437 Uani
H6 H 0.0000 -0.2546 -0.1044 0.1720 Uiso
C9 C 0.0000 -0.2278(3) -0.2278(3) 0.1760 Uani
C10 C -0.0288(4) -0.2480(3) -0.2270(3) 0.1887 Uani
Cu1DA Cu 0.0000 -0.5000 -0.32720(3) 0.0692 Uani
Cu1Z Cu 0.0000 -0.32720(3) -0.5000 0.0692 Uani
Cu1D Cu 0.0000 0.0000 -0.17280(3) 0.0692 Uani
Cu2DA Cu 0.0000 -0.5000 -0.26156(4) 0.0820 Uani
Cu2Z Cu 0.0000 -0.26156(4) -0.5000 0.0820 Uani
Cu2D Cu 0.0000 0.0000 -0.23844(4) 0.0820 Uani
O1SA O 0.0000 -0.45129(11) -0.32321(10) 0.0847 Uani
O1CA O 0.0000 -0.32321(10) -0.45129(11) 0.0847 Uani
O1T O 0.0000 -0.04871(11) -0.17679(10) 0.0847 Uani
O1H O 0.0000 -0.17679(10) 0.04871(11) 0.0847 Uani
O1G O -0.04871(11) -0.17679(10) 0.0000 0.0847 Uani
O1I O 0.04871(11) -0.17679(10) 0.0000 0.0847 Uani
O2SA O 0.0000 -0.45156(13) -0.26583(11) 0.1063 Uani
O2CA O 0.0000 -0.26583(11) -0.45156(13) 0.1063 Uani
O2T O 0.0000 -0.04844(13) -0.23417(11) 0.1063 Uani
O2H O 0.0000 -0.23417(11) 0.04844(13) 0.1063 Uani
O2G O -0.04844(13) -0.23417(11) 0.0000 0.1063 Uani
O2I O 0.04844(13) -0.23417(11) 0.0000 0.1063 Uani
O5T O 0.0557(6) -0.2065(6) -0.2472(7) 0.3130 Uiso
O5PD O 0.0557(6) -0.2528(7) -0.2935(6) 0.3130 Uiso
O5SA O 0.0557(6) -0.2935(6) -0.2528(7) 0.3130 Uiso
O5WC O 0.0557(6) -0.2472(7) -0.2065(6) 0.3130 Uiso
O5MD O -0.0557(6) -0.2065(6) -0.2472(7) 0.3130 Uiso
O5CA O -0.0557(6) -0.2528(7) -0.2935(6) 0.3130 Uiso
O5JE O -0.0557(6) -0.2935(6) -0.2528(7) 0.3130 Uiso
C1T C 0.0549(6) -0.1838(6) -0.2717(7) 0.3760 Uiso
C1PD C 0.0549(6) -0.2283(7) -0.3162(6) 0.3760 Uiso
C1SA C 0.0549(6) -0.3162(6) -0.2283(7) 0.3760 Uiso
C1WC C 0.0549(6) -0.2717(7) -0.1838(6) 0.3760 Uiso
C1MD C -0.0549(6) -0.1838(6) -0.2717(7) 0.3760 Uiso
C1CA C -0.0549(6) -0.2283(7) -0.3162(6) 0.3760 Uiso
C1JE C -0.0549(6) -0.3162(6) -0.2283(7) 0.3760 Uiso
H1T H 0.0669 -0.1923 -0.2912 0.4700 Uiso
H1PD H 0.0669 -0.2088 -0.3077 0.4700 Uiso
H1SA H 0.0669 -0.3077 -0.2088 0.4700 Uiso
H1WC H 0.0669 -0.2912 -0.1923 0.4700 Uiso
H1MD H -0.0669 -0.1923 -0.2912 0.4700 Uiso
H1CA H -0.0669 -0.2088 -0.3077 0.4700 Uiso
H1JE H -0.0669 -0.3077 -0.2088 0.4700 Uiso
H2T H 0.0655 -0.1631 -0.2639 0.4700 Uiso
H2PD H 0.0655 -0.2361 -0.3369 0.4700 Uiso
H2SA H 0.0655 -0.3369 -0.2361 0.4700 Uiso
H2WC H 0.0655 -0.2639 -0.1631 0.4700 Uiso
H2MD H -0.0655 -0.1631 -0.2639 0.4700 Uiso
H2CA H -0.0655 -0.2361 -0.3369 0.4700 Uiso
H2JE H -0.0655 -0.3369 -0.2361 0.4700 Uiso
H3T H 0.0316 -0.1792 -0.2778 0.4700 Uiso
H3PD H 0.0316 -0.2222 -0.3208 0.4700 Uiso
H3SA H 0.0316 -0.3208 -0.2222 0.4700 Uiso
H3WC H 0.0316 -0.2778 -0.1792 0.4700 Uiso
H3MD H -0.0316 -0.1792 -0.2778 0.4700 Uiso
H3CA H -0.0316 -0.2222 -0.3208 0.4700 Uiso
H3JE H -0.0316 -0.3208 -0.2222 0.4700 Uiso
N1CA N 0.0000 -0.2992(3) -0.2992(3) 0.1813 Uani
C2SA C 0.0000 -0.43854(18) -0.2955(2) 0.1033 Uani
C2CA C 0.0000 -0.2955(2) -0.43854(18) 0.1033 Uani
C2T C 0.0000 -0.06146(18) -0.2045(2) 0.1033 Uani
C3SA C 0.0000 -0.3999(2) -0.2952(2) 0.1203 Uani
C3CA C 0.0000 -0.2952(2) -0.3999(2) 0.1203 Uani
C3T C 0.0000 -0.1001(2) -0.2048(2) 0.1203 Uani
C4SA C 0.0000 -0.3845(2) -0.3250(2) 0.1213 Uani
C4CA C 0.0000 -0.3250(2) -0.3845(2) 0.1213 Uani
C4T C 0.0000 -0.1155(2) -0.1750(2) 0.1213 Uani
H4SA H 0.0000 -0.3970 -0.3452 0.1450 Uiso
H4CA H 0.0000 -0.3452 -0.3970 0.1450 Uiso
H4T H 0.0000 -0.1030 -0.1548 0.1450 Uiso
C5SA C 0.0000 -0.3486(2) -0.3256(2) 0.1177 Uani
C5CA C 0.0000 -0.3256(2) -0.3486(2) 0.1177 Uani
C5T C 0.0000 -0.1514(2) -0.1744(2) 0.1177 Uani
C6SA C 0.0000 -0.3346(3) -0.2948(3) 0.1417 Uani
C6CA C 0.0000 -0.2948(3) -0.3346(3) 0.1417 Uani
C6T C 0.0000 -0.1654(3) -0.2052(3) 0.1417 Uani
C7SA C 0.0000 -0.3510(3) -0.2645(3) 0.1760 Uani
C7CA C 0.0000 -0.2645(3) -0.3510(3) 0.1760 Uani
C7T C 0.0000 -0.1490(3) -0.2355(3) 0.1760 Uani
H5SA H 0.0000 -0.3392 -0.2439 0.2110 Uiso
H5CA H 0.0000 -0.2439 -0.3392 0.2110 Uiso
H5T H 0.0000 -0.1608 -0.2561 0.2110 Uiso
C8SA C 0.0000 -0.3833(3) -0.2656(3) 0.1437 Uani
C8CA C 0.0000 -0.2656(3) -0.3833(3) 0.1437 Uani
C8T C 0.0000 -0.1167(3) -0.2344(3) 0.1437 Uani
H6SA H 0.0000 -0.3956 -0.2454 0.1720 Uiso
H6CA H 0.0000 -0.2454 -0.3956 0.1720 Uiso
H6T H 0.0000 -0.1044 -0.2546 0.1720 Uiso
C9CA C 0.0000 -0.2722(3) -0.2722(3) 0.1760 Uani
C10T C 0.0288(4) -0.2270(3) -0.2480(3) 0.1887 Uani
C10PD C 0.0288(4) -0.2520(3) -0.2730(3) 0.1887 Uani
C10SA C 0.0288(4) -0.2730(3) -0.2520(3) 0.1887 Uani
C10WC C 0.0288(4) -0.2480(3) -0.2270(3) 0.1887 Uani
C10MD C -0.0288(4) -0.2270(3) -0.2480(3) 0.1887 Uani
C10CA C -0.0288(4) -0.2520(3) -0.2730(3) 0.1887 Uani
C10JE C -0.0288(4) -0.2730(3) -0.2520(3) 0.1887 Uani
loop_
_atom_site_aniso_label
_atom_site_aniso_U_11
_atom_site_aniso_U_22
_atom_site_aniso_U_33
_atom_site_aniso_U_23
_atom_site_aniso_U_13
_atom_site_aniso_U_12
Cu1 0.0772 0.0532 0.0772 0 0 0
Cu2 0.098 0.0501 0.098 0 0 0
O1 0.124 0.053 0.077 -0.025 0 0
O2 0.163 0.053 0.103 0.005 0 0
O3 0.102 0.05 0.102 0 0 0
O4 0.13 0.075 0.13 0 0 0
N1 0.19 0.177 0.177 -0.004 0 0
C2 0.136 0.088 0.086 0.002 0 0
C3 0.132 0.111 0.118 -0.009 0 0
C4 0.128 0.122 0.114 0.001 0 0
C5 0.126 0.116 0.111 -0.007 0 0
C6 0.158 0.133 0.134 -0.005 0 0
C7 0.186 0.174 0.168 -0.001 0 0
C8 0.156 0.137 0.138 -0.011 0 0
C9 0.182 0.173 0.173 -0.006 0 0
C10 0.191 0.192 0.183 -0.002 -0.001 0.001
Cu1DA 0.0772 0.0772 0.0532 0 0 0
Cu1Z 0.0772 0.0532 0.0772 0 0 0
Cu1D 0.0772 0.0772 0.0532 0 0 0
Cu2DA 0.098 0.098 0.0501 0 0 0
Cu2Z 0.098 0.0501 0.098 0 0 0
Cu2D 0.098 0.098 0.0501 0 0 0
O1SA 0.124 0.077 0.053 -0.025 0 0
O1CA 0.124 0.053 0.077 -0.025 0 0
O1T 0.124 0.077 0.053 -0.025 0 0
O1H 0.124 0.053 0.077 0.025 0 0
O1G 0.077 0.053 0.124 0 0 -0.025
O1I 0.077 0.053 0.124 0 0 0.025
O2SA 0.163 0.103 0.053 0.005 0 0
O2CA 0.163 0.053 0.103 0.005 0 0
O2T 0.163 0.103 0.053 0.005 0 0
O2H 0.163 0.053 0.103 -0.005 0 0
O2G 0.103 0.053 0.163 0 0 0.005
O2I 0.103 0.053 0.163 0 0 -0.005
N1CA 0.19 0.177 0.177 -0.004 0 0
C2SA 0.136 0.086 0.088 0.002 0 0
C2CA 0.136 0.088 0.086 0.002 0 0
C2T 0.136 0.086 0.088 0.002 0 0
C3SA 0.132 0.118 0.111 -0.009 0 0
C3CA 0.132 0.111 0.118 -0.009 0 0
C3T 0.132 0.118 0.111 -0.009 0 0
C4SA 0.128 0.114 0.122 0.001 0 0
C4CA 0.128 0.122 0.114 0.001 0 0
C4T 0.128 0.114 0.122 0.001 0 0
C5SA 0.126 0.111 0.116 -0.007 0 0
C5CA 0.126 0.116 0.111 -0.007 0 0
C5T 0.126 0.111 0.116 -0.007 0 0
C6SA 0.158 0.134 0.133 -0.005 0 0
C6CA 0.158 0.133 0.134 -0.005 0 0
C6T 0.158 0.134 0.133 -0.005 0 0
C7SA 0.186 0.168 0.174 -0.001 0 0
C7CA 0.186 0.174 0.168 -0.001 0 0
C7T 0.186 0.168 0.174 -0.001 0 0
C8SA 0.156 0.138 0.137 -0.011 0 0
C8CA 0.156 0.137 0.138 -0.011 0 0
C8T 0.156 0.138 0.137 -0.011 0 0
C9CA 0.182 0.173 0.173 -0.006 0 0
C10T 0.191 0.183 0.192 -0.002 -0.001 0.001
C10PD 0.191 0.192 0.183 -0.002 -0.001 0.001
C10SA 0.191 0.183 0.192 -0.002 0.001 -0.001
C10WC 0.191 0.192 0.183 -0.002 0.001 -0.001
C10MD 0.191 0.183 0.192 -0.002 0.001 -0.001
C10CA 0.191 0.192 0.183 -0.002 0.001 -0.001
C10JE 0.191 0.183 0.192 -0.002 -0.001 0.001
loop_
_geom_bond_atom_site_label_1
_geom_bond_atom_site_label_2
_geom_bond_site_symmetry_1
_geom_bond_site_symmetry_2
Cu1 O1 1_555 1_555
Cu2 O2 1_555 1_555
O1 C2 1_555 1_555
O2 C2 1_555 1_555
O3 Cu1 1_555 1_555
O4 Cu2 1_555 1_555
O5 C1 1_555 1_555
C1 H1 1_555 1_555
H2 C1 1_555 1_555
H3 C1 1_555 1_555
N1 C6 1_555 1_555
C2 C3 1_555 1_555
C3 C4 1_555 1_555
C4 H4 1_555 1_555
C5 C4 1_555 1_555
C6 C5 1_555 1_555
C7 C6 1_555 1_555
H5 C7 1_555 1_555
C8 C3 1_555 1_555
H6 C8 1_555 1_555
C9 N1 1_555 1_555
C10 O5 1_555 1_555
Cu1DA O1SA 1_555 1_555
Cu1Z O1CA 1_555 1_555
Cu1D O1T 1_555 1_555
Cu2DA O2SA 1_555 1_555
Cu2Z O2CA 1_555 1_555
Cu2D O2T 1_555 1_555
O1SA C2SA 1_555 1_555
O1CA C2CA 1_555 1_555
O1T C2T 1_555 1_555
O1H Cu1 1_555 1_555
O1G Cu1 1_555 1_555
O1I Cu1 1_555 1_555
O2SA C2SA 1_555 1_555
O2CA C2CA 1_555 1_555
O2T C2T 1_555 1_555
O2H Cu2 1_555 1_555
O2G Cu2 1_555 1_555
O2I Cu2 1_555 1_555
O5T C1T 1_555 1_555
O5PD C1PD 1_555 1_555
O5SA C1SA 1_555 1_555
O5WC C1WC 1_555 1_555
O5MD C1MD 1_555 1_555
O5CA C1CA 1_555 1_555
O5JE C1JE 1_555 1_555
C1T H1T 1_555 1_555
C1PD H1PD 1_555 1_555
C1SA H1SA 1_555 1_555
C1WC H1WC 1_555 1_555
C1MD H1MD 1_555 1_555
C1CA H1CA 1_555 1_555
C1JE H1JE 1_555 1_555
H2T C1T 1_555 1_555
H2PD C1PD 1_555 1_555
H2SA C1SA 1_555 1_555
H2WC C1WC 1_555 1_555
H2MD C1MD 1_555 1_555
H2CA C1CA 1_555 1_555
H2JE C1JE 1_555 1_555
H3T C1T 1_555 1_555
H3PD C1PD 1_555 1_555
H3SA C1SA 1_555 1_555
H3WC C1WC 1_555 1_555
H3MD C1MD 1_555 1_555
H3CA C1CA 1_555 1_555
H3JE C1JE 1_555 1_555
N1CA C6SA 1_555 1_555
C2SA C3SA 1_555 1_555
C2CA C3CA 1_555 1_555
C2T C3T 1_555 1_555
C3SA C4SA 1_555 1_555
C3CA C4CA 1_555 1_555
C3T C4T 1_555 1_555
C4SA H4SA 1_555 1_555
C4CA H4CA 1_555 1_555
C4T H4T 1_555 1_555
C5SA C4SA 1_555 1_555
C5CA C4CA 1_555 1_555
C5T C5 1_555 1_555
C6SA C5SA 1_555 1_555
C6CA N1CA 1_555 1_555
C6T N1 1_555 1_555
C7SA C6SA 1_555 1_555
C7CA C6CA 1_555 1_555
C7T C6T 1_555 1_555
H5SA C7SA 1_555 1_555
H5CA C7CA 1_555 1_555
H5T C7T 1_555 1_555
C8SA C3SA 1_555 1_555
C8CA C3CA 1_555 1_555
C8T C3T 1_555 1_555
H6SA C8SA 1_555 1_555
H6CA C8CA 1_555 1_555
H6T C8T 1_555 1_555
C9CA N1CA 1_555 1_555
C10T C9 1_555 1_555
C10PD O5PD 1_555 1_555
C10SA O5SA 1_555 1_555
C10WC C9 1_555 1_555
C10MD C9 1_555 1_555
C10CA O5CA 1_555 1_555
C10JE C10 1_555 1_555
C7 C8 1_555 1_555
C9 C10 1_555 1_555
C10 C10MD 1_555 1_555
O5T C10T 1_555 1_555
O5WC C10WC 1_555 1_555
O5MD C10MD 1_555 1_555
O5JE C10JE 1_555 1_555
C4T C5T 1_555 1_555
C5SA C5CA 1_555 1_555
C5CA C6CA 1_555 1_555
C5T C6T 1_555 1_555
C7SA C8SA 1_555 1_555
C7CA C8CA 1_555 1_555
C7T C8T 1_555 1_555
C9CA C10PD 1_555 1_555
C9CA C10SA 1_555 1_555
C9CA C10CA 1_555 1_555
C9CA C10JE 1_555 1_555
C10T C10PD 1_555 1_555
C10T C10WC 1_555 1_555
C10PD C10SA 1_555 1_555
C10SA C10WC 1_555 1_555
C10MD C10CA 1_555 1_555
C10CA C10JE 1_555 1_555

#END
