
#######################################################################
#
#                 Cambridge Crystallographic Data Centre
#                                CCDC 
#
#######################################################################
#
# If this CIF has been generated from an entry in the Cambridge 
# Structural Database, then it will include bibliographic, chemical, 
# crystal, experimental, refinement or atomic coordinate data resulting 
# from the CCDC's data processing and validation procedures.
#
#######################################################################

data_LELDUD
_chemical_name_common            PCN-81
_chemical_formula_moiety         '(C34 H20 Cu2 N2 O10)n'
_chemical_name_systematic        
"catena-((\m~8~-9,9'-benzene-1,4-diylbis(9H-carbazole-3,6-dicarboxylato))-diaqua-di-copper(ii) unknown solvate)"
_symmetry_cell_setting           cubic
_symmetry_space_group_name_H-M   'P a -3'
_symmetry_Int_Tables_number      205
_space_group_name_Hall           '-P 2ac 2ab 3'
loop_
_symmetry_equiv_pos_site_id
_symmetry_equiv_pos_as_xyz
1 x,y,z
2 z,x,y
3 y,z,x
4 1/2-y,-z,1/2+x
5 1/2+z,1/2-x,-y
6 -y,1/2+z,1/2-x
7 1/2-z,-x,1/2+y
8 -z,1/2+x,1/2-y
9 1/2+y,1/2-z,-x
10 1/2-x,-y,1/2+z
11 1/2+x,1/2-y,-z
12 -x,1/2+y,1/2-z
13 -x,-y,-z
14 -z,-x,-y
15 -y,-z,-x
16 1/2+y,z,1/2-x
17 1/2-z,1/2+x,y
18 y,1/2-z,1/2+x
19 1/2+z,x,1/2-y
20 z,1/2-x,1/2+y
21 1/2-y,1/2+z,x
22 1/2+x,y,1/2-z
23 1/2-x,1/2+y,z
24 x,1/2-y,1/2+z
_cell_length_a                   39.4840(16)
_cell_length_b                   39.4840(16)
_cell_length_c                   39.4840(16)
_cell_angle_alpha                90
_cell_angle_beta                 90
_cell_angle_gamma                90
_cell_volume                     61555
_exptl_crystal_colour            green
_exptl_crystal_description       block
_cell_formula_units_Z            24
loop_
_atom_site_label
_atom_site_type_symbol
_atom_site_fract_x
_atom_site_fract_y
_atom_site_fract_z
_atom_site_U_iso_or_equiv
_atom_site_thermal_displace_type
Cu1 Cu 0.035426(12) 0.540868(12) 0.263812(12) 0.0273 Uani
Cu2 Cu 0.025540(11) 0.529290(11) 0.328529(11) 0.0250 Uani
O1 O 0.03368(7) 0.48148(7) 0.31775(7) 0.0343 Uani
O2 O 0.03498(7) 0.49361(8) 0.25905(7) 0.0356 Uani
O3 O 0.03757(7) 0.33318(7) 0.42595(6) 0.0268 Uani
O4 O 0.03980(7) 0.27697(7) 0.41716(7) 0.0311 Uani
O5 O 0.03806(7) 0.23948(7) 0.01362(7) 0.0314 Uani
O6 O 0.02368(7) 0.18560(7) 0.02104(7) 0.0348 Uani
O7 O -0.01582(8) 0.07866(8) 0.16869(8) 0.0416 Uani
O8 O -0.03374(8) 0.08733(9) 0.22217(9) 0.0456 Uani
O9 O 0.04623(9) 0.55063(9) 0.21026(9) 0.0497 Uani
O10 O 0.01798(9) 0.51909(9) 0.38141(9) 0.0493 Uani
N1 N 0.03599(12) 0.33305(14) 0.26581(13) 0.0833 Uani
N2 N 0.01403(12) 0.23230(14) 0.16940(14) 0.0773 Uani
C1 C 0.03351(9) 0.47190(12) 0.28511(14) 0.0477 Uani
C2 C 0.03578(6) 0.41161(10) 0.30746(9) 0.0281 Uani
H1 H 0.0367 0.4192 0.3303 0.0340 Uiso
C3 C 0.03405(7) 0.43666(15) 0.28085(14) 0.0580 Uani
C4 C 0.03270(13) 0.42581(17) 0.24561(15) 0.0687 Uani
H2 H 0.0318 0.4418 0.2277 0.0820 Uiso
C5 C 0.03285(14) 0.3870(2) 0.2384(2) 0.0880 Uani
H3 H 0.0318 0.3776 0.2162 0.1060 Uiso
C6 C 0.03479(15) 0.3663(2) 0.2698(2) 0.1080 Uani
C7 C 0.03616(11) 0.37971(15) 0.30174(15) 0.0620 Uani
C8 C 0.03789(11) 0.35183(14) 0.32261(14) 0.0527 Uani
C9 C 0.03763(12) 0.32013(14) 0.30081(14) 0.0550 Uani
C10 C 0.03828(14) 0.2892(2) 0.3137(2) 0.0883 Uani
H4 H 0.0374 0.2705 0.2985 0.1060 Uiso
C11 C 0.04015(14) 0.2825(2) 0.3482(2) 0.0900 Uani
H5 H 0.0409 0.2601 0.3570 0.1080 Uiso
C12 C 0.04083(11) 0.31170(12) 0.36964(13) 0.0470 Uani
C13 C 0.03965(9) 0.34512(10) 0.35678(10) 0.0320 Uani
H6 H 0.0401 0.3635 0.3722 0.0380 Uiso
C14 C 0.04232(11) 0.30735(13) 0.40728(13) 0.0470 Uani
C15 C 0.03132(13) 0.30949(16) 0.24360(16) 0.0857 Uani
C16 C 0.0055(2) 0.3098(2) 0.22100(19) 0.1333 Uani
H7 H -0.0112 0.3271 0.2223 0.1600 Uiso
C17 C 0.0033(3) 0.2856(2) 0.1964(2) 0.1387 Uani
H8 H -0.0153 0.2875 0.1812 0.1660 Uiso
C18 C 0.02271(14) 0.26142(15) 0.19141(13) 0.0557 Uani
C19 C 0.05031(18) 0.25899(18) 0.21330(18) 0.0903 Uani
H9 H 0.0659 0.2408 0.2105 0.1090 Uiso
C20 C 0.0558(2) 0.2828(2) 0.2396(2) 0.1467 Uani
H10 H 0.0750 0.2813 0.2540 0.1760 Uiso
C21 C 0.01186(6) 0.19913(13) 0.12500(13) 0.0520 Uani
C22 C 0.01795(9) 0.2310(2) 0.1374(2) 0.0983 Uani
C23 C 0.02820(9) 0.26016(14) 0.11403(15) 0.0567 Uani
H11 H 0.0325 0.2822 0.1228 0.0680 Uiso
C24 C 0.03077(11) 0.25416(13) 0.08320(13) 0.0483 Uani
H12 H 0.0370 0.2718 0.0681 0.0580 Uiso
C25 C 0.02433(10) 0.22051(12) 0.07009(12) 0.0443 Uani
C26 C 0.01505(9) 0.19351(11) 0.09076(11) 0.0383 Uani
H13 H 0.0110 0.1717 0.0814 0.0460 Uiso
C27 C 0.02848(9) 0.21431(10) 0.03194(9) 0.0283 Uani
C28 C -0.00555(11) 0.14671(13) 0.15848(14) 0.0520 Uani
H14 H -0.0066 0.1321 0.1394 0.0620 Uiso
C29 C 0.00359(12) 0.18012(17) 0.15188(16) 0.0703 Uani
C30 C 0.00483(14) 0.2025(2) 0.1825(2) 0.0917 Uani
C31 C -0.00298(14) 0.18691(18) 0.21381(19) 0.0863 Uani
H15 H -0.0021 0.2004 0.2337 0.1040 Uiso
C32 C -0.01096(11) 0.15622(13) 0.21676(13) 0.0490 Uani
H16 H -0.0159 0.1480 0.2388 0.0590 Uiso
C33 C -0.01312(10) 0.13237(11) 0.18860(11) 0.0370 Uani
C34 C -0.02162(11) 0.09916(13) 0.19289(12) 0.0450 Uani
Cu1O Cu 0.040868(12) 0.263812(12) 0.464574(12) 0.0273 Uani
Cu1H Cu 0.040868(12) 0.236188(12) -0.035426(12) 0.0273 Uani
Cu1K Cu -0.035426(12) 0.040868(12) 0.236188(12) 0.0273 Uani
Cu2O Cu 0.029290(11) 0.328529(11) 0.474460(11) 0.0250 Uani
Cu2H Cu 0.029290(11) 0.171471(11) -0.025540(11) 0.0250 Uani
Cu2K Cu -0.025540(11) 0.029290(11) 0.171471(11) 0.0250 Uani
O3P O 0.07405(6) 0.53757(7) 0.33318(7) 0.0268 Uani
O4P O 0.08284(7) 0.53980(7) 0.27697(7) 0.0311 Uani
O5G O -0.01362(7) 0.53806(7) 0.26052(7) 0.0314 Uani
O6G O -0.02104(7) 0.52368(7) 0.31440(7) 0.0348 Uani
O7K O 0.01582(8) 0.57866(8) 0.33131(8) 0.0416 Uani
O8K O 0.03374(8) 0.58733(9) 0.27783(9) 0.0456 Uani
loop_
_atom_site_aniso_label
_atom_site_aniso_U_11
_atom_site_aniso_U_22
_atom_site_aniso_U_33
_atom_site_aniso_U_23
_atom_site_aniso_U_13
_atom_site_aniso_U_12
Cu1 0.0269(3) 0.0289(3) 0.0262(3) 0.00007(18) 0.00009(18) 0.00052(18)
Cu2 0.0247(3) 0.0254(3) 0.0248(3) 0.00003(17) -0.00004(17) -0.00031(17)
O1 0.0316(15) 0.0375(16) 0.0338(16) -0.0077(12) -0.0062(12) 0.0042(12)
O2 0.0401(17) 0.0356(16) 0.0312(15) -0.0003(12) 0.0004(12) 0.0006(12)
O3 0.0291(14) 0.0276(14) 0.0237(13) 0.0033(10) 0.0016(10) -0.0019(10)
O4 0.0364(16) 0.0273(14) 0.0297(15) 0.0008(11) -0.0003(12) -0.0016(11)
O5 0.0370(16) 0.0250(14) 0.0321(15) -0.0032(11) -0.0062(12) -0.0001(11)
O6 0.0357(16) 0.0332(16) 0.0356(16) -0.0037(12) -0.0033(12) 0.0040(12)
O7 0.0419(18) 0.0415(18) 0.0414(18) -0.0030(14) 0.0042(14) -0.0037(14)
O8 0.0461(19) 0.0475(19) 0.0433(19) 0.0003(15) 0.0026(14) 0.0020(15)
O9 0.052(2) 0.050(2) 0.047(2) 0.0016(16) 0.0024(16) -0.0039(16)
O10 0.049(2) 0.052(2) 0.047(2) 0.0001(16) 0.0021(15) 0.0057(16)
N1 0.119(5) 0.064(4) 0.067(4) -0.006(3) -0.011(3) 0.001(3)
N2 0.104(5) 0.070(4) 0.058(3) -0.007(3) 0.006(3) -0.011(3)
C1 0.050(3) 0.038(3) 0.055(3) 0.002(2) 0.008(2) 0.004(2)
C2 0.034(2) 0.032(2) 0.0182(17) -0.0018(14) -0.0017(14) 0.0011(16)
C3 0.071(4) 0.053(3) 0.050(3) -0.015(2) 0.000(3) -0.001(3)
C4 0.091(5) 0.069(4) 0.046(3) 0.004(3) -0.002(3) -0.014(3)
C5 0.109(6) 0.080(5) 0.075(5) -0.009(4) -0.014(4) 0.010(4)
C6 0.165(9) 0.071(5) 0.088(6) -0.009(4) -0.011(6) -0.009(5)
C7 0.076(4) 0.054(3) 0.056(3) -0.004(3) 0.002(3) 0.001(3)
C8 0.062(3) 0.047(3) 0.049(3) -0.003(2) -0.004(2) -0.004(2)
C9 0.072(4) 0.046(3) 0.047(3) -0.002(2) 0.011(3) -0.008(3)
C10 0.103(6) 0.090(6) 0.072(5) -0.017(4) -0.003(4) -0.010(4)
C11 0.115(6) 0.079(5) 0.076(5) 0.001(4) 0.001(4) -0.007(4)
C12 0.054(3) 0.039(3) 0.048(3) -0.004(2) -0.001(2) -0.001(2)
C13 0.036(2) 0.027(2) 0.033(2) -0.0026(16) -0.0019(17) 0.0016(16)
C14 0.047(3) 0.049(3) 0.045(3) 0.002(2) 0.002(2) 0.001(2)
C15 0.113(6) 0.053(4) 0.091(6) 0.005(4) -0.021(5) 0.008(4)
C16 0.173(11) 0.126(9) 0.101(7) -0.026(6) -0.012(7) 0.036(8)
C17 0.176(11) 0.139(10) 0.101(8) 0.003(7) -0.015(7) 0.031(9)
C18 0.059(3) 0.062(4) 0.046(3) -0.001(3) -0.003(2) -0.013(3)
C19 0.092(6) 0.078(5) 0.101(6) -0.016(4) 0.009(5) 0.007(4)
C20 0.118(9) 0.218(14) 0.104(8) -0.027(8) -0.008(6) -0.047(9)
C21 0.057(3) 0.054(3) 0.045(3) 0.003(2) 0.001(2) -0.005(2)
C22 0.119(7) 0.075(5) 0.101(7) 0.002(4) -0.005(5) 0.003(4)
C23 0.066(4) 0.047(3) 0.057(3) -0.004(2) 0.000(3) -0.005(2)
C24 0.060(3) 0.041(3) 0.044(3) 0.011(2) 0.002(2) 0.003(2)
C25 0.049(3) 0.043(3) 0.041(3) -0.005(2) 0.001(2) -0.007(2)
C26 0.039(2) 0.037(2) 0.039(2) -0.0084(18) -0.0048(18) -0.0023(18)
C27 0.0256(19) 0.035(2) 0.0244(19) -0.0008(15) 0.0023(14) -0.0053(15)
C28 0.054(3) 0.044(3) 0.058(3) -0.011(2) -0.004(2) 0.006(2)
C29 0.085(5) 0.071(4) 0.055(4) -0.002(3) 0.003(3) -0.010(3)
C30 0.107(6) 0.096(6) 0.072(5) -0.002(4) 0.007(4) -0.028(5)
C31 0.116(6) 0.075(5) 0.068(4) -0.002(4) 0.008(4) -0.004(4)
C32 0.060(3) 0.043(3) 0.044(3) -0.001(2) 0.001(2) -0.001(2)
C33 0.042(2) 0.036(2) 0.033(2) -0.0035(17) 0.0023(18) -0.0042(18)
C34 0.042(3) 0.049(3) 0.044(3) 0.001(2) -0.002(2) 0.011(2)
Cu1O 0.0289 0.0262 0.0269 -9e-05 -0.00052 7e-05
Cu1H 0.0289 0.0262 0.0269 9e-05 -0.00052 -7e-05
Cu1K 0.0269 0.0289 0.0262 -7e-05 9e-05 -0.00052
Cu2O 0.0254 0.0248 0.0247 4e-05 0.00031 3e-05
Cu2H 0.0254 0.0248 0.0247 -4e-05 0.00031 -3e-05
Cu2K 0.0247 0.0254 0.0248 -3e-05 -4e-05 0.00031
O3P 0.0237 0.0291 0.0276 -0.0019 -0.0033 -0.0016
O4P 0.0297 0.0364 0.0273 -0.0016 -0.0008 0.0003
O5G 0.0321 0.037 0.025 0.0001 -0.0032 0.0062
O6G 0.0356 0.0357 0.0332 -0.004 -0.0037 0.0033
O7K 0.0419 0.0415 0.0414 0.003 0.0042 0.0037
O8K 0.0461 0.0475 0.0433 -0.0003 0.0026 -0.002
loop_
_geom_bond_atom_site_label_1
_geom_bond_atom_site_label_2
_geom_bond_site_symmetry_1
_geom_bond_site_symmetry_2
Cu1 O2 1_555 1_555
Cu2 O1 1_555 1_555
O1 C1 1_555 1_555
O2 C1 1_555 1_555
O3 C14 1_555 1_555
O4 C14 1_555 1_555
O5 C27 1_555 1_555
O6 C27 1_555 1_555
O7 C34 1_555 1_555
O8 C34 1_555 1_555
O9 Cu1 1_555 1_555
O10 Cu2 1_555 1_555
N1 C6 1_555 1_555
N2 C18 1_555 1_555
C1 C3 1_555 1_555
C2 H1 1_555 1_555
C3 C2 1_555 1_555
C4 C3 1_555 1_555
H2 C4 1_555 1_555
C5 C4 1_555 1_555
H3 C5 1_555 1_555
C6 C5 1_555 1_555
C7 C2 1_555 1_555
C8 C7 1_555 1_555
C9 N1 1_555 1_555
C10 C9 1_555 1_555
H4 C10 1_555 1_555
C11 C10 1_555 1_555
H5 C11 1_555 1_555
C12 C11 1_555 1_555
C13 C8 1_555 1_555
H6 C13 1_555 1_555
C14 C12 1_555 1_555
C15 N1 1_555 1_555
C16 C15 1_555 1_555
H7 C16 1_555 1_555
C17 C16 1_555 1_555
H8 C17 1_555 1_555
C18 C17 1_555 1_555
C19 C18 1_555 1_555
H9 C19 1_555 1_555
C20 C15 1_555 1_555
H10 C20 1_555 1_555
C21 C22 1_555 1_555
C22 N2 1_555 1_555
C23 C22 1_555 1_555
H11 C23 1_555 1_555
C24 C23 1_555 1_555
H12 C24 1_555 1_555
C25 C24 1_555 1_555
C26 C21 1_555 1_555
H13 C26 1_555 1_555
C27 C25 1_555 1_555
C28 H14 1_555 1_555
C29 C21 1_555 1_555
C30 N2 1_555 1_555
C31 C30 1_555 1_555
H15 C31 1_555 1_555
C32 C31 1_555 1_555
H16 C32 1_555 1_555
C33 C28 1_555 1_555
C34 C33 1_555 1_555
Cu1O O4 1_555 1_555
Cu1H O5 1_555 1_555
Cu1K O8 1_555 1_555
Cu2O O3 1_555 1_555
Cu2H O6 1_555 1_555
Cu2K O7 1_555 1_555
O3P Cu2 1_555 1_555
O4P Cu1 1_555 1_555
O5G Cu1 1_555 1_555
O6G Cu2 1_555 1_555
O7K Cu2 1_555 1_555
O8K Cu1 1_555 1_555
C6 C7 1_555 1_555
C8 C9 1_555 1_555
C12 C13 1_555 1_555
C19 C20 1_555 1_555
C25 C26 1_555 1_555
C28 C29 1_555 1_555
C29 C30 1_555 1_555
C32 C33 1_555 1_555

#END
