
#######################################################################
#
#                 Cambridge Crystallographic Data Centre
#                                CCDC 
#
#######################################################################
#
# If this CIF has been generated from an entry in the Cambridge 
# Structural Database, then it will include bibliographic, chemical, 
# crystal, experimental, refinement or atomic coordinate data resulting 
# from the CCDC's data processing and validation procedures.
#
#######################################################################

data_FECZEU
_chemical_formula_moiety         '(C30 H38 N4 O6 Zn1)n,2n(C1 H4 O1)'
_chemical_name_systematic        
'catena-(bis(\m~2~-(1R,3S)-1,2,2-Trimethyl-3-(pyridin-4-ylcarbamoyl)cyclopentanecarboxylato)-zinc methanol solvate)'
_symmetry_cell_setting           tetragonal
_symmetry_space_group_name_H-M   'P 43 21 2'
_symmetry_Int_Tables_number      96
_space_group_name_Hall           'P 4nw 2abw'
loop_
_symmetry_equiv_pos_site_id
_symmetry_equiv_pos_as_xyz
1 x,y,z
2 1/2-y,1/2+x,3/4+z
3 -x,-y,1/2+z
4 1/2+y,1/2-x,1/4+z
5 1/2+x,1/2-y,1/4-z
6 y,x,-z
7 1/2-x,1/2+y,3/4-z
8 -y,-x,1/2-z
_cell_length_a                   14.3035(3)
_cell_length_b                   14.3035(3)
_cell_length_c                   15.9627(6)
_cell_angle_alpha                90
_cell_angle_beta                 90
_cell_angle_gamma                90
_cell_volume                     3265.81
_exptl_crystal_colour            colorless
_exptl_crystal_description       block
_cell_formula_units_Z            4
loop_
_atom_site_label
_atom_site_type_symbol
_atom_site_fract_x
_atom_site_fract_y
_atom_site_fract_z
_atom_site_U_iso_or_equiv
_atom_site_thermal_displace_type
Zn1 Zn -0.00291(4) 0.00291(4) 0.2500 0.0262 Uani
O1 O 0.0130(2) 0.3567(2) 0.33552(19) 0.0234 Uani
O2 O 0.3148(3) 0.5212(4) 0.5274(2) 0.0553 Uani
O3 O 0.4074(2) 0.5217(3) 0.4165(2) 0.0313 Uani
N1 N -0.0011(3) 0.1248(3) 0.1808(2) 0.0223 Uani
N2 N 0.0764(3) 0.3687(3) 0.2057(2) 0.0188 Uani
H2 H 0.1088 0.4044 0.1735 0.0230 Uiso
C1 C -0.0114(4) 0.1210(3) 0.0972(3) 0.0267 Uani
H3 H -0.0305 0.0651 0.0728 0.0320 Uiso
C2 C 0.0054(4) 0.1969(4) 0.0468(3) 0.0323 Uani
H4 H -0.0008 0.1916 -0.0110 0.0390 Uiso
C3 C 0.0316(4) 0.2812(4) 0.0820(3) 0.0263 Uani
H5 H 0.0418 0.3336 0.0487 0.0320 Uiso
C4 C 0.0426(3) 0.2856(3) 0.1698(3) 0.0187 Uani
C5 C 0.0242(3) 0.2061(3) 0.2159(3) 0.0190 Uani
H6 H 0.0295 0.2090 0.2739 0.0220 Uiso
C6 C 0.0635(3) 0.3991(3) 0.2862(3) 0.0173 Uani
C7 C 0.1189(3) 0.4851(3) 0.3078(3) 0.0213 Uani
H7 H 0.1232 0.5242 0.2575 0.0250 Uiso
C8 C 0.0760(4) 0.5439(4) 0.3781(3) 0.0260 Uani
H8 H 0.0619 0.6063 0.3581 0.0310 Uiso
H9 H 0.0186 0.5154 0.3979 0.0310 Uiso
C9 C 0.1480(7) 0.5480(8) 0.4485(6) 0.0227 Uani
H10 H 0.1443 0.4938 0.4849 0.0270 Uiso
H11 H 0.1420 0.6046 0.4815 0.0270 Uiso
C10 C 0.2454(4) 0.5479(4) 0.3912(3) 0.0300 Uani
C11 C 0.2217(3) 0.4620(3) 0.3381(3) 0.0233 Uani
C12 C 0.2333(7) 0.3685(6) 0.3693(7) 0.0257 Uani
H12 H 0.2136 0.3246 0.3274 0.0380 Uiso
H13 H 0.1961 0.3604 0.4188 0.0380 Uiso
H14 H 0.2979 0.3579 0.3826 0.0380 Uiso
C13 C 0.2865(7) 0.4742(8) 0.2570(7) 0.0320 Uani
H15 H 0.3510 0.4758 0.2738 0.0480 Uiso
H16 H 0.2709 0.5316 0.2291 0.0480 Uiso
H17 H 0.2766 0.4227 0.2196 0.0480 Uiso
C14 C 0.2626(7) 0.6421(6) 0.3627(6) 0.0280 Uani
H18 H 0.3207 0.6440 0.3326 0.0420 Uiso
H19 H 0.2660 0.6833 0.4101 0.0420 Uiso
H20 H 0.2127 0.6615 0.3265 0.0420 Uiso
C15 C 0.3262(4) 0.5285(4) 0.4510(4) 0.0327 Uani
Zn1C Zn 0.50291(4) 0.50291(4) 0.5000 0.0262 Uani
Zn1A Zn -0.50291(4) -0.50291(4) 0.0000 0.0262 Uani
O1G O -0.3567(2) -0.0130(2) 0.16448(19) 0.0234 Uani
O2G O -0.5212(4) -0.3148(3) -0.0274(2) 0.0553 Uani
O3F O 0.0926(2) 0.0217(3) 0.3335(2) 0.0313 Uani
O3A O -0.0217(3) -0.0926(2) 0.1665(2) 0.0313 Uani
O3G O -0.5217(3) -0.4074(2) 0.0835(2) 0.0313 Uani
N1G N -0.1248(3) 0.0011(3) 0.3192(2) 0.0223 Uani
N2G N -0.3687(3) -0.0764(3) 0.2943(2) 0.0188 Uani
H2G H -0.4044 -0.1088 0.3265 0.0230 Uiso
C1G C -0.1210(3) 0.0114(4) 0.4028(3) 0.0267 Uani
H3G H -0.0651 0.0305 0.4272 0.0320 Uiso
C2G C -0.1969(4) -0.0054(4) 0.4532(3) 0.0323 Uani
H4G H -0.1916 0.0008 0.5110 0.0390 Uiso
C3G C -0.2812(4) -0.0316(4) 0.4180(3) 0.0263 Uani
H5G H -0.3336 -0.0418 0.4513 0.0320 Uiso
C4G C -0.2856(3) -0.0426(3) 0.3302(3) 0.0187 Uani
C5G C -0.2061(3) -0.0242(3) 0.2841(3) 0.0190 Uani
H6G H -0.2090 -0.0295 0.2261 0.0220 Uiso
C6G C -0.3991(3) -0.0635(3) 0.2138(3) 0.0173 Uani
C7G C -0.4851(3) -0.1189(3) 0.1922(3) 0.0213 Uani
H7G H -0.5242 -0.1232 0.2425 0.0250 Uiso
C8G C -0.5439(4) -0.0760(4) 0.1219(3) 0.0260 Uani
H8G H -0.6063 -0.0619 0.1419 0.0310 Uiso
H9G H -0.5154 -0.0186 0.1021 0.0310 Uiso
C9G C -0.5480(8) -0.1480(7) 0.0515(6) 0.0227 Uani
H10G H -0.4938 -0.1443 0.0151 0.0270 Uiso
H11G H -0.6046 -0.1420 0.0185 0.0270 Uiso
C10G C -0.5479(4) -0.2454(4) 0.1088(3) 0.0300 Uani
C11G C -0.4620(3) -0.2217(3) 0.1619(3) 0.0233 Uani
C12G C -0.3685(6) -0.2333(7) 0.1307(7) 0.0257 Uani
H12G H -0.3246 -0.2136 0.1726 0.0380 Uiso
H13G H -0.3604 -0.1961 0.0812 0.0380 Uiso
H14G H -0.3579 -0.2979 0.1174 0.0380 Uiso
C13G C -0.4742(8) -0.2865(7) 0.2430(7) 0.0320 Uani
H15G H -0.4758 -0.3510 0.2262 0.0480 Uiso
H16G H -0.5316 -0.2709 0.2709 0.0480 Uiso
H17G H -0.4227 -0.2766 0.2804 0.0480 Uiso
C14G C -0.6421(6) -0.2626(7) 0.1373(6) 0.0280 Uani
H18G H -0.6440 -0.3207 0.1674 0.0420 Uiso
H19G H -0.6833 -0.2660 0.0899 0.0420 Uiso
H20G H -0.6615 -0.2127 0.1735 0.0420 Uiso
C15G C -0.5285(4) -0.3262(4) 0.0490(4) 0.0327 Uani
O4 O 0.3073(4) 0.1055(4) 0.1059(3) 0.0593 Uani
H1 H 0.2831 0.0800 0.1465 0.0890 Uiso
C16 C 0.2824(5) 0.2010(6) 0.1048(5) 0.0673 Uani
H21 H 0.3186 0.2330 0.0631 0.1010 Uiso
H22 H 0.2944 0.2281 0.1587 0.1010 Uiso
H23 H 0.2171 0.2068 0.0918 0.1010 Uiso
C17? C 0.2139(9) 0.3873(8) 0.4155(8) 0.0257 Uani
C18? C 0.2853(8) 0.4164(10) 0.2771(7) 0.0320 Uani
C19? C 0.2861(9) 0.6155(8) 0.3142(7) 0.0280 Uani
C20? C 0.1587(8) 0.5919(9) 0.4184(7) 0.0227 Uani
H24? H 0.1735 0.3368 0.3996 0.0380 Uiso
H25? H 0.2749 0.3632 0.4283 0.0380 Uiso
H26? H 0.1888 0.4182 0.4639 0.0380 Uiso
H27? H 0.2653 0.3532 0.2677 0.0480 Uiso
H28? H 0.2840 0.4502 0.2251 0.0480 Uiso
H29? H 0.3479 0.4163 0.2990 0.0480 Uiso
H30? H 0.2373 0.6268 0.2743 0.0420 Uiso
H31? H 0.3374 0.5846 0.2871 0.0420 Uiso
H32? H 0.3071 0.6739 0.3371 0.0420 Uiso
H33? H 0.0437 0.5045 0.4182 0.0310 Uiso
H34? H 0.0323 0.5893 0.3557 0.0310 Uiso
H35? H 0.1535 0.5879 0.4789 0.0270 Uiso
H36? H 0.1592 0.6575 0.4029 0.0270 Uiso
loop_
_atom_site_aniso_label
_atom_site_aniso_U_11
_atom_site_aniso_U_22
_atom_site_aniso_U_33
_atom_site_aniso_U_23
_atom_site_aniso_U_13
_atom_site_aniso_U_12
Zn1 0.0251(2) 0.0251(2) 0.0285(4) 0.0000(2) 0.0000(2) 0.0008(4)
O1 0.0200(18) 0.0286(18) 0.0216(15) -0.0039(14) 0.0026(15) -0.0019(15)
O2 0.029(2) 0.105(4) 0.032(2) -0.017(2) -0.0089(17) -0.011(3)
O3 0.0210(18) 0.039(2) 0.0338(19) -0.0065(17) -0.0064(15) -0.0014(16)
N1 0.016(2) 0.024(2) 0.027(2) 0.0007(16) 0.0012(19) -0.0019(19)
N2 0.022(2) 0.019(2) 0.0154(18) -0.0002(16) 0.0027(16) -0.0048(17)
C1 0.026(3) 0.026(2) 0.028(2) -0.0062(19) -0.007(2) -0.007(2)
C2 0.039(3) 0.038(3) 0.020(2) 0.001(2) -0.006(3) -0.012(3)
C3 0.027(3) 0.029(3) 0.023(3) 0.003(2) 0.000(2) -0.007(2)
C4 0.011(2) 0.024(2) 0.021(2) 0.0008(19) 0.0016(19) 0.0001(18)
C5 0.011(2) 0.026(2) 0.020(2) 0.0007(19) 0.0018(18) -0.0010(18)
C6 0.016(2) 0.017(2) 0.019(2) 0.0026(19) 0.0010(18) 0.0031(18)
C7 0.025(2) 0.022(3) 0.017(2) -0.0003(19) -0.0017(18) 0.002(2)
C8 0.024(3) 0.025(3) 0.029(3) -0.008(2) -0.001(2) 0.002(2)
C9 0.021(4) 0.032(5) 0.015(5) -0.005(3) 0.007(3) -0.004(4)
C10 0.026(3) 0.024(3) 0.040(3) -0.006(2) -0.012(2) -0.001(2)
C11 0.020(3) 0.023(3) 0.027(3) -0.007(2) 0.001(2) -0.002(2)
C12 0.019(4) 0.015(4) 0.043(6) -0.004(4) -0.011(4) 0.004(3)
C13 0.020(3) 0.044(6) 0.032(4) -0.008(5) 0.010(3) -0.011(4)
C14 0.035(5) 0.017(4) 0.032(5) 0.002(3) -0.002(4) -0.007(3)
C15 0.028(3) 0.026(3) 0.044(3) -0.013(2) -0.005(2) -0.002(2)
Zn1C 0.0251 0.0251 0.0285 0 0 -0.0008
Zn1A 0.0251 0.0251 0.0285 0 0 -0.0008
O1G 0.0286 0.02 0.0216 0.0026 -0.0039 -0.0019
O2G 0.105 0.029 0.032 -0.0089 -0.017 -0.011
O3F 0.021 0.039 0.0338 0.0065 -0.0064 0.0014
O3A 0.039 0.021 0.0338 -0.0064 0.0065 0.0014
O3G 0.039 0.021 0.0338 -0.0064 -0.0065 -0.0014
N1G 0.024 0.016 0.027 0.0012 0.0007 -0.0019
N2G 0.019 0.022 0.0154 0.0027 -0.0002 -0.0048
C1G 0.026 0.026 0.028 -0.007 -0.0062 -0.007
C2G 0.038 0.039 0.02 -0.006 0.001 -0.012
C3G 0.029 0.027 0.023 0 0.003 -0.007
C4G 0.024 0.011 0.021 0.0016 0.0008 0.0001
C5G 0.026 0.011 0.02 0.0018 0.0007 -0.001
C6G 0.017 0.016 0.019 0.001 0.0026 0.0031
C7G 0.022 0.025 0.017 -0.0017 -0.0003 0.002
C8G 0.025 0.024 0.029 -0.001 -0.008 0.002
C9G 0.032 0.021 0.015 0.007 -0.005 -0.004
C10G 0.024 0.026 0.04 -0.012 -0.006 -0.001
C11G 0.023 0.02 0.027 0.001 -0.007 -0.002
C12G 0.015 0.019 0.043 -0.011 -0.004 0.004
C13G 0.044 0.02 0.032 0.01 -0.008 -0.011
C14G 0.017 0.035 0.032 -0.002 0.002 -0.007
C15G 0.026 0.028 0.044 -0.005 -0.013 -0.002
O4 0.074(4) 0.067(3) 0.037(3) 0.003(2) 0.004(2) 0.008(3)
C16 0.041(4) 0.071(6) 0.090(6) 0.012(5) 0.003(4) 0.020(4)
C17? 0.019(4) 0.015(4) 0.043(6) -0.004(4) -0.011(4) 0.004(3)
C18? 0.020(3) 0.044(6) 0.032(4) -0.008(5) 0.010(3) -0.011(4)
C19? 0.035(5) 0.017(4) 0.032(5) 0.002(3) -0.002(4) -0.007(3)
C20? 0.021(4) 0.032(5) 0.015(5) -0.005(3) 0.007(3) -0.004(4)
loop_
_geom_bond_atom_site_label_1
_geom_bond_atom_site_label_2
_geom_bond_site_symmetry_1
_geom_bond_site_symmetry_2
Zn1 N1 1_555 1_555
O1 C6 1_555 1_555
O2 C15 1_555 1_555
O3 C15 1_555 1_555
O4 H1 1_555 1_555
N1 C1 1_555 1_555
N2 H2 1_555 1_555
C1 H3 1_555 1_555
C2 C1 1_555 1_555
H4 C2 1_555 1_555
C3 C2 1_555 1_555
H5 C3 1_555 1_555
C4 N2 1_555 1_555
C5 N1 1_555 1_555
H6 C5 1_555 1_555
C6 N2 1_555 1_555
C7 C6 1_555 1_555
H7 C7 1_555 1_555
C8 C7 1_555 1_555
H8 C8 1_555 1_555
H9 C8 1_555 1_555
C9 C8 1_555 1_555
H10 C9 1_555 1_555
H11 C9 1_555 1_555
C10 C9 1_555 1_555
C11 C7 1_555 1_555
C12 C11 1_555 1_555
H12 C12 1_555 1_555
H13 C12 1_555 1_555
H14 C12 1_555 1_555
C13 C11 1_555 1_555
H15 C13 1_555 1_555
H16 C13 1_555 1_555
H17 C13 1_555 1_555
C14 C10 1_555 1_555
H18 C14 1_555 1_555
H19 C14 1_555 1_555
H20 C14 1_555 1_555
C15 C10 1_555 1_555
C16 O4 1_555 1_555
H21 C16 1_555 1_555
H22 C16 1_555 1_555
H23 C16 1_555 1_555
Zn1C O3 1_555 1_555
Zn1A O3G 1_555 1_555
O1G C6G 1_555 1_555
O2G C15G 1_555 1_555
O3F Zn1 1_555 1_555
O3A Zn1 1_555 1_555
O3G C15G 1_555 1_555
N1G Zn1 1_555 1_555
N2G H2G 1_555 1_555
C1G N1G 1_555 1_555
H3G C1G 1_555 1_555
C2G C1G 1_555 1_555
H4G C2G 1_555 1_555
C3G C2G 1_555 1_555
H5G C3G 1_555 1_555
C4G N2G 1_555 1_555
C5G N1G 1_555 1_555
H6G C5G 1_555 1_555
C6G N2G 1_555 1_555
C7G C6G 1_555 1_555
H7G C7G 1_555 1_555
C8G C7G 1_555 1_555
H8G C8G 1_555 1_555
H9G C8G 1_555 1_555
C9G C8G 1_555 1_555
H10G C9G 1_555 1_555
H11G C9G 1_555 1_555
C10G C9G 1_555 1_555
C11G C7G 1_555 1_555
C12G C11G 1_555 1_555
H12G C12G 1_555 1_555
H13G C12G 1_555 1_555
H14G C12G 1_555 1_555
C13G C11G 1_555 1_555
H15G C13G 1_555 1_555
H16G C13G 1_555 1_555
H17G C13G 1_555 1_555
C14G C10G 1_555 1_555
H18G C14G 1_555 1_555
H19G C14G 1_555 1_555
H20G C14G 1_555 1_555
C15G C10G 1_555 1_555
C3 C4 1_555 1_555
C4 C5 1_555 1_555
C10 C11 1_555 1_555
C3G C4G 1_555 1_555
C4G C5G 1_555 1_555
C10G C11G 1_555 1_555

#END
