
#######################################################################
#
#                 Cambridge Crystallographic Data Centre
#                                CCDC 
#
#######################################################################
#
# If this CIF has been generated from an entry in the Cambridge 
# Structural Database, then it will include bibliographic, chemical, 
# crystal, experimental, refinement or atomic coordinate data resulting 
# from the CCDC's data processing and validation procedures.
#
#######################################################################

data_FECZIY
_chemical_formula_moiety         '(C30 H38 N4 O6 Zn1)n'
_chemical_name_systematic        
catena-(bis(\m~2~-(1R,3S)-1,2,2-Trimethyl-3-(pyridin-4-ylcarbamoyl)cyclopentanecarboxylato)-zinc)
_symmetry_cell_setting           tetragonal
_symmetry_space_group_name_H-M   'P 43 21 2'
_symmetry_Int_Tables_number      96
_space_group_name_Hall           'P 4nw 2abw'
loop_
_symmetry_equiv_pos_site_id
_symmetry_equiv_pos_as_xyz
1 x,y,z
2 1/2-y,1/2+x,3/4+z
3 -x,-y,1/2+z
4 1/2+y,1/2-x,1/4+z
5 1/2-x,1/2+y,3/4-z
6 -y,-x,1/2-z
7 1/2+x,1/2-y,1/4-z
8 y,x,-z
_cell_length_a                   14.4835(12)
_cell_length_b                   14.4835(12)
_cell_length_c                   15.4118(16)
_cell_angle_alpha                90
_cell_angle_beta                 90
_cell_angle_gamma                90
_cell_volume                     3232.96
_cell_formula_units_Z            4
loop_
_atom_site_label
_atom_site_type_symbol
_atom_site_fract_x
_atom_site_fract_y
_atom_site_fract_z
_atom_site_U_iso_or_equiv
_atom_site_thermal_displace_type
O1 O 0.0186(5) 0.3635(8) 0.3463(6) 0.0220 Uiso
O2 O 0.3241(9) 0.5261(8) 0.5342(5) 0.0320 Uiso
O3 O 0.4156(5) 0.5247(7) 0.4225(7) 0.0370 Uiso
N1 N 0.0003(7) 0.1306(6) 0.1933(7) 0.0370 Uiso
N2 N 0.0808(4) 0.3738(5) 0.2158(4) 0.0270 Uiso
H1 H 0.1132(6) 0.4089(6) 0.1831(4) 0.0230 Uiso
C1 C -0.0109(5) 0.1263(8) 0.1098(7) 0.0260 Uiso
H2 H -0.0309(6) 0.0705(8) 0.0860(8) 0.0320 Uiso
C2 C 0.0062(6) 0.2016(9) 0.0587(5) 0.0320 Uiso
H3 H -0.0006(8) 0.1960(11) 0.0010(5) 0.0390 Uiso
C3 C 0.0337(6) 0.2859(8) 0.0931(4) 0.0260 Uiso
H4 H 0.0441(9) 0.3379(10) 0.0594(4) 0.0320 Uiso
C4 C 0.0457(4) 0.2908(6) 0.1808(4) 0.0180 Uiso
C5 C 0.0269(5) 0.2119(6) 0.2276(5) 0.0190 Uiso
H5 H 0.0328(7) 0.2152(6) 0.2855(5) 0.0220 Uiso
C6 C 0.0690(4) 0.4050(6) 0.2962(5) 0.0170 Uiso
C7 C 0.1256(5) 0.4905(5) 0.3167(6) 0.0210 Uiso
H6 H 0.1298(7) 0.5292(5) 0.2661(7) 0.0250 Uiso
C8 C 0.0841(5) 0.5503(8) 0.3870(10) 0.0260 Uiso
H7 H 0.0407(7) 0.5960(8) 0.3647(13) 0.0310 Uiso
H8 H 0.0518(6) 0.5116(10) 0.4276(9) 0.0310 Uiso
C9 C 0.2536(5) 0.5525(5) 0.3985(5) 0.0300 Uiso
C10 C 0.2284(4) 0.4665(4) 0.3462(4) 0.0230 Uiso
C11 C 0.2393(6) 0.3731(5) 0.3779(5) 0.0270 Uiso
H9 H 0.2187(6) 0.3291(4) 0.3365(6) 0.0380 Uiso
H10 H 0.2025(8) 0.3658(6) 0.4278(4) 0.0380 Uiso
H11 H 0.3039(7) 0.3619(5) 0.3907(8) 0.0380 Uiso
C12 C 0.2925(6) 0.4774(8) 0.2645(4) 0.0320 Uiso
H12 H 0.3572(5) 0.4784(9) 0.2807(6) 0.0480 Uiso
H13 H 0.2772(8) 0.5347(8) 0.2363(4) 0.0480 Uiso
H14 H 0.2816(5) 0.4257(9) 0.2275(5) 0.0480 Uiso
C13 C 0.2716(8) 0.6463(5) 0.3692(7) 0.0280 Uiso
H15 H 0.3294(9) 0.6473(6) 0.3386(6) 0.0420 Uiso
H16 H 0.2759(8) 0.6878(5) 0.4163(9) 0.0420 Uiso
H17 H 0.2215(10) 0.6660(4) 0.3333(10) 0.0420 Uiso
C14 C 0.3348(6) 0.5327(6) 0.4577(5) 0.0320 Uiso
C15 C 0.1677(6) 0.5977(7) 0.4262(9) 0.0230 Uiso
H18 H 0.1688(8) 0.6631(6) 0.4102(11) 0.0270 Uiso
H19 H 0.1631(7) 0.5942(9) 0.4868(9) 0.0270 Uiso
Zn1 Zn -0.0132(5) 0.0132(5) 0.25000 0.0320 Uiso
O1E O -0.3635(8) -0.0186(5) 0.1537(6) 0.0220 Uiso
O2E O -0.5261(8) -0.3241(9) -0.0342(5) 0.0320 Uiso
O3E O -0.5247(7) -0.4156(5) 0.0775(7) 0.0370 Uiso
O3A O -0.0247(7) -0.0844(5) 0.1725(7) 0.0370 Uiso
O3D O 0.0844(5) 0.0247(7) 0.3275(7) 0.0370 Uiso
N1E N -0.1306(6) -0.0003(7) 0.3067(7) 0.0370 Uiso
N2E N -0.3738(5) -0.0808(4) 0.2842(4) 0.0270 Uiso
H1E H -0.4089(6) -0.1132(6) 0.3169(4) 0.0230 Uiso
C1E C -0.1263(8) 0.0109(5) 0.3902(7) 0.0260 Uiso
H2E H -0.0705(8) 0.0309(6) 0.4140(8) 0.0320 Uiso
C2E C -0.2016(9) -0.0062(6) 0.4413(5) 0.0320 Uiso
H3E H -0.1960(11) 0.0006(8) 0.4990(5) 0.0390 Uiso
C3E C -0.2859(8) -0.0337(6) 0.4069(4) 0.0260 Uiso
H4E H -0.3379(10) -0.0441(9) 0.4406(4) 0.0320 Uiso
C4E C -0.2908(6) -0.0457(4) 0.3192(4) 0.0180 Uiso
C5E C -0.2119(6) -0.0269(5) 0.2724(5) 0.0190 Uiso
H5E H -0.2152(6) -0.0328(7) 0.2145(5) 0.0220 Uiso
C6E C -0.4050(6) -0.0690(4) 0.2038(5) 0.0170 Uiso
C7E C -0.4905(5) -0.1256(5) 0.1833(6) 0.0210 Uiso
H6E H -0.5292(5) -0.1298(7) 0.2339(7) 0.0250 Uiso
C8E C -0.5503(8) -0.0841(5) 0.1130(10) 0.0260 Uiso
H7E H -0.5960(8) -0.0407(7) 0.1353(13) 0.0310 Uiso
H8E H -0.5116(10) -0.0518(6) 0.0724(9) 0.0310 Uiso
C9E C -0.5525(5) -0.2536(5) 0.1015(5) 0.0300 Uiso
C10E C -0.4665(4) -0.2284(4) 0.1538(4) 0.0230 Uiso
C11E C -0.3731(5) -0.2393(6) 0.1221(5) 0.0270 Uiso
H9E H -0.3291(4) -0.2187(6) 0.1635(6) 0.0380 Uiso
H10E H -0.3658(6) -0.2025(8) 0.0722(4) 0.0380 Uiso
H11E H -0.3619(5) -0.3039(7) 0.1093(8) 0.0380 Uiso
C12E C -0.4774(8) -0.2925(6) 0.2355(4) 0.0320 Uiso
H12E H -0.4784(9) -0.3572(5) 0.2193(6) 0.0480 Uiso
H13E H -0.5347(8) -0.2772(8) 0.2637(4) 0.0480 Uiso
H14E H -0.4257(9) -0.2816(5) 0.2725(5) 0.0480 Uiso
C13E C -0.6463(5) -0.2716(8) 0.1308(7) 0.0280 Uiso
H15E H -0.6473(6) -0.3294(9) 0.1614(6) 0.0420 Uiso
H16E H -0.6878(5) -0.2759(8) 0.0837(9) 0.0420 Uiso
H17E H -0.6660(4) -0.2215(10) 0.1667(10) 0.0420 Uiso
C14E C -0.5327(6) -0.3348(6) 0.0423(5) 0.0320 Uiso
C15E C -0.5977(7) -0.1677(6) 0.0738(9) 0.0230 Uiso
H18E H -0.6631(6) -0.1688(8) 0.0898(11) 0.0270 Uiso
H19E H -0.5942(9) -0.1631(7) 0.0132(9) 0.0270 Uiso
Zn1A Zn -0.5132(5) -0.5132(5) 0.00000 0.0320 Uiso
Zn1C Zn 0.5132(5) 0.5132(5) 0.50000 0.0320 Uiso
C16? C 0.2206(7) 0.3925(6) 0.4242(4) 0.0250 Uiso
C17? C 0.2909(4) 0.4197(7) 0.2850(5) 0.0320 Uiso
C18? C 0.2943(8) 0.6191(6) 0.3207(6) 0.0280 Uiso
C19? C 0.1568(6) 0.5541(8) 0.4567(7) 0.0227 Uiso
H20? H 0.1795(8) 0.3423(6) 0.4090(4) 0.0380 Uiso
H21? H 0.2815(8) 0.3678(5) 0.4366(7) 0.0380 Uiso
H22? H 0.1964(9) 0.4240(8) 0.47259(34) 0.0380 Uiso
H23? H 0.2701(4) 0.3567(7) 0.2762(7) 0.0480 Uiso
H24? H 0.2894(6) 0.4531(9) 0.2327(5) 0.0480 Uiso
H25? H 0.3537(4) 0.4191(8) 0.3063(8) 0.0480 Uiso
H26? H 0.2452(10) 0.6306(6) 0.2812(8) 0.0420 Uiso
H27? H 0.3449(8) 0.5874(8) 0.2933(5) 0.0420 Uiso
H28? H 0.3161(10) 0.6774(6) 0.3430(8) 0.0420 Uiso
H29? H 0.1529(8) 0.5003(10) 0.4935(6) 0.0270 Uiso
H30? H 0.1518(7) 0.6110(9) 0.4893(10) 0.0270 Uiso
loop_
_geom_bond_atom_site_label_1
_geom_bond_atom_site_label_2
_geom_bond_site_symmetry_1
_geom_bond_site_symmetry_2
O1 C6 1_555 1_555
O2 C14 1_555 1_555
O3 C14 1_555 1_555
N1 C1 1_555 1_555
N2 H1 1_555 1_555
C1 H2 1_555 1_555
C2 C1 1_555 1_555
H3 C2 1_555 1_555
C3 C2 1_555 1_555
H4 C3 1_555 1_555
C4 N2 1_555 1_555
C5 N1 1_555 1_555
H5 C5 1_555 1_555
C6 N2 1_555 1_555
C7 C6 1_555 1_555
H6 C7 1_555 1_555
C8 C7 1_555 1_555
H7 C8 1_555 1_555
H8 C8 1_555 1_555
C9 C10 1_555 1_555
C10 C7 1_555 1_555
C11 C10 1_555 1_555
H9 C11 1_555 1_555
H10 C11 1_555 1_555
H11 C11 1_555 1_555
C12 C10 1_555 1_555
H12 C12 1_555 1_555
H13 C12 1_555 1_555
H14 C12 1_555 1_555
C13 C9 1_555 1_555
H15 C13 1_555 1_555
H16 C13 1_555 1_555
H17 C13 1_555 1_555
C14 C9 1_555 1_555
C15 C8 1_555 1_555
H18 C15 1_555 1_555
H19 C15 1_555 1_555
Zn1 N1 1_555 1_555
O1E C6E 1_555 1_555
O2E C14E 1_555 1_555
O3E C14E 1_555 1_555
O3A Zn1 1_555 1_555
O3D Zn1 1_555 1_555
N1E Zn1 1_555 1_555
N2E H1E 1_555 1_555
C1E N1E 1_555 1_555
H2E C1E 1_555 1_555
C2E C1E 1_555 1_555
H3E C2E 1_555 1_555
C3E C2E 1_555 1_555
H4E C3E 1_555 1_555
C4E N2E 1_555 1_555
C5E N1E 1_555 1_555
H5E C5E 1_555 1_555
C6E N2E 1_555 1_555
C7E C6E 1_555 1_555
H6E C7E 1_555 1_555
C8E C7E 1_555 1_555
H7E C8E 1_555 1_555
H8E C8E 1_555 1_555
C9E C10E 1_555 1_555
C10E C7E 1_555 1_555
C11E C10E 1_555 1_555
H9E C11E 1_555 1_555
H10E C11E 1_555 1_555
H11E C11E 1_555 1_555
C12E C10E 1_555 1_555
H12E C12E 1_555 1_555
H13E C12E 1_555 1_555
H14E C12E 1_555 1_555
C13E C9E 1_555 1_555
H15E C13E 1_555 1_555
H16E C13E 1_555 1_555
H17E C13E 1_555 1_555
C14E C9E 1_555 1_555
C15E C8E 1_555 1_555
H18E C15E 1_555 1_555
H19E C15E 1_555 1_555
Zn1A O3E 1_555 1_555
Zn1C O3 1_555 1_555
C3 C4 1_555 1_555
C4 C5 1_555 1_555
C9 C15 1_555 1_555
C3E C4E 1_555 1_555
C4E C5E 1_555 1_555
C9E C15E 1_555 1_555

#END
