
#######################################################################
#
#                 Cambridge Crystallographic Data Centre
#                                CCDC 
#
#######################################################################
#
# If this CIF has been generated from an entry in the Cambridge 
# Structural Database, then it will include bibliographic, chemical, 
# crystal, experimental, refinement or atomic coordinate data resulting 
# from the CCDC's data processing and validation procedures.
#
#######################################################################

data_NIMPEG
_chemical_formula_moiety         '(C47 H40 Cu2 O12)n'
_chemical_name_systematic        
"catena-[(\m~8~-5',5''-Propane-2,2-diylbis(2'-ethoxy-1,1':3',1''-terphenyl-4,4''-dicarboxylato))-diaqua-di-copper unknown solvate]"
_symmetry_cell_setting           monoclinic
_symmetry_space_group_name_H-M   'C 2/c'
_symmetry_Int_Tables_number      15
_space_group_name_Hall           '-C 2yc'
loop_
_symmetry_equiv_pos_site_id
_symmetry_equiv_pos_as_xyz
1 x,y,z
2 -x,y,1/2-z
3 1/2+x,1/2+y,z
4 1/2-x,1/2+y,1/2-z
5 -x,-y,-z
6 x,-y,1/2+z
7 1/2-x,1/2-y,-z
8 1/2+x,1/2-y,1/2+z
_cell_length_a                   20.530(5)
_cell_length_b                   20.773(5)
_cell_length_c                   18.804(4)
_cell_angle_alpha                90
_cell_angle_beta                 90.945(3)
_cell_angle_gamma                90
_cell_volume                     8018.25
_cell_formula_units_Z            4
loop_
_atom_site_label
_atom_site_type_symbol
_atom_site_fract_x
_atom_site_fract_y
_atom_site_fract_z
_atom_site_U_iso_or_equiv
_atom_site_thermal_displace_type
Cu1 Cu 0.036572(17) 0.51149(2) 1.444680(19) 0.0540 Uani
O1 O 0.10587(10) 0.47759(12) 1.50593(12) 0.0590 Uani
O2 O 0.09909(12) 0.51913(16) 1.35466(13) 0.0912 Uani
O3 O 0.04415(12) 0.45687(15) 1.59885(12) 0.0819 Uani
O4 O 0.50867(12) 0.07614(13) 1.92064(12) 0.0708 Uani
O5 O 0.44734(13) 0.09690(12) 2.01418(14) 0.0758 Uani
O6 O 0.29236(16) 0.31438(19) 1.78746(17) 0.0952 Uani
C1 C 0.09826(16) 0.46075(17) 1.56812(17) 0.0540 Uani
C2 C 0.15801(15) 0.44385(17) 1.61172(16) 0.0561 Uani
C3 C 0.21745(16) 0.44523(19) 1.5800(2) 0.0699 Uani
H1 H 0.2206 0.4544 1.5307 0.0840 Uiso
C4 C 0.27386(17) 0.43294(19) 1.6213(2) 0.0742 Uani
H2 H 0.3150 0.4337 1.5989 0.0890 Uiso
C5 C 0.27149(19) 0.42016(19) 1.6915(2) 0.0727 Uani
C6 C 0.2098(2) 0.4165(2) 1.7220(2) 0.0829 Uani
H3 H 0.2062 0.4051 1.7707 0.0990 Uiso
C7 C 0.15409(19) 0.4294(2) 1.6821(2) 0.0776 Uani
H4 H 0.1128 0.4280 1.7041 0.0930 Uiso
C8 C 0.3313(2) 0.4097(2) 1.7330(2) 0.0777 Uani
C9 C 0.3823(2) 0.4528(2) 1.7251(2) 0.0920 Uani
H5 H 0.3767 0.4881 1.6934 0.1100 Uiso
C10 C 0.4408(2) 0.4467(2) 1.7613(3) 0.0981 Uani
C11 C 0.4480(2) 0.3957(2) 1.8083(3) 0.1045 Uani
H6 H 0.4869 0.3921 1.8359 0.1260 Uiso
C12 C 0.3997(2) 0.3499(2) 1.8160(2) 0.0939 Uani
C13 C 0.3404(2) 0.3580(2) 1.7792(2) 0.0891 Uani
C14 C 0.5000 0.4905(3) 1.7500 0.1160 Uani
C15 C 0.4893(3) 0.5332(3) 1.6858(4) 0.1751 Uani
H7 H 0.4565 0.5660 1.6966 0.2630 Uiso
H8 H 0.4740 0.5071 1.6455 0.2630 Uiso
H9 H 0.5303 0.5543 1.6737 0.2630 Uiso
C16 C 0.2877(4) 0.2706(4) 1.7342(6) 0.1839 Uani
H10 H 0.3226 0.2380 1.7390 0.2210 Uiso
H11 H 0.2914 0.2920 1.6874 0.2210 Uiso
C17 C 0.2188(5) 0.2385(8) 1.7417(11) 0.4292 Uani
H12 H 0.2053 0.2408 1.7913 0.6450 Uiso
H13 H 0.2212 0.1933 1.7269 0.6450 Uiso
H14 H 0.1871 0.2613 1.7114 0.6450 Uiso
C18 C 0.4174(2) 0.2903(2) 1.8551(3) 0.1010 Uani
C19 C 0.4755(2) 0.2573(3) 1.8335(3) 0.1561 Uani
H15 H 0.5017 0.2733 1.7963 0.1870 Uiso
C20 C 0.4918(2) 0.2009(3) 1.8695(3) 0.1423 Uani
H16 H 0.5307 0.1791 1.8569 0.1710 Uiso
C21 C 0.45365(19) 0.1743(2) 1.9238(2) 0.0751 Uani
C22 C 0.4000(3) 0.2099(2) 1.9433(3) 0.1408 Uani
H17 H 0.3743 0.1951 1.9815 0.1690 Uiso
C23 C 0.3822(3) 0.2677(2) 1.9083(3) 0.1244 Uani
H18 H 0.3446 0.2905 1.9229 0.1490 Uiso
C24 C 0.47065(16) 0.11054(19) 1.9558(2) 0.0606 Uani
O1A O 0.89413(10) 0.47759(12) 1.99407(12) 0.0590 Uani
O3A O 0.95585(12) 0.45687(15) 1.90115(12) 0.0819 Uani
O4A O 0.49133(12) 0.07614(13) 1.57936(12) 0.0708 Uani
O5A O 0.55266(13) 0.09690(12) 1.48582(14) 0.0758 Uani
O6A O 0.70764(16) 0.31438(19) 1.71254(17) 0.0952 Uani
C1A C 0.90174(16) 0.46075(17) 1.93188(17) 0.0540 Uani
C2A C 0.84199(15) 0.44385(17) 1.88828(16) 0.0561 Uani
C3A C 0.78255(16) 0.44523(19) 1.9200(2) 0.0699 Uani
H1A H 0.7794 0.4544 1.9693 0.0840 Uiso
C4A C 0.72614(17) 0.43294(19) 1.8787(2) 0.0742 Uani
H2A H 0.6850 0.4337 1.9011 0.0890 Uiso
C5A C 0.72851(19) 0.42016(19) 1.8085(2) 0.0727 Uani
C6A C 0.7902(2) 0.4165(2) 1.7780(2) 0.0829 Uani
H3A H 0.7938 0.4051 1.7293 0.0990 Uiso
C7A C 0.84591(19) 0.4294(2) 1.8179(2) 0.0776 Uani
H4A H 0.8872 0.4280 1.7959 0.0930 Uiso
C8A C 0.6687(2) 0.4097(2) 1.7670(2) 0.0777 Uani
C9A C 0.6177(2) 0.4528(2) 1.7749(2) 0.0920 Uani
H5A H 0.6233 0.4881 1.8066 0.1100 Uiso
C10A C 0.5592(2) 0.4467(2) 1.7387(3) 0.0981 Uani
C11A C 0.5520(2) 0.3957(2) 1.6917(3) 0.1045 Uani
H6A H 0.5131 0.3921 1.6641 0.1260 Uiso
C12A C 0.6003(2) 0.3499(2) 1.6840(2) 0.0939 Uani
C13A C 0.6596(2) 0.3580(2) 1.7208(2) 0.0891 Uani
C15A C 0.5107(3) 0.5332(3) 1.8142(4) 0.1751 Uani
H7A H 0.5435 0.5660 1.8034 0.2630 Uiso
H8A H 0.5260 0.5071 1.8545 0.2630 Uiso
H9A H 0.4697 0.5543 1.8263 0.2630 Uiso
C16A C 0.7123(4) 0.2706(4) 1.7658(6) 0.1839 Uani
H10A H 0.6774 0.2380 1.7610 0.2210 Uiso
H11A H 0.7086 0.2920 1.8126 0.2210 Uiso
C17A C 0.7812(5) 0.2385(8) 1.7583(11) 0.4292 Uani
H12A H 0.7947 0.2408 1.7087 0.6450 Uiso
H13A H 0.7788 0.1933 1.7731 0.6450 Uiso
H14A H 0.8129 0.2613 1.7886 0.6450 Uiso
C18A C 0.5826(2) 0.2903(2) 1.6449(3) 0.1010 Uani
C19A C 0.5245(2) 0.2573(3) 1.6665(3) 0.1561 Uani
H15A H 0.4983 0.2733 1.7037 0.1870 Uiso
C20A C 0.5082(2) 0.2009(3) 1.6305(3) 0.1423 Uani
H16A H 0.4693 0.1791 1.6431 0.1710 Uiso
C21A C 0.54635(19) 0.1743(2) 1.5762(2) 0.0751 Uani
C22A C 0.6000(3) 0.2099(2) 1.5567(3) 0.1408 Uani
H17A H 0.6257 0.1951 1.5185 0.1690 Uiso
C23A C 0.6178(3) 0.2677(2) 1.5917(3) 0.1244 Uani
H18A H 0.6554 0.2905 1.5771 0.1490 Uiso
C24A C 0.52935(16) 0.11054(19) 1.5442(2) 0.0606 Uani
Cu1A Cu 0.963428(17) 0.51149(2) 2.055320(19) 0.0540 Uani
O2A O 0.90091(12) 0.51913(16) 2.14534(13) 0.0912 Uani
Cu1B Cu 0.536572(17) 0.01149(2) 1.444680(19) 0.0540 Uani
Cu1C Cu 0.463428(17) 0.01149(2) 2.055320(19) 0.0540 Uani
Cu1D Cu -0.036572(17) 0.48851(2) 1.555320(19) 0.0540 Uani
Cu1E Cu 1.036572(17) 0.48851(2) 1.944680(19) 0.0540 Uani
Cu1F Cu 0.463428(17) -0.01149(2) 1.555320(19) 0.0540 Uani
Cu1G Cu 0.536572(17) -0.01149(2) 1.944680(19) 0.0540 Uani
O3D O -0.04415(12) 0.54313(15) 1.40115(12) 0.0819 Uani
O3E O 1.04415(12) 0.54313(15) 2.09885(12) 0.0819 Uani
O4F O 0.99133(12) 0.42386(13) 2.07936(12) 0.0708 Uani
O4G O 0.00867(12) 0.42386(13) 1.42064(12) 0.0708 Uani
O5B O 0.94734(13) 0.59690(12) 2.01418(14) 0.0758 Uani
O5C O 0.05266(13) 0.59690(12) 1.48582(14) 0.0758 Uani
loop_
_atom_site_aniso_label
_atom_site_aniso_U_11
_atom_site_aniso_U_22
_atom_site_aniso_U_33
_atom_site_aniso_U_23
_atom_site_aniso_U_13
_atom_site_aniso_U_12
Cu1 0.0417(2) 0.0809(3) 0.0391(2) 0.00097(19) -0.01032(16) 0.00117(19)
O1 0.0427(12) 0.0872(18) 0.0465(13) 0.0046(12) -0.0132(10) -0.0005(11)
O2 0.0579(15) 0.164(3) 0.0515(15) 0.0245(16) -0.0052(12) -0.0161(16)
O3 0.0594(15) 0.138(2) 0.0479(14) 0.0172(15) -0.0127(12) 0.0227(16)
O4 0.0705(16) 0.0913(19) 0.0503(14) 0.0173(13) -0.0070(12) 0.0225(14)
O5 0.0822(18) 0.0740(17) 0.0715(17) 0.0007(14) 0.0095(14) 0.0063(14)
O6 0.079(2) 0.108(3) 0.098(2) 0.0162(19) -0.0204(17) 0.012(2)
C1 0.0467(19) 0.070(2) 0.0450(19) -0.0025(16) -0.0067(15) 0.0054(16)
C2 0.0511(19) 0.078(2) 0.0388(17) -0.0031(16) -0.0140(14) 0.0153(16)
C3 0.052(2) 0.099(3) 0.058(2) -0.004(2) -0.0226(17) 0.0123(19)
C4 0.052(2) 0.095(3) 0.075(3) 0.005(2) -0.0126(18) 0.0159(19)
C5 0.069(2) 0.084(3) 0.064(2) -0.0096(19) -0.0340(19) 0.028(2)
C6 0.081(3) 0.118(3) 0.049(2) -0.006(2) -0.023(2) 0.035(2)
C7 0.069(2) 0.096(3) 0.067(2) 0.001(2) -0.0195(19) 0.024(2)
C8 0.076(3) 0.087(3) 0.069(2) -0.014(2) -0.035(2) 0.030(2)
C9 0.097(3) 0.075(3) 0.102(3) -0.007(2) -0.060(3) 0.025(3)
C10 0.094(3) 0.072(3) 0.126(4) -0.002(3) -0.071(3) 0.009(2)
C11 0.101(3) 0.082(3) 0.128(4) -0.002(3) -0.078(3) 0.010(3)
C12 0.097(3) 0.092(3) 0.091(3) -0.001(2) -0.047(3) 0.036(3)
C13 0.099(3) 0.089(3) 0.078(3) -0.003(2) -0.039(2) 0.027(3)
C14 0.107(5) 0.082(4) 0.156(7) 0.000 -0.093(5) 0.000
C15 0.153(5) 0.105(4) 0.263(8) 0.057(5) -0.131(6) -0.030(4)
C16 0.148(7) 0.132(6) 0.270(10) 0.059(7) -0.052(7) -0.049(5)
C17 0.157(10) 0.37(2) 0.76(4) 0.00(2) -0.014(16) -0.032(11)
C18 0.100(4) 0.101(4) 0.100(3) 0.000(3) -0.055(3) 0.028(3)
C19 0.070(3) 0.167(6) 0.231(7) 0.080(5) -0.003(4) 0.031(3)
C20 0.103(4) 0.173(6) 0.151(5) 0.070(5) 0.009(4) 0.059(4)
C21 0.067(2) 0.093(3) 0.065(2) 0.007(2) -0.011(2) 0.021(2)
C22 0.216(7) 0.107(4) 0.101(4) 0.023(3) 0.049(4) 0.040(4)
C23 0.114(4) 0.129(5) 0.131(5) 0.041(4) 0.023(4) 0.052(4)
C24 0.0421(18) 0.082(3) 0.057(2) -0.002(2) -0.0194(16) 0.0035(18)
O1A 0.0427 0.0872 0.0465 -0.0046 -0.0132 0.0005
O3A 0.0594 0.138 0.0479 -0.0172 -0.0127 -0.0227
O4A 0.0705 0.0913 0.0503 -0.0173 -0.007 -0.0225
O5A 0.0822 0.074 0.0715 -0.0007 0.0095 -0.0063
O6A 0.079 0.108 0.098 -0.0162 -0.0204 -0.012
C1A 0.0467 0.07 0.045 0.0025 -0.0067 -0.0054
C2A 0.0511 0.078 0.0388 0.0031 -0.014 -0.0153
C3A 0.052 0.099 0.058 0.004 -0.0226 -0.0123
C4A 0.052 0.095 0.075 -0.005 -0.0126 -0.0159
C5A 0.069 0.084 0.064 0.0096 -0.034 -0.028
C6A 0.081 0.118 0.049 0.006 -0.023 -0.035
C7A 0.069 0.096 0.067 -0.001 -0.0195 -0.024
C8A 0.076 0.087 0.069 0.014 -0.035 -0.03
C9A 0.097 0.075 0.102 0.007 -0.06 -0.025
C10A 0.094 0.072 0.126 0.002 -0.071 -0.009
C11A 0.101 0.082 0.128 0.002 -0.078 -0.01
C12A 0.097 0.092 0.091 0.001 -0.047 -0.036
C13A 0.099 0.089 0.078 0.003 -0.039 -0.027
C15A 0.153 0.105 0.263 -0.057 -0.131 0.03
C16A 0.148 0.132 0.27 -0.059 -0.052 0.049
C17A 0.157 0.37 0.76 0 -0.014 0.032
C18A 0.1 0.101 0.1 0 -0.055 -0.028
C19A 0.07 0.167 0.231 -0.08 -0.003 -0.031
C20A 0.103 0.173 0.151 -0.07 0.009 -0.059
C21A 0.067 0.093 0.065 -0.007 -0.011 -0.021
C22A 0.216 0.107 0.101 -0.023 0.049 -0.04
C23A 0.114 0.129 0.131 -0.041 0.023 -0.052
C24A 0.0421 0.082 0.057 0.002 -0.0194 -0.0035
Cu1A 0.0417 0.0809 0.0391 -0.00097 -0.01032 -0.00117
O2A 0.0579 0.164 0.0515 -0.0245 -0.0052 0.0161
Cu1B 0.0417 0.0809 0.0391 0.00097 -0.01032 0.00117
Cu1C 0.0417 0.0809 0.0391 -0.00097 -0.01032 -0.00117
Cu1D 0.0417 0.0809 0.0391 0.00097 -0.01032 0.00117
Cu1E 0.0417 0.0809 0.0391 -0.00097 -0.01032 -0.00117
Cu1F 0.0417 0.0809 0.0391 0.00097 -0.01032 0.00117
Cu1G 0.0417 0.0809 0.0391 -0.00097 -0.01032 -0.00117
O3D 0.0594 0.138 0.0479 0.0172 -0.0127 0.0227
O3E 0.0594 0.138 0.0479 -0.0172 -0.0127 -0.0227
O4F 0.0705 0.0913 0.0503 0.0173 -0.007 0.0225
O4G 0.0705 0.0913 0.0503 -0.0173 -0.007 -0.0225
O5B 0.0822 0.074 0.0715 0.0007 0.0095 0.0063
O5C 0.0822 0.074 0.0715 -0.0007 0.0095 -0.0063
loop_
_geom_bond_atom_site_label_1
_geom_bond_atom_site_label_2
_geom_bond_site_symmetry_1
_geom_bond_site_symmetry_2
Cu1 O1 1_555 1_555
O1 C1 1_555 1_555
O2 Cu1 1_555 1_555
O3 C1 1_555 1_555
O4 C24 1_555 1_555
O5 C24 1_555 1_555
O6 C13 1_555 1_555
C1 C2 1_555 1_555
C2 C3 1_555 1_555
C3 H1 1_555 1_555
C4 C3 1_555 1_555
H2 C4 1_555 1_555
C5 C4 1_555 1_555
C6 C5 1_555 1_555
H3 C6 1_555 1_555
C7 C2 1_555 1_555
H4 C7 1_555 1_555
C8 C5 1_555 1_555
C9 C8 1_555 1_555
H5 C9 1_555 1_555
C10 C9 1_555 1_555
C11 C10 1_555 1_555
H6 C11 1_555 1_555
C12 C11 1_555 1_555
C13 C8 1_555 1_555
C14 C10 1_555 1_555
C15 C14 1_555 1_555
H7 C15 1_555 1_555
H8 C15 1_555 1_555
H9 C15 1_555 1_555
C16 O6 1_555 1_555
H10 C16 1_555 1_555
H11 C16 1_555 1_555
C17 C16 1_555 1_555
H12 C17 1_555 1_555
H13 C17 1_555 1_555
H14 C17 1_555 1_555
C18 C12 1_555 1_555
C19 C18 1_555 1_555
H15 C19 1_555 1_555
C20 C19 1_555 1_555
H16 C20 1_555 1_555
C21 C20 1_555 1_555
C22 C21 1_555 1_555
H17 C22 1_555 1_555
C23 C18 1_555 1_555
H18 C23 1_555 1_555
C24 C21 1_555 1_555
O1A C1A 1_555 1_555
O3A C1A 1_555 1_555
O4A C24A 1_555 1_555
O5A C24A 1_555 1_555
O6A C13A 1_555 1_555
C1A C2A 1_555 1_555
C2A C3A 1_555 1_555
C3A H1A 1_555 1_555
C4A C3A 1_555 1_555
H2A C4A 1_555 1_555
C5A C4A 1_555 1_555
C6A C5A 1_555 1_555
H3A C6A 1_555 1_555
C7A C2A 1_555 1_555
H4A C7A 1_555 1_555
C8A C5A 1_555 1_555
C9A C8A 1_555 1_555
H5A C9A 1_555 1_555
C10A C14 1_555 1_555
C11A C10A 1_555 1_555
H6A C11A 1_555 1_555
C12A C11A 1_555 1_555
C13A C8A 1_555 1_555
C15A C14 1_555 1_555
H7A C15A 1_555 1_555
H8A C15A 1_555 1_555
H9A C15A 1_555 1_555
C16A O6A 1_555 1_555
H10A C16A 1_555 1_555
H11A C16A 1_555 1_555
C17A C16A 1_555 1_555
H12A C17A 1_555 1_555
H13A C17A 1_555 1_555
H14A C17A 1_555 1_555
C18A C12A 1_555 1_555
C19A C18A 1_555 1_555
H15A C19A 1_555 1_555
C20A C19A 1_555 1_555
H16A C20A 1_555 1_555
C21A C20A 1_555 1_555
C22A C21A 1_555 1_555
H17A C22A 1_555 1_555
C23A C18A 1_555 1_555
H18A C23A 1_555 1_555
C24A C21A 1_555 1_555
Cu1A O1A 1_555 1_555
O2A Cu1A 1_555 1_555
Cu1B O5A 1_555 1_555
Cu1C O5 1_555 1_555
Cu1D O3 1_555 1_555
Cu1E O3A 1_555 1_555
Cu1F O4A 1_555 1_555
Cu1G O4 1_555 1_555
O3D Cu1 1_555 1_555
O3E Cu1A 1_555 1_555
O4F Cu1A 1_555 1_555
O4G Cu1 1_555 1_555
O5B Cu1A 1_555 1_555
O5C Cu1 1_555 1_555
C6 C7 1_555 1_555
C12 C13 1_555 1_555
C22 C23 1_555 1_555
C6A C7A 1_555 1_555
C9A C10A 1_555 1_555
C12A C13A 1_555 1_555
C22A C23A 1_555 1_555

#END
