
#######################################################################
#
#                 Cambridge Crystallographic Data Centre
#                                CCDC 
#
#######################################################################
#
# If this CIF has been generated from an entry in the Cambridge 
# Structural Database, then it will include bibliographic, chemical, 
# crystal, experimental, refinement or atomic coordinate data resulting 
# from the CCDC's data processing and validation procedures.
#
#######################################################################

data_NIMPOQ
_chemical_name_common            PCN-38
_chemical_formula_moiety         '(C90 H72 Cu4 O24)n'
_chemical_name_systematic        
"catena-[bis(\m~8~-5',5''-Propane-2,2-diylbis(2'-methoxy-1,1':3',1''-terphenyl-4,4''-dicarboxylato))-tetra-aqua-tetra-copper unknown solvate]"
_symmetry_cell_setting           triclinic
_symmetry_space_group_name_H-M   'P -1'
_symmetry_Int_Tables_number      2
_space_group_name_Hall           '-P 1'
loop_
_symmetry_equiv_pos_site_id
_symmetry_equiv_pos_as_xyz
1 x,y,z
2 -x,-y,-z
_cell_length_a                   20.639(9)
_cell_length_b                   22.923(10)
_cell_length_c                   23.247(10)
_cell_angle_alpha                82.718(6)
_cell_angle_beta                 71.061(6)
_cell_angle_gamma                80.352(7)
_cell_volume                     10224.9
_exptl_crystal_colour            blue
_exptl_crystal_description       prism
_cell_formula_units_Z            2
loop_
_atom_site_label
_atom_site_type_symbol
_atom_site_fract_x
_atom_site_fract_y
_atom_site_fract_z
Cu1 Cu 0.44455(15) 0.77446(14) -0.26267(13)
Cu2 Cu 0.55607(15) 0.72511(14) -0.23729(13)
Cu3 Cu -0.04141(14) 1.23679(14) 0.22277(13)
Cu4 Cu 0.04179(14) 1.26287(14) 0.27723(13)
O1 O 0.4124(7) 0.6983(7) -0.2362(6)
O2 O 0.3556(7) 0.8220(6) -0.2825(5)
O3 O 0.6459(7) 0.6738(6) -0.2128(5)
O4 O 0.5062(6) 0.6552(6) -0.2163(4)
O5 O -0.1130(6) 1.2181(5) 0.1812(5)
O6 O 0.4140(8) 0.7955(7) -0.1780(7)
O7 O 0.1197(6) 1.2744(5) 0.3227(5)
O8 O 0.5111(8) 0.7535(7) -0.1579(7)
O9 O 0.0186(8) 1.1610(7) 0.2092(6)
O10 O 0.0859(7) 1.1824(7) 0.2588(7)
O11 O 0.4101(7) 1.1989(7) 0.2666(6)
O12 O 0.5024(6) 1.1579(6) 0.2908(4)
O13 O 0.0202(8) 0.7698(7) 0.6498(7)
O14 O 0.0924(7) 0.7914(7) 0.6960(7)
O15 O 0.0202(8) 0.2699(7) 0.1494(7)
O16 O 0.0925(7) 0.2919(7) 0.1965(7)
O17 O 0.5097(8) 0.2553(7) -0.6572(7)
O18 O 0.4135(8) 0.2952(7) -0.6778(7)
O19 O 0.0190(8) 0.6603(7) -0.2885(6)
O20 O 0.0869(7) 0.6815(7) -0.2415(7)
O21 O 0.2735(5) 0.4543(5) -0.4395(4)
O22 O 0.2685(6) 0.4603(5) -0.0486(5)
O23 O 0.2608(5) 0.9487(4) 0.0624(4)
O24 O 0.2771(5) 0.9550(5) 0.4543(5)
C1 C 0.4450(12) 0.6580(11) -0.2168(10)
C2 C 0.4176(8) 0.5970(5) -0.1968(6)
C3 C 0.3469(7) 0.5974(6) -0.1836(6)
H1 H 0.3179 0.6338 -0.1868
C4 C 0.3184(5) 0.5447(8) -0.1659(6)
H2 H 0.2701 0.5449 -0.1569
C5 C 0.3608(8) 0.4915(6) -0.1613(6)
C6 C 0.4315(7) 0.4910(5) -0.1745(6)
H3 H 0.4604 0.4547 -0.1713
C7 C 0.4599(5) 0.5438(7) -0.1922(5)
H4 H 0.5083 0.5435 -0.2012
C8 C 0.3310(8) 0.4355(6) -0.1490(8)
C9 C 0.2844(8) 0.4207(7) -0.0927(6)
C10 C 0.2543(6) 0.3690(8) -0.0836(5)
C11 C 0.2709(7) 0.3320(6) -0.1307(8)
H5 H 0.2503 0.2967 -0.1244
C12 C 0.3175(8) 0.3468(7) -0.1870(6)
C13 C 0.3475(6) 0.3985(7) -0.1962(5)
H6 H 0.3794 0.4085 -0.2347
C14 C 0.2088(7) 0.3497(7) -0.0234(5)
C15 C 0.1450(8) 0.3344(7) -0.0194(6)
H7 H 0.1312 0.3374 -0.0550
C16 C 0.1014(6) 0.3149(7) 0.0366(7)
H8 H 0.0578 0.3045 0.0392
C17 C 0.1216(7) 0.3106(7) 0.0886(6)
C18 C 0.1854(8) 0.3258(7) 0.0847(6)
H9 H 0.1992 0.3229 0.1203
C19 C 0.2290(6) 0.3454(7) 0.0287(7)
H10 H 0.2726 0.3558 0.0260
C20 C 0.0738(13) 0.2878(11) 0.1500(11)
C21 C 0.0706(12) 0.6483(12) -0.2703(11)
C22 C 0.1157(7) 0.5920(5) -0.2857(7)
C23 C 0.1701(8) 0.5748(7) -0.2615(6)
H11 H 0.1777 0.5993 -0.2349
C24 C 0.2133(6) 0.5219(8) -0.2763(6)
H12 H 0.2504 0.5101 -0.2598
C25 C 0.2022(7) 0.4861(5) -0.3153(7)
C26 C 0.1478(8) 0.5033(7) -0.3394(5)
H13 H 0.1402 0.4788 -0.3660
C27 C 0.1046(6) 0.5562(7) -0.3246(6)
H14 H 0.0675 0.5680 -0.3411
C28 C 0.2502(7) 0.4320(6) -0.3319(8)
C29 C 0.2674(7) 0.3981(7) -0.2837(5)
H15 H 0.2462 0.4096 -0.2433
C30 C 0.3155(8) 0.3472(7) -0.2946(6)
C31 C 0.3464(7) 0.3303(6) -0.3538(8)
H16 H 0.3793 0.2955 -0.3613
C32 C 0.3292(8) 0.3642(8) -0.4020(5)
C33 C 0.2811(8) 0.4150(7) -0.3911(7)
C34 C 0.3590(8) 0.3436(6) -0.4646(5)
C35 C 0.4284(8) 0.3199(7) -0.4837(7)
H17 H 0.4556 0.3174 -0.4572
C36 C 0.4581(6) 0.2997(6) -0.5417(7)
H18 H 0.5055 0.2835 -0.5548
C37 C 0.4184(8) 0.3033(6) -0.5805(5)
C38 C 0.3490(8) 0.3270(7) -0.5613(7)
H19 H 0.3218 0.3295 -0.5879
C39 C 0.3193(5) 0.3472(6) -0.5034(7)
H20 H 0.2719 0.3634 -0.4903
C40 C 0.4496(12) 0.2814(11) -0.6419(10)
C41 C 0.4508(13) 0.7819(11) -0.1447(10)
C42 C 0.4194(8) 0.8020(6) -0.0796(5)
C43 C 0.3503(8) 0.8266(7) -0.0607(7)
H21 H 0.3231 0.8293 -0.0873
C44 C 0.3209(5) 0.8473(6) -0.0030(7)
H22 H 0.2737 0.8641 0.0100
C45 C 0.3606(8) 0.8434(6) 0.0359(5)
C46 C 0.4298(8) 0.8188(7) 0.0170(7)
H23 H 0.4569 0.8161 0.0435
C47 C 0.4591(6) 0.7981(6) -0.0408(7)
H24 H 0.5064 0.7813 -0.0537
C48 C 0.3304(8) 0.8638(8) 0.0988(5)
C49 C 0.2829(8) 0.9151(7) 0.1097(7)
C50 C 0.2516(7) 0.9317(6) 0.1690(8)
C51 C 0.2679(7) 0.8971(7) 0.2173(5)
H25 H 0.2465 0.9084 0.2578
C52 C 0.3153(8) 0.8458(7) 0.2063(6)
C53 C 0.3466(7) 0.8292(6) 0.1471(8)
H26 H 0.3790 0.7942 0.1396
C54 C 0.2037(7) 0.9876(5) 0.1836(7)
C55 C 0.1502(8) 1.0048(7) 0.1585(5)
H27 H 0.1438 0.9808 0.1309
C56 C 0.1061(6) 1.0573(7) 0.1737(6)
H28 H 0.0695 1.0691 0.1565
C57 C 0.1155(7) 1.0925(5) 0.2141(7)
C58 C 0.1690(8) 1.0752(7) 0.2393(6)
H29 H 0.1754 1.0992 0.2669
C59 C 0.2131(6) 1.0227(8) 0.2240(6)
H30 H 0.2496 1.0109 0.2412
C60 C 0.0687(12) 1.1481(12) 0.2289(11)
C61 C 0.4483(12) 1.1564(11) 0.2825(10)
C62 C 0.4147(8) 1.0992(5) 0.3065(6)
C63 C 0.3447(7) 1.0986(6) 0.3166(6)
H31 H 0.3155 1.1346 0.3124
C64 C 0.3172(5) 1.0453(8) 0.3328(6)
H32 H 0.2693 1.0448 0.3397
C65 C 0.3598(8) 0.9926(6) 0.3389(6)
C66 C 0.4298(7) 0.9932(5) 0.3288(6)
H33 H 0.4590 0.9572 0.3329
C67 C 0.4573(5) 1.0465(7) 0.3126(5)
H34 H 0.5052 1.0469 0.3057
C68 C 0.3324(8) 0.9347(6) 0.3517(8)
C69 C 0.3502(6) 0.8966(7) 0.3054(5)
H35 H 0.3834 0.9057 0.2673
C70 C 0.3195(8) 0.8452(7) 0.3147(6)
C71 C 0.2710(7) 0.8319(6) 0.3703(8)
H36 H 0.2500 0.7968 0.3767
C72 C 0.2531(6) 0.8700(8) 0.4167(5)
C73 C 0.2838(8) 0.9214(7) 0.4074(6)
C74 C 0.2077(7) 0.8507(7) 0.4775(5)
C75 C 0.1440(8) 0.8354(7) 0.4811(6)
H37 H 0.1301 0.8388 0.4456
C76 C 0.1007(6) 0.8149(7) 0.5369(7)
H38 H 0.0572 0.8044 0.5394
C77 C 0.1210(7) 0.8099(6) 0.5889(6)
C78 C 0.1847(8) 0.8253(7) 0.5853(6)
H39 H 0.1986 0.8218 0.6208
C79 C 0.2280(6) 0.8457(7) 0.5295(7)
H40 H 0.2715 0.8562 0.5270
C80 C 0.0749(13) 0.7878(11) 0.6503(11)
C81 C 0.2888(6) 0.2585(7) -0.2279(7)
H41 H 0.2400 0.2756 -0.2178
H42 H 0.2962 0.2317 -0.1936
H43 H 0.3016 0.2363 -0.2642
C82 C 0.3335(12) 0.3082(11) -0.2404(10)
C83 C 0.4111(8) 0.2853(8) -0.2545(6)
H44 H 0.4190 0.2609 -0.2190
H45 H 0.4373 0.3191 -0.2636
H46 H 0.4263 0.2614 -0.2897
C84 C 0.3036(6) 0.7541(7) 0.2746(7)
H47 H 0.2532 0.7636 0.2876
H48 H 0.3180 0.7307 0.3078
H49 H 0.3188 0.7312 0.2386
C85 C 0.3340(12) 0.8076(11) 0.2599(10)
C86 C 0.4178(8) 0.7885(8) 0.2371(6)
H50 H 0.4320 0.7649 0.2702
H51 H 0.4408 0.8242 0.2256
H52 H 0.4308 0.7649 0.2017
C87 C 0.3104(7) 0.5034(5) -0.4619(6)
H53 H 0.2941 0.5265 -0.4942
H54 H 0.3599 0.4893 -0.4784
H55 H 0.3029 0.5286 -0.4286
C88 C 0.1922(5) 0.4961(6) -0.0261(5)
H56 H 0.1890 0.5206 0.0066
H57 H 0.1584 0.4679 -0.0107
H58 H 0.1825 0.5215 -0.0603
C89 C 0.3061(7) 0.9866(5) 0.0422(6)
H59 H 0.2973 1.0116 0.0074
H60 H 0.3529 0.9648 0.0295
H61 H 0.3019 1.0116 0.0749
C90 C 0.2134(5) 0.9864(6) 0.4678(5)
H62 H 0.2072 1.0121 0.5003
H63 H 0.1785 0.9592 0.4815
H64 H 0.2081 1.0108 0.4314
Cu1A Cu 0.55545(15) 0.22554(14) -0.73733(13)
Cu1A_2 Cu 0.55545(15) 1.22554(14) 0.26267(13)
Cu2A Cu 0.44393(15) 0.27489(14) -0.76271(13)
Cu2A_2 Cu 0.44393(15) 1.27489(14) 0.23729(13)
Cu3_2 Cu -0.04141(14) 0.23679(14) 0.22277(13)
Cu3A Cu 0.04141(14) 0.76321(14) -0.22277(13)
Cu3A_2 Cu 0.04141(14) 0.76321(14) 0.77723(13)
Cu4_2 Cu 0.04179(14) 0.26287(14) 0.27723(13)
Cu4A Cu -0.04179(14) 0.73713(14) -0.27723(13)
Cu4A_2 Cu -0.04179(14) 0.73713(14) 0.72277(13)
O11A O 0.5899(7) 0.8011(7) -0.2666(6)
O12A O 0.4976(6) 0.8421(6) -0.2908(4)
O13A O -0.0202(8) 1.2302(7) 0.3502(7)
O14A O -0.0924(7) 1.2086(7) 0.3040(7)
O15_2 O 0.0202(8) 1.2699(7) 0.1494(7)
O16_2 O 0.0925(7) 1.2919(7) 0.1965(7)
O17A O 0.4903(8) 0.7447(7) -0.3428(7)
O18A O 0.5865(8) 0.7048(7) -0.3222(7)
O19A O -0.0190(8) 1.3397(7) 0.2885(6)
O20A O -0.0869(7) 1.3185(7) 0.2415(7)
loop_
_geom_bond_atom_site_label_1
_geom_bond_atom_site_label_2
_geom_bond_site_symmetry_1
_geom_bond_site_symmetry_2
Cu1 O1 1_555 1_555
Cu2 O3 1_555 1_555
Cu3 O5 1_555 1_555
Cu4 O7 1_555 1_555
O1 C1 1_555 1_555
O2 Cu1 1_555 1_555
O4 Cu2 1_555 1_555
O6 Cu1 1_555 1_555
O8 Cu2 1_555 1_555
O9 Cu3 1_555 1_555
O10 Cu4 1_555 1_555
O11 C61 1_555 1_555
O12 C61 1_555 1_555
O13 C80 1_555 1_555
O14 C80 1_555 1_555
O15 C20 1_555 1_555
O16 C20 1_555 1_555
O17 C40 1_555 1_555
O18 C40 1_555 1_555
O19 C21 1_555 1_555
O20 C21 1_555 1_555
O21 C33 1_555 1_555
O22 C9 1_555 1_555
O23 C49 1_555 1_555
O24 C73 1_555 1_555
C1 O4 1_555 1_555
C2 C1 1_555 1_555
C3 C2 1_555 1_555
H1 C3 1_555 1_555
C4 C3 1_555 1_555
H2 C4 1_555 1_555
C5 C4 1_555 1_555
C6 C5 1_555 1_555
H3 C6 1_555 1_555
C7 C2 1_555 1_555
H4 C7 1_555 1_555
C8 C5 1_555 1_555
C9 C8 1_555 1_555
C10 C9 1_555 1_555
C11 C10 1_555 1_555
H5 C11 1_555 1_555
C12 C11 1_555 1_555
C13 C8 1_555 1_555
H6 C13 1_555 1_555
C14 C10 1_555 1_555
C15 C14 1_555 1_555
H7 C15 1_555 1_555
C16 C15 1_555 1_555
H8 C16 1_555 1_555
C17 C16 1_555 1_555
C18 C17 1_555 1_555
H9 C18 1_555 1_555
C19 C14 1_555 1_555
H10 C19 1_555 1_555
C20 C17 1_555 1_555
C21 C22 1_555 1_555
C22 C23 1_555 1_555
C23 H11 1_555 1_555
C24 C23 1_555 1_555
H12 C24 1_555 1_555
C25 C24 1_555 1_555
C26 C25 1_555 1_555
H13 C26 1_555 1_555
C27 C22 1_555 1_555
H14 C27 1_555 1_555
C28 C25 1_555 1_555
C29 C28 1_555 1_555
H15 C29 1_555 1_555
C30 C29 1_555 1_555
C31 C30 1_555 1_555
H16 C31 1_555 1_555
C32 C31 1_555 1_555
C33 C28 1_555 1_555
C34 C32 1_555 1_555
C35 C34 1_555 1_555
H17 C35 1_555 1_555
C36 C35 1_555 1_555
H18 C36 1_555 1_555
C37 C36 1_555 1_555
C38 C37 1_555 1_555
H19 C38 1_555 1_555
C39 C34 1_555 1_555
H20 C39 1_555 1_555
C40 C37 1_555 1_555
C41 O6 1_555 1_555
C42 C41 1_555 1_555
C43 C42 1_555 1_555
H21 C43 1_555 1_555
C44 C43 1_555 1_555
H22 C44 1_555 1_555
C45 C44 1_555 1_555
C46 C45 1_555 1_555
H23 C46 1_555 1_555
C47 C42 1_555 1_555
H24 C47 1_555 1_555
C48 C45 1_555 1_555
C49 C48 1_555 1_555
C50 C49 1_555 1_555
C51 C50 1_555 1_555
H25 C51 1_555 1_555
C52 C51 1_555 1_555
C53 C48 1_555 1_555
H26 C53 1_555 1_555
C54 C50 1_555 1_555
C55 C54 1_555 1_555
H27 C55 1_555 1_555
C56 C55 1_555 1_555
H28 C56 1_555 1_555
C57 C56 1_555 1_555
C58 C57 1_555 1_555
H29 C58 1_555 1_555
C59 C54 1_555 1_555
H30 C59 1_555 1_555
C60 O9 1_555 1_555
C61 C62 1_555 1_555
C62 C63 1_555 1_555
C63 H31 1_555 1_555
C64 C63 1_555 1_555
H32 C64 1_555 1_555
C65 C64 1_555 1_555
C66 C65 1_555 1_555
H33 C66 1_555 1_555
C67 C62 1_555 1_555
H34 C67 1_555 1_555
C68 C65 1_555 1_555
C69 C68 1_555 1_555
H35 C69 1_555 1_555
C70 C69 1_555 1_555
C71 C70 1_555 1_555
H36 C71 1_555 1_555
C72 C71 1_555 1_555
C73 C68 1_555 1_555
C74 C72 1_555 1_555
C75 C74 1_555 1_555
H37 C75 1_555 1_555
C76 C75 1_555 1_555
H38 C76 1_555 1_555
C77 C76 1_555 1_555
C78 C77 1_555 1_555
H39 C78 1_555 1_555
C79 C74 1_555 1_555
H40 C79 1_555 1_555
C80 C77 1_555 1_555
C81 H41 1_555 1_555
H42 C81 1_555 1_555
H43 C81 1_555 1_555
C82 C12 1_555 1_555
C83 C82 1_555 1_555
H44 C83 1_555 1_555
H45 C83 1_555 1_555
H46 C83 1_555 1_555
C84 H47 1_555 1_555
H48 C84 1_555 1_555
H49 C84 1_555 1_555
C85 C52 1_555 1_555
C86 C85 1_555 1_555
H50 C86 1_555 1_555
H51 C86 1_555 1_555
H52 C86 1_555 1_555
C87 O21 1_555 1_555
H53 C87 1_555 1_555
H54 C87 1_555 1_555
H55 C87 1_555 1_555
C88 O22 1_555 1_555
H56 C88 1_555 1_555
H57 C88 1_555 1_555
H58 C88 1_555 1_555
C89 O23 1_555 1_555
H59 C89 1_555 1_555
H60 C89 1_555 1_555
H61 C89 1_555 1_555
C90 O24 1_555 1_555
H62 C90 1_555 1_555
H63 C90 1_555 1_555
H64 C90 1_555 1_555
Cu1A O17 1_555 1_555
Cu1A_2 O12 1_555 1_555
Cu2A O18 1_555 1_555
Cu2A_2 O11 1_555 1_555
Cu3_2 O15 1_555 1_555
Cu3A O20 1_555 1_555
Cu3A_2 O14 1_555 1_555
Cu4_2 O16 1_555 1_555
Cu4A O19 1_555 1_555
Cu4A_2 O13 1_555 1_555
O11A Cu2 1_555 1_555
O12A Cu1 1_555 1_555
O13A Cu4 1_555 1_555
O14A Cu3 1_555 1_555
O15_2 Cu3 1_555 1_555
O16_2 Cu4 1_555 1_555
O17A Cu1 1_555 1_555
O18A Cu2 1_555 1_555
O19A Cu4 1_555 1_555
O20A Cu3 1_555 1_555
O8 C41 1_555 1_555
O10 C60 1_555 1_555
C6 C7 1_555 1_555
C12 C13 1_555 1_555
C18 C19 1_555 1_555
C26 C27 1_555 1_555
C30 C82 1_555 1_555
C32 C33 1_555 1_555
C38 C39 1_555 1_555
C46 C47 1_555 1_555
C52 C53 1_555 1_555
C57 C60 1_555 1_555
C58 C59 1_555 1_555
C66 C67 1_555 1_555
C70 C85 1_555 1_555
C72 C73 1_555 1_555
C78 C79 1_555 1_555
C81 C82 1_555 1_555
C84 C85 1_555 1_555

#END
