
#######################################################################
#
#                 Cambridge Crystallographic Data Centre
#                                CCDC 
#
#######################################################################
#
# If this CIF has been generated from an entry in the Cambridge 
# Structural Database, then it will include bibliographic, chemical, 
# crystal, experimental, refinement or atomic coordinate data resulting 
# from the CCDC's data processing and validation procedures.
#
#######################################################################

data_NEHZOS
_chemical_name_common            COK-18
_chemical_formula_moiety         '(C18 H28 Cu5 O25)n,12(H2 O1)'
_chemical_name_systematic        
'catena-[bis(\m-benzene-1,3,5-tricarboxylato)-tetrakis(\m-hydroxo)-nona-aqua-penta-copper(ii) dodecahydrate]'
_symmetry_cell_setting           orthorhombic
_symmetry_space_group_name_H-M   'I m m m'
_symmetry_Int_Tables_number      71
_space_group_name_Hall           '-I 2 2'
loop_
_symmetry_equiv_pos_site_id
_symmetry_equiv_pos_as_xyz
1 x,y,z
2 -x,-y,z
3 x,-y,-z
4 -x,y,-z
5 1/2+x,1/2+y,1/2+z
6 1/2-x,1/2-y,1/2+z
7 1/2+x,1/2-y,1/2-z
8 1/2-x,1/2+y,1/2-z
9 -x,-y,-z
10 x,y,-z
11 -x,y,z
12 x,-y,z
13 1/2-x,1/2-y,1/2-z
14 1/2+x,1/2+y,1/2-z
15 1/2-x,1/2+y,1/2+z
16 1/2+x,1/2-y,1/2+z
_cell_length_a                   18.6756(26)
_cell_length_b                   18.6311(26)
_cell_length_c                   26.296(7)
_cell_angle_alpha                90
_cell_angle_beta                 90
_cell_angle_gamma                90
_cell_volume                     9149.61
_cell_formula_units_Z            4
loop_
_atom_site_label
_atom_site_type_symbol
_atom_site_fract_x
_atom_site_fract_y
_atom_site_fract_z
_atom_site_U_iso_or_equiv
_atom_site_thermal_displace_type
Cu1 Cu 0.0742(17) 0.500 0.000 0.0420 Uiso
C1 C 0.063528 0.66054(24) 0.14129(11) 0.0571 Uiso
C2 C 0.000 0.6407(5) 0.11938(22) 0.0468 Uiso
C3 C 0.063528 0.70032(24) 0.18510(11) 0.0571 Uiso
C4 C 0.000 0.7202(5) 0.20701(22) 0.0468 Uiso
C5 C 0.000 0.5971(10) 0.0714(5) 0.0591 Uiso
C6 C 0.133083 0.7221(5) 0.20909(23) 0.1045 Uiso
O1 O 0.057499 0.5791(12) 0.0516(6) 0.0774 Uiso
O2 O 0.133083 0.7581(9) 0.2488(4) 0.1143 Uiso
O3 O 0.190583 0.70410(28) 0.18926(13) 0.1621 Uiso
O4 O 0.200(2) 0.500 0.000 0.0250 Uiso
Cu2 Cu 0.209(8) 0.791(8) 0.291(8) 0.0360 Uiso
O5 O 0.161(3) 0.841(5) 0.353(7) 0.3086 Uiso
O6 O 0.225(4) 0.853(8) 0.230(8) 0.5396 Uiso
O7 O 0.211(3) 0.708(6) 0.334(6) 0.0250 Uiso
C1J C -0.063528 0.66054(24) 0.14129(11) 0.0571 Uiso
C3J C -0.063528 0.70032(24) 0.18510(11) 0.0571 Uiso
C6J C -0.133083 0.7221(5) 0.20909(23) 0.1045 Uiso
O1J O -0.057499 0.5791(12) 0.0516(6) 0.0774 Uiso
O2J O -0.133083 0.7581(9) 0.2488(4) 0.1143 Uiso
O3J O -0.190583 0.70410(28) 0.18926(13) 0.1621 Uiso
Cu2J Cu -0.209(8) 0.791(8) 0.291(8) 0.0360 Uiso
O5J O -0.161(3) 0.841(5) 0.353(7) 0.3086 Uiso
O6J O -0.225(4) 0.853(8) 0.230(8) 0.5396 Uiso
O7J O -0.211(3) 0.708(6) 0.334(6) 0.0250 Uiso
C1K C 0.063528 0.33946(24) 0.14129(11) 0.0571 Uiso
C2K C 0.000 0.3593(5) 0.11938(22) 0.0468 Uiso
C3K C 0.063528 0.29968(24) 0.18510(11) 0.0571 Uiso
C4K C 0.000 0.2798(5) 0.20701(22) 0.0468 Uiso
C5K C 0.000 0.4029(10) 0.0714(5) 0.0591 Uiso
C6K C 0.133083 0.2779(5) 0.20909(23) 0.1045 Uiso
O1K O 0.057499 0.4209(12) 0.0516(6) 0.0774 Uiso
O2K O 0.133083 0.2419(9) 0.2488(4) 0.1143 Uiso
O3K O 0.190583 0.29590(28) 0.18926(13) 0.1621 Uiso
Cu2K Cu 0.209(8) 0.209(8) 0.291(8) 0.0360 Uiso
O5K O 0.161(3) 0.159(5) 0.353(7) 0.3086 Uiso
O6K O 0.225(4) 0.147(8) 0.230(8) 0.5396 Uiso
O7K O 0.211(3) 0.292(6) 0.334(6) 0.0250 Uiso
C1A C -0.063528 0.33946(24) 0.14129(11) 0.0571 Uiso
C3A C -0.063528 0.29968(24) 0.18510(11) 0.0571 Uiso
C6A C -0.133083 0.2779(5) 0.20909(23) 0.1045 Uiso
O1A O -0.057499 0.4209(12) 0.0516(6) 0.0774 Uiso
O2A O -0.133083 0.2419(9) 0.2488(4) 0.1143 Uiso
O3A O -0.190583 0.29590(28) 0.18926(13) 0.1621 Uiso
Cu2A Cu -0.209(8) 0.209(8) 0.291(8) 0.0360 Uiso
O5A O -0.161(3) 0.159(5) 0.353(7) 0.3086 Uiso
O6A O -0.225(4) 0.147(8) 0.230(8) 0.5396 Uiso
O7A O -0.211(3) 0.292(6) 0.334(6) 0.0250 Uiso
Cu1J Cu -0.0742(17) 0.500 0.000 0.0420 Uiso
O1B O 0.057499 0.4209(12) -0.0516(6) 0.0774 Uiso
O1I O 0.057499 0.5791(12) -0.0516(6) 0.0774 Uiso
O3L O 0.309417 0.79590(28) 0.31074(13) 0.1621 Uiso
O3F O -0.309417 0.79590(28) 0.31074(13) 0.1621 Uiso
O3G O 0.309417 0.20410(28) 0.31074(13) 0.1621 Uiso
O3M O -0.309417 0.20410(28) 0.31074(13) 0.1621 Uiso
Cu2L Cu 0.291(8) 0.709(8) 0.209(8) 0.0360 Uiso
Cu2F Cu -0.291(8) 0.709(8) 0.209(8) 0.0360 Uiso
Cu2G Cu 0.291(8) 0.291(8) 0.209(8) 0.0360 Uiso
Cu2M Cu -0.291(8) 0.291(8) 0.209(8) 0.0360 Uiso
O8 O 0.1206(30) -0.098(4) 0.560(8) 0.0900 Uiso
O9 O 0.413(5) 0.419(10) 0.632(11) 0.0620 Uiso
O10 O 0.4075(11) 0.873(5) 0.088(3) 0.0410 Uiso
O11 O 0.500 0.000 0.000 0.0920 Uiso
C7? C 0.1899(7) 0.4774(7) 0.51722(25) 0.0940 Uiso
C8? C 0.2406(6) 0.4348(8) 0.53974(14) 0.0940 Uiso
C9? C 0.2514(6) 0.3662(7) 0.52258(18) 0.0940 Uiso
C10? C 0.2842(8) 0.4632(10) 0.58319(30) 0.0940 Uiso
C11? C 0.3301(8) 0.4246(12) 0.60358(32) 0.0940 Uiso
C12? C 0.2744(10) 0.5253(11) 0.5987(5) 0.0940 Uiso
C13? C 0.1609(7) 0.3829(7) 0.46038(14) 0.0940 Uiso
C14? C 0.1501(6) 0.4515(7) 0.47754(18) 0.0940 Uiso
C15? C 0.2115(7) 0.3403(7) 0.48290(25) 0.0940 Uiso
C16? C 0.0946(7) 0.4982(9) 0.4529(4) 0.0940 Uiso
C17? C 0.2234(10) 0.2652(7) 0.4641(5) 0.0940 Uiso
C18? C 0.0848(9) 0.5602(9) 0.4684(6) 0.0940 Uiso
C19? C 0.2692(11) 0.2266(8) 0.4845(7) 0.0940 Uiso
C20? C 0.0585(7) 0.4747(11) 0.4170(4) 0.0940 Uiso
C21? C 0.1873(11) 0.2417(8) 0.4282(6) 0.0940 Uiso
loop_
_geom_bond_atom_site_label_1
_geom_bond_atom_site_label_2
_geom_bond_site_symmetry_1
_geom_bond_site_symmetry_2
Cu1 O1 1_555 1_555
C1 C2 1_555 1_555
C2 C5 1_555 1_555
C3 C1 1_555 1_555
C4 C3 1_555 1_555
C5 O1 1_555 1_555
C6 C3 1_555 1_555
O2 C6 1_555 1_555
O3 C6 1_555 1_555
O4 Cu1 1_555 1_555
Cu2 O2 1_555 1_555
O5 Cu2 1_555 1_555
O6 Cu2 1_555 1_555
O7 Cu2 1_555 1_555
C1J C2 1_555 1_555
C3J C4 1_555 1_555
C6J C3J 1_555 1_555
O1J C5 1_555 1_555
O2J C6J 1_555 1_555
O3J C6J 1_555 1_555
Cu2J O2J 1_555 1_555
O5J Cu2J 1_555 1_555
O6J Cu2J 1_555 1_555
O7J Cu2J 1_555 1_555
C1K C2K 1_555 1_555
C2K C5K 1_555 1_555
C3K C1K 1_555 1_555
C4K C3K 1_555 1_555
C5K O1K 1_555 1_555
C6K C3K 1_555 1_555
O1K Cu1 1_555 1_555
O2K C6K 1_555 1_555
O3K C6K 1_555 1_555
Cu2K O2K 1_555 1_555
O5K Cu2K 1_555 1_555
O6K Cu2K 1_555 1_555
O7K Cu2K 1_555 1_555
C1A C2K 1_555 1_555
C3A C4K 1_555 1_555
C6A C3A 1_555 1_555
O1A C5K 1_555 1_555
O2A C6A 1_555 1_555
O3A C6A 1_555 1_555
Cu2A O2A 1_555 1_555
O5A Cu2A 1_555 1_555
O6A Cu2A 1_555 1_555
O7A Cu2A 1_555 1_555
Cu1J O1J 1_555 1_555
O1B Cu1 1_555 1_555
O1I Cu1 1_555 1_555
O3L Cu2 1_555 1_555
O3F Cu2J 1_555 1_555
O3G Cu2K 1_555 1_555
O3M Cu2A 1_555 1_555
Cu2L O3 1_555 1_555
Cu2F O3J 1_555 1_555
Cu2G O3K 1_555 1_555
Cu2M O3A 1_555 1_555
C1J C3J 1_555 1_555
C1A C3A 1_555 1_555
O1A Cu1J 1_555 1_555

#END
