
#######################################################################
#
#                 Cambridge Crystallographic Data Centre
#                                CCDC 
#
#######################################################################
#
# If this CIF has been generated from an entry in the Cambridge 
# Structural Database, then it will include bibliographic, chemical, 
# crystal, experimental, refinement or atomic coordinate data resulting 
# from the CCDC's data processing and validation procedures.
#
#######################################################################

data_VARTOA
_chemical_formula_moiety         '(C44 H42 N4 O9 Zn2)n,4(H2 O1)'
_chemical_name_systematic        
"catena-[bis(\m-4,4'-ethane-1,2-diyldipyridine)-bis(\m-2,2'-(1,4-phenylene)diacetato)-aqua-zinc tetrahydrate]"
_symmetry_cell_setting           monoclinic
_symmetry_space_group_name_H-M   'P 21'
_symmetry_Int_Tables_number      4
_space_group_name_Hall           'P 2yb'
loop_
_symmetry_equiv_pos_site_id
_symmetry_equiv_pos_as_xyz
1 x,y,z
2 -x,1/2+y,-z
_cell_length_a                   10.5248(6)
_cell_length_b                   17.3943(9)
_cell_length_c                   12.4561(7)
_cell_angle_alpha                90
_cell_angle_beta                 107.918(2)
_cell_angle_gamma                90
_cell_volume                     2169.75
_exptl_crystal_colour            colorless
_exptl_crystal_description       prism
_cell_formula_units_Z            2
loop_
_atom_site_label
_atom_site_type_symbol
_atom_site_fract_x
_atom_site_fract_y
_atom_site_fract_z
C1 C 0.7504(4) 0.5569(3) 0.7969(3)
C2 C 0.6872(5) 0.5661(3) 0.8907(4)
H1 H 0.6062 0.5962 0.8627
H2 H 0.6625 0.5157 0.9113
C3 C 0.7790(4) 0.6047(3) 0.9950(4)
C4 C 0.7920(5) 0.6843(3) 1.0011(4)
H3 H 0.7442 0.7145 0.9406
C5 C 0.8764(5) 0.7190(3) 1.0977(4)
H4 H 0.8829 0.7723 1.1013
C6 C 0.9507(5) 0.6754(3) 1.1883(4)
C7 C 0.9394(5) 0.5961(3) 1.1803(4)
H5 H 0.9897 0.5657 1.2396
C8 C 0.8542(5) 0.5614(3) 1.0850(4)
H6 H 0.8476 0.5081 1.0817
C9 C 1.0392(5) 0.7122(3) 1.2949(4)
H7 H 1.1036 0.6746 1.3367
H8 H 0.9849 0.7275 1.3417
C10 C 1.1132(5) 0.7820(3) 1.2720(3)
C11 C 0.4984(4) 0.3818(3) 0.8885(3)
C12 C 0.4526(5) 0.3592(4) 0.9882(5)
H9 H 0.3997 0.4012 1.0032
H10 H 0.3940 0.3151 0.9664
C13 C 0.5597(5) 0.3398(4) 1.0968(4)
C14 C 0.6475(6) 0.3948(3) 1.1570(5)
H11 H 0.6404 0.4450 1.1298
C15 C 0.7458(5) 0.3775(4) 1.2567(4)
H12 H 0.8047 0.4156 1.2945
C16 C 0.7570(6) 0.3036(3) 1.3008(4)
C17 C 0.6670(6) 0.2490(3) 1.2412(5)
H13 H 0.6712 0.1993 1.2697
C18 C 0.5719(5) 0.2666(3) 1.1411(5)
H14 H 0.5145 0.2283 1.1022
C19 C 0.8630(7) 0.2832(4) 1.4116(5)
H15 H 0.9151 0.3287 1.4420
H16 H 0.8197 0.2661 1.4658
C20 C 0.9545(5) 0.2210(3) 1.3953(4)
C21 C 0.7705(5) 0.6106(5) 0.4115(4)
H17 H 0.8581 0.6087 0.4095
C22 C 0.6686(5) 0.6081(6) 0.3110(4)
H18 H 0.6879 0.6049 0.2431
C23 C 0.5367(5) 0.6105(5) 0.3113(4)
C24 C 0.5162(5) 0.6173(4) 0.4145(4)
H19 H 0.4299 0.6204 0.4193
C25 C 0.6234(5) 0.6195(4) 0.5101(4)
H20 H 0.6068 0.6243 0.5790
C26 C 0.4201(6) 0.6030(8) 0.2046(5)
H21 H 0.3997 0.5487 0.1921
H22 H 0.3433 0.6272 0.2180
C27 C 0.4335(6) 0.6339(4) 0.1035(5)
H23 H 0.5094 0.6101 0.0881
H24 H 0.4514 0.6886 0.1135
C28 C 0.3096(4) 0.6217(3) 0.0029(4)
C29 C 0.1899(5) 0.6564(3) -0.0022(4)
H25 H 0.1831 0.6858 0.0582
C30 C 0.0809(4) 0.6478(3) -0.0964(4)
H26 H 0.0019 0.6725 -0.0980
C31 C 0.1977(4) 0.5701(3) -0.1799(4)
H27 H 0.2014 0.5396 -0.2403
C32 C 0.3107(5) 0.5766(3) -0.0881(4)
H28 H 0.3882 0.5506 -0.0874
C33 C 0.6091(5) 0.3969(4) 0.5324(4)
H29 H 0.6882 0.4238 0.5419
C34 C 0.5233(5) 0.3885(4) 0.4251(4)
H30 H 0.5436 0.4106 0.3643
C35 C 0.4055(5) 0.3466(3) 0.4074(4)
C36 C 0.3803(5) 0.3179(3) 0.5021(4)
H31 H 0.3015 0.2914 0.4952
C37 C 0.4716(5) 0.3285(3) 0.6065(4)
H32 H 0.4537 0.3068 0.6685
C38 C 0.3083(5) 0.3367(4) 0.2908(4)
H33 H 0.3571 0.3240 0.2386
H34 H 0.2489 0.2941 0.2914
C39 C 0.2273(6) 0.4076(3) 0.2508(5)
H35 H 0.2866 0.4482 0.2420
H36 H 0.1890 0.4239 0.3087
C40 C 0.1160(5) 0.3989(3) 0.1412(4)
C41 C 0.0058(5) 0.3542(3) 0.1356(4)
H37 H 0.0024 0.3259 0.1980
C42 C -0.0990(4) 0.3518(3) 0.0368(4)
H38 H -0.1735 0.3226 0.0352
C43 C 0.0080(5) 0.4305(3) -0.0528(4)
H39 H 0.0106 0.4561 -0.1176
C44 C 0.1164(5) 0.4370(3) 0.0440(5)
H40 H 0.1894 0.4670 0.0434
N1 N 0.7499(3) 0.6154(3) 0.5112(3)
N2 N 0.0825(3) 0.6058(3) -0.1860(3)
N3 N 0.5853(4) 0.3685(3) 0.6243(3)
N4 N -0.0993(3) 0.3891(2) -0.0568(3)
O1 O 0.7942(3) 0.6164(2) 0.7638(2)
O2 O 0.7547(3) 0.49225(19) 0.7543(3)
O3 O 1.2052(3) 0.7699(2) 1.2286(3)
O4 O 1.0819(4) 0.8472(2) 1.2954(3)
O5 O 0.6122(3) 0.3588(2) 0.8889(3)
O6 O 0.4214(4) 0.4206(3) 0.8136(3)
O7 O 1.0422(4) 0.2344(3) 1.3471(3)
O8 O 0.9403(4) 0.1535(2) 1.4236(3)
Zn1 Zn 0.72819(4) 0.37868(3) 0.79053(4)
Zn2 Zn 0.91427(5) 0.61013(3) 0.66224(4)
O9 O 0.9462(4) 0.4969(2) 0.6225(3)
H41 H 0.925(6) 0.455(2) 0.644(5)
H42 H 0.990(6) 0.484(3) 0.582(5)
N2_2 N 1.0825(3) 0.6058(3) 0.8140(3)
N4_2 N 0.9007(3) 0.3891(2) 0.9432(3)
O3A O 0.7948(3) 0.2699(2) 0.7714(3)
O7A O 0.9578(4) 0.7344(3) 0.6529(3)
O8A O 1.0597(4) 0.6535(2) 0.5764(3)
Zn1_2 Zn -0.27181(4) 0.37868(3) -0.20947(4)
Zn1A Zn 1.27181(4) 0.87868(3) 1.20947(4)
Zn2_2 Zn -0.08573(5) 0.61013(3) -0.33776(4)
Zn2A Zn 1.08573(5) 0.11013(3) 1.33776(4)
O10 O 0.4403(5) 0.5284(3) 0.6593(4)
H43 H 0.417(8) 0.492(4) 0.696(7)
H44 H 0.362(5) 0.539(5) 0.614(6)
O11 O 0.7772(6) 0.0737(4) 1.5174(5)
H45 H 0.800(9) 0.095(4) 1.463(7)
H46 H 0.724(5) 0.108(3) 1.527(5)
O12 O 1.0700(7) 0.4498(5) 0.4751(6)
H47 H 1.125(10) 0.487(4) 0.479(11)
H48 H 1.120(9) 0.412(4) 0.473(11)
O13 O 0.1778(7) 0.3538(5) 0.6650(7)
H49 H 0.199(13) 0.401(3) 0.676(12)
H50 H 0.120(9) 0.352(7) 0.701(9)
loop_
_geom_bond_atom_site_label_1
_geom_bond_atom_site_label_2
_geom_bond_site_symmetry_1
_geom_bond_site_symmetry_2
C1 C2 1_555 1_555
C2 H1 1_555 1_555
H2 C2 1_555 1_555
C3 C2 1_555 1_555
C4 C3 1_555 1_555
H3 C4 1_555 1_555
C5 C4 1_555 1_555
H4 C5 1_555 1_555
C6 C5 1_555 1_555
C7 C6 1_555 1_555
H5 C7 1_555 1_555
C8 C3 1_555 1_555
H6 C8 1_555 1_555
C9 C6 1_555 1_555
H7 C9 1_555 1_555
H8 C9 1_555 1_555
C10 C9 1_555 1_555
C11 C12 1_555 1_555
C12 H9 1_555 1_555
H10 C12 1_555 1_555
C13 C12 1_555 1_555
C14 C13 1_555 1_555
H11 C14 1_555 1_555
C15 C14 1_555 1_555
H12 C15 1_555 1_555
C16 C15 1_555 1_555
C17 C16 1_555 1_555
H13 C17 1_555 1_555
C18 C13 1_555 1_555
H14 C18 1_555 1_555
C19 C16 1_555 1_555
H15 C19 1_555 1_555
H16 C19 1_555 1_555
C20 C19 1_555 1_555
C21 H17 1_555 1_555
C22 C21 1_555 1_555
H18 C22 1_555 1_555
C23 C22 1_555 1_555
C24 C23 1_555 1_555
H19 C24 1_555 1_555
C25 C24 1_555 1_555
H20 C25 1_555 1_555
C26 C23 1_555 1_555
H21 C26 1_555 1_555
H22 C26 1_555 1_555
C27 C26 1_555 1_555
H23 C27 1_555 1_555
H24 C27 1_555 1_555
C28 C27 1_555 1_555
C29 C28 1_555 1_555
H25 C29 1_555 1_555
C30 C29 1_555 1_555
H26 C30 1_555 1_555
C31 H27 1_555 1_555
C32 C28 1_555 1_555
H28 C32 1_555 1_555
C33 H29 1_555 1_555
C34 C33 1_555 1_555
H30 C34 1_555 1_555
C35 C34 1_555 1_555
C36 C35 1_555 1_555
H31 C36 1_555 1_555
C37 C36 1_555 1_555
H32 C37 1_555 1_555
C38 C35 1_555 1_555
H33 C38 1_555 1_555
H34 C38 1_555 1_555
C39 C38 1_555 1_555
H35 C39 1_555 1_555
H36 C39 1_555 1_555
C40 C39 1_555 1_555
C41 C40 1_555 1_555
H37 C41 1_555 1_555
C42 C41 1_555 1_555
H38 C42 1_555 1_555
C43 H39 1_555 1_555
C44 C40 1_555 1_555
H40 C44 1_555 1_555
N1 C21 1_555 1_555
N2 C30 1_555 1_555
N3 C33 1_555 1_555
N4 C42 1_555 1_555
O1 C1 1_555 1_555
O2 C1 1_555 1_555
O3 C10 1_555 1_555
O4 C10 1_555 1_555
O5 C11 1_555 1_555
O6 C11 1_555 1_555
O7 C20 1_555 1_555
O8 C20 1_555 1_555
Zn1 N3 1_555 1_555
Zn2 N1 1_555 1_555
O9 Zn2 1_555 1_555
H41 O9 1_555 1_555
H42 O9 1_555 1_555
O10 H43 1_555 1_555
H44 O10 1_555 1_555
O11 H45 1_555 1_555
H46 O11 1_555 1_555
O12 H47 1_555 1_555
H48 O12 1_555 1_555
O13 H49 1_555 1_555
H50 O13 1_555 1_555
N2_2 Zn2 1_555 1_555
N4_2 Zn1 1_555 1_555
O3A Zn1 1_555 1_555
O7A Zn2 1_555 1_555
O8A Zn2 1_555 1_555
Zn1_2 N4 1_555 1_555
Zn1A O3 1_555 1_555
Zn2_2 N2 1_555 1_555
Zn2A O7 1_555 1_555
C7 C8 1_555 1_555
C17 C18 1_555 1_555
C25 N1 1_555 1_555
C31 C32 1_555 1_555
C31 N2 1_555 1_555
C37 N3 1_555 1_555
C43 C44 1_555 1_555
C43 N4 1_555 1_555
O1 Zn2 1_555 1_555
O2 Zn1 1_555 1_555
O5 Zn1 1_555 1_555
O8 Zn2A 1_555 1_555

#END
