
#######################################################################
#
#                 Cambridge Crystallographic Data Centre
#                                CCDC 
#
#######################################################################
#
# If this CIF has been generated from an entry in the Cambridge 
# Structural Database, then it will include bibliographic, chemical, 
# crystal, experimental, refinement or atomic coordinate data resulting 
# from the CCDC's data processing and validation procedures.
#
#######################################################################

data_COKNUN01
_chemical_name_common            CPO-27-Mn
_chemical_formula_moiety         '(C8 H2 Mn2 O6)n'
_chemical_name_systematic        
catena-((\m-2,5-dioxido-1,4-benzenedicarboxylate)-di-manganese(ii))
_symmetry_cell_setting           rhombohedral
_symmetry_space_group_name_H-M   'R -3'
_symmetry_Int_Tables_number      148
_space_group_name_Hall           '-R 3'
loop_
_symmetry_equiv_pos_site_id
_symmetry_equiv_pos_as_xyz
1 x,y,z
2 -y,x-y,z
3 -x+y,-x,z
4 2/3+x,1/3+y,1/3+z
5 2/3-y,1/3+x-y,1/3+z
6 2/3-x+y,1/3-x,1/3+z
7 1/3+x,2/3+y,2/3+z
8 1/3-y,2/3+x-y,2/3+z
9 1/3-x+y,2/3-x,2/3+z
10 -x,-y,-z
11 y,-x+y,-z
12 x-y,x,-z
13 1/3-x,2/3-y,2/3-z
14 1/3+y,2/3-x+y,2/3-z
15 1/3+x-y,2/3+x,2/3-z
16 2/3-x,1/3-y,1/3-z
17 2/3+y,1/3-x+y,1/3-z
18 2/3+x-y,1/3+x,1/3-z
_cell_length_a                   26.2958(6)
_cell_length_b                   26.2958(6)
_cell_length_c                   7.05164(19)
_cell_angle_alpha                90
_cell_angle_beta                 90
_cell_angle_gamma                120
_cell_volume                     4222.73
_cell_formula_units_Z            9
loop_
_atom_site_label
_atom_site_type_symbol
_atom_site_fract_x
_atom_site_fract_y
_atom_site_fract_z
Mn1 Mn 0.9497(4) 0.6389(4) 0.0280(14)
C1 C 1.0134(2) 0.5921(3) -0.2542(7)
C2 C 1.0057(2) 0.5458(3) -0.1209(7)
C3 C 0.9904(2) 0.5455(2) 0.0751(6)
C4 C 0.9836(2) 0.4982(2) 0.1868(6)
H1 H 0.9727(5) 0.4976(4) 0.3376(15)
O1 O 1.0319(3) 0.5925(4) -0.4218(8)
O2 O 1.0051(2) 0.6325(2) -0.1938(8)
O3 O 0.9776(2) 0.5850(2) 0.1554(9)
C1I C 0.9866(2) 0.4079(3) 0.2542(7)
C2I C 0.9943(2) 0.4542(3) 0.1209(7)
C3I C 1.0096(2) 0.4545(2) -0.0751(6)
C4I C 1.0164(2) 0.5018(2) -0.1868(6)
H1I H 1.0273(5) 0.5024(4) -0.3376(15)
O1I O 0.9681(3) 0.4075(4) 0.4218(8)
O2I O 0.9949(2) 0.3675(2) 0.1938(8)
O3I O 1.0224(2) 0.4150(2) -0.1554(9)
Mn1I Mn 1.0503(4) 0.3611(4) -0.0280(14)
Mn1D Mn 1.0278(4) 0.6441(6) -0.6387(14)
Mn1D_2 Mn 1.0278(4) 0.6441(6) 0.3613(14)
Mn1Q Mn 0.9775(6) 0.2830(4) 0.3053(14)
Mn1H Mn 1.0225(6) 0.7170(4) -0.3053(14)
Mn1M Mn 0.9722(4) 0.3559(6) -0.3613(14)
Mn1M_2 Mn 0.9722(4) 0.3559(6) 0.6387(14)
O1Q O 1.1061(5) 0.3652(3) -0.2449(8)
O1H O 0.8939(5) 0.6348(3) 0.2449(8)
O2D O 1.0342(2) 0.7059(3) 0.1395(8)
O2M O 0.9658(2) 0.2941(3) -0.1395(8)
O3Q O 1.0593(3) 0.3109(2) 0.1779(9)
O3H O 0.9407(3) 0.6891(2) -0.1779(9)
loop_
_geom_bond_atom_site_label_1
_geom_bond_atom_site_label_2
_geom_bond_site_symmetry_1
_geom_bond_site_symmetry_2
Mn1 O2 1_555 1_555
C1 C2 1_555 1_555
C2 C3 1_555 1_555
C3 C4 1_555 1_555
C4 H1 1_555 1_555
O1 C1 1_555 1_555
O2 C1 1_555 1_555
O3 Mn1 1_555 1_555
C1I C2I 1_555 1_555
C2I C4 1_555 1_555
C3I C2I 1_555 1_555
C4I C2 1_555 1_555
H1I C4I 1_555 1_555
O1I C1I 1_555 1_555
O2I C1I 1_555 1_555
O3I C3I 1_555 1_555
Mn1I O2I 1_555 1_555
Mn1D O1 1_555 1_555
Mn1D_2 O3 1_555 1_555
Mn1Q O2I 1_555 1_555
Mn1H O2 1_555 1_555
Mn1M O3I 1_555 1_555
Mn1M_2 O1I 1_555 1_555
O1Q Mn1I 1_555 1_555
O1H Mn1 1_555 1_555
O2D Mn1 1_555 1_555
O2M Mn1I 1_555 1_555
O3Q Mn1I 1_555 1_555
O3H Mn1 1_555 1_555
C3 O3 1_555 1_555
C3I C4I 1_555 1_555
O3I Mn1I 1_555 1_555
Mn1D_2 O2D 1_555 1_555
Mn1Q O3Q 1_555 1_555
Mn1H O3H 1_555 1_555
Mn1M O2M 1_555 1_555

#END
