
#######################################################################
#
#                 Cambridge Crystallographic Data Centre
#                                CCDC 
#
#######################################################################
#
# If this CIF has been generated from an entry in the Cambridge 
# Structural Database, then it will include bibliographic, chemical, 
# crystal, experimental, refinement or atomic coordinate data resulting 
# from the CCDC's data processing and validation procedures.
#
#######################################################################

data_COKNIB02
_chemical_name_common            CPO-27-Cu
_chemical_formula_moiety         '(C8 H2 Cu2 O6)n'
_chemical_name_systematic        
catena-((\m-2,5-dioxido-1,4-benzenedicarboxylate)-di-copper(ii))
_symmetry_cell_setting           rhombohedral
_symmetry_space_group_name_H-M   'R -3'
_symmetry_Int_Tables_number      148
_space_group_name_Hall           '-R 3'
loop_
_symmetry_equiv_pos_site_id
_symmetry_equiv_pos_as_xyz
1 x,y,z
2 -y,x-y,z
3 -x+y,-x,z
4 2/3+x,1/3+y,1/3+z
5 2/3-y,1/3+x-y,1/3+z
6 2/3-x+y,1/3-x,1/3+z
7 1/3+x,2/3+y,2/3+z
8 1/3-y,2/3+x-y,2/3+z
9 1/3-x+y,2/3-x,2/3+z
10 -x,-y,-z
11 y,-x+y,-z
12 x-y,x,-z
13 1/3-x,2/3-y,2/3-z
14 1/3+y,2/3-x+y,2/3-z
15 1/3+x-y,2/3+x,2/3-z
16 2/3-x,1/3-y,1/3-z
17 2/3+y,1/3-x+y,1/3-z
18 2/3+x-y,1/3+x,1/3-z
_cell_length_a                   25.8810(16)
_cell_length_b                   25.8810(16)
_cell_length_c                   6.2626(4)
_cell_angle_alpha                90
_cell_angle_beta                 90
_cell_angle_gamma                120
_cell_volume                     3632.85
_cell_formula_units_Z            9
loop_
_atom_site_label
_atom_site_type_symbol
_atom_site_fract_x
_atom_site_fract_y
_atom_site_fract_z
Cu1 Cu 0.9473(6) 0.6315(10) -0.0202(19)
C1 C 1.0082(6) 0.5870(9) -0.287(3)
C2 C 1.0228(9) 0.5054(22) -0.209(2)
C3 C 1.0028(12) 0.5423(10) -0.123(6)
C4 C 0.9837(9) 0.5436(14) 0.086(8)
H1 H 1.0379(10) 0.510(2) -0.361(3)
O1 O 1.0408(6) 0.6007(10) -0.456(3)
O2 O 0.9786(9) 0.6139(10) -0.278(3)
O3 O 0.9709(9) 0.5861(9) 0.148(6)
C3I C 0.9972(12) 0.4577(10) 0.123(6)
C4I C 1.0163(9) 0.4564(14) -0.086(8)
O3I O 1.0291(9) 0.4139(9) -0.148(6)
C1I C 0.9918(6) 0.4130(9) 0.287(3)
O1I O 0.9592(6) 0.3993(10) 0.456(3)
C2I C 0.9772(9) 0.4946(22) 0.209(2)
O2I O 1.0214(9) 0.3861(10) 0.278(3)
H1I H 0.9621(10) 0.490(2) 0.361(3)
Cu1I Cu 1.0527(6) 0.3685(10) 0.0202(19)
Cu1D Cu 1.0352(10) 0.6491(12) -0.6869(19)
Cu1D_2 Cu 1.0352(10) 0.6491(12) 0.3131(19)
Cu1Q Cu 0.9825(12) 0.2806(6) 0.3535(19)
Cu1H Cu 1.0175(12) 0.7194(6) -0.3535(19)
Cu1M Cu 0.9648(10) 0.3509(12) -0.3131(19)
Cu1M_2 Cu 0.9648(10) 0.3509(12) 0.6869(19)
O1Q O 1.1068(12) 0.3741(6) -0.211(3)
O1H O 0.8932(12) 0.6259(6) 0.211(3)
O2D O 1.0528(10) 0.6980(13) 0.055(3)
O2M O 0.9472(10) 0.3020(13) -0.055(3)
O3Q O 1.0515(13) 0.3042(9) 0.185(6)
O3H O 0.9485(13) 0.6958(9) -0.185(6)
loop_
_geom_bond_atom_site_label_1
_geom_bond_atom_site_label_2
_geom_bond_site_symmetry_1
_geom_bond_site_symmetry_2
Cu1 O2 1_555 1_555
C1 C3 1_555 1_555
C2 C3 1_555 1_555
C3 C4 1_555 1_555
C4 O3 1_555 1_555
H1 C2 1_555 1_555
O1 C1 1_555 1_555
O2 C1 1_555 1_555
O3 Cu1 1_555 1_555
C3I C4I 1_555 1_555
C4I C2 1_555 1_555
O3I C4I 1_555 1_555
C1I C3I 1_555 1_555
O1I C1I 1_555 1_555
C2I C4 1_555 1_555
O2I C1I 1_555 1_555
H1I C2I 1_555 1_555
Cu1I O3I 1_555 1_555
Cu1D O1 1_555 1_555
Cu1D_2 O3 1_555 1_555
Cu1Q O2I 1_555 1_555
Cu1H O2 1_555 1_555
Cu1M O3I 1_555 1_555
Cu1M_2 O1I 1_555 1_555
O1Q Cu1I 1_555 1_555
O1H Cu1 1_555 1_555
O2D Cu1 1_555 1_555
O2M Cu1I 1_555 1_555
O3Q Cu1I 1_555 1_555
O3H Cu1 1_555 1_555
C3I C2I 1_555 1_555
O2I Cu1I 1_555 1_555
Cu1D_2 O2D 1_555 1_555
Cu1Q O3Q 1_555 1_555
Cu1H O3H 1_555 1_555
Cu1M O2M 1_555 1_555

#END
