
#######################################################################
#
#                 Cambridge Crystallographic Data Centre
#                                CCDC 
#
#######################################################################
#
# If this CIF has been generated from an entry in the Cambridge 
# Structural Database, then it will include bibliographic, chemical, 
# crystal, experimental, refinement or atomic coordinate data resulting 
# from the CCDC's data processing and validation procedures.
#
#######################################################################

data_NEJRUR
_chemical_formula_moiety         '(C26 H16 Cu2 N2 O8)n,n(C2 H6 O1)'
_chemical_name_systematic        
"catena-(bis(\m~4~-Terephthalato)-(\m~2~-4,4'-bipyridine)-di-copper ethanol solvate)"
_symmetry_cell_setting           triclinic
_symmetry_space_group_name_H-M   'P -1'
_symmetry_Int_Tables_number      2
_space_group_name_Hall           '-P 1'
loop_
_symmetry_equiv_pos_site_id
_symmetry_equiv_pos_as_xyz
1 x,y,z
2 -x,-y,-z
_cell_length_a                   10.8111(11)
_cell_length_b                   10.8475(11)
_cell_length_c                   14.0210(15)
_cell_angle_alpha                87.531(3)
_cell_angle_beta                 89.039(3)
_cell_angle_gamma                85.997(2)
_cell_volume                     1638.6
_exptl_crystal_colour            green
_exptl_crystal_description       block
_cell_formula_units_Z            2
loop_
_atom_site_label
_atom_site_type_symbol
_atom_site_fract_x
_atom_site_fract_y
_atom_site_fract_z
C1 C 0.2199(3) 0.5758(2) 0.7074(2)
C2 C 0.4566(3) 0.3367(2) 0.70751(19)
C3 C 0.2279(3) 1.1089(2) 0.7104(2)
C4 C 0.9889(3) 0.3483(2) 0.70899(19)
C5 C 0.2236(3) 0.7141(2) 0.7084(2)
C6 C 0.2288(4) 0.7843(3) 0.6242(2)
H1 H 0.2307 0.7452 0.5656
C7 C 0.2312(4) 0.9107(3) 0.6251(2)
H2 H 0.2355 0.957 0.5671
C8 C 0.2276(3) 0.9702(2) 0.7099(2)
C9 C 0.2195(4) 0.9014(3) 0.7944(2)
H3 H 0.2155 0.9413 0.8527
C10 C 0.2172(4) 0.7743(3) 0.7941(2)
H4 H 0.2113 0.7282 0.8521
C11 C 0.5945(3) 0.3386(2) 0.70794(19)
C12 C 0.6607(3) 0.3529(3) 0.6225(2)
H5 H 0.6183 0.3602 0.5643
C13 C 0.7878(3) 0.3565(3) 0.6224(2)
H6 H 0.8319 0.3666 0.5646
C14 C 0.8511(2) 0.3449(2) 0.70911(19)
C15 C 0.7847(3) 0.3315(3) 0.7940(2)
H7 H 0.8267 0.3247 0.8523
C16 C 0.6579(3) 0.3283(3) 0.7934(2)
H8 H 0.6139 0.319 0.8513
C17 C 0.3291(3) 0.3378(3) 0.4088(2)
H9 H 0.4046 0.3374 0.4411
C18 C 0.3326(3) 0.3337(3) 0.3108(2)
H10 H 0.4091 0.3301 0.2778
C19 C 0.2231(3) 0.3348(3) 0.26087(19)
C20 C 0.1144(3) 0.3390(3) 0.3153(2)
H11 H 0.0373 0.3395 0.2852
C21 C 0.1191(3) 0.3422(3) 0.4121(2)
H12 H 0.0441 0.3446 0.447
N1 N 0.2244(2) 0.3422(2) 0.45999(16)
O1 O 0.2178(2) 0.52863(17) 0.62812(14)
O2 O 0.2195(2) 0.51838(17) 0.78681(15)
O3 O 0.40415(18) 0.3441(2) 0.62760(14)
O4 O 0.40133(18) 0.3289(2) 0.78694(14)
O5 O 0.2319(2) 1.16586(17) 0.63141(14)
O6 O 0.2247(2) 1.15690(17) 0.78985(14)
O7 O 1.04408(18) 0.3512(2) 0.62939(14)
O8 O 1.04045(18) 0.3470(2) 0.78867(14)
Cu1 Cu 0.22429(3) 0.34789(3) 0.61374(2)
Cu2 Cu 0.22092(3) 0.33678(3) 0.80262(2)
N2 N 0.2200(2) 0.3326(2) -0.04380(16)
C22 C 0.1230(4) 0.3786(5) 0.0060(3)
H13 H 0.0528 0.4111 -0.0278
C23 C 0.1192(4) 0.3815(5) 0.1038(3)
H14 H 0.0484 0.4155 0.1355
C24 C 0.2223(3) 0.3330(3) 0.1555(2)
C25 C 0.3186(4) 0.2790(5) 0.1040(3)
H15 H 0.3875 0.2401 0.1358
C26 C 0.3146(4) 0.2816(5) 0.0061(3)
H16 H 0.3829 0.2453 -0.0274
O5_2 O 0.2319(2) 0.16586(17) 0.63141(14)
O6_2 O 0.2247(2) 0.15690(17) 0.78985(14)
O7_2 O 0.04408(18) 0.3512(2) 0.62939(14)
O8_2 O 0.04045(18) 0.3470(2) 0.78867(14)
Cu1_2 Cu 0.22429(3) 1.34789(3) 0.61374(2)
Cu1_3 Cu 1.22429(3) 0.34789(3) 0.61374(2)
Cu2_2 Cu 0.22092(3) 1.33678(3) 0.80262(2)
Cu2_3 Cu 1.22092(3) 0.33678(3) 0.80262(2)
Cu2_4 Cu 0.22092(3) 0.33678(3) -0.19738(2)
N2_2 N 0.2200(2) 0.3326(2) 0.95620(16)
C27? C 0.1345(15) 0.2966(17) 0.0087(10)
C28? C 0.1286(14) 0.2952(17) 0.1061(10)
C29? C 0.2223(3) 0.3330(3) 0.1555(2)
C30? C 0.3226(13) 0.3737(15) 0.1009(9)
C31? C 0.3165(13) 0.3756(16) 0.0009(9)
H17? H 0.0665 0.2671 -0.0221
H18? H 0.0582 0.2675 0.1385
H19? H 0.393 0.3993 0.1309
H20? H 0.3813 0.4077 -0.0358
N3? N 0.2200(2) 0.3326(2) -0.04380(16)
loop_
_geom_bond_atom_site_label_1
_geom_bond_atom_site_label_2
_geom_bond_site_symmetry_1
_geom_bond_site_symmetry_2
C1 C5 1_555 1_555
C2 C11 1_555 1_555
C3 C8 1_555 1_555
C4 C14 1_555 1_555
C5 C6 1_555 1_555
C6 H1 1_555 1_555
C7 C6 1_555 1_555
H2 C7 1_555 1_555
C8 C7 1_555 1_555
C9 C8 1_555 1_555
H3 C9 1_555 1_555
C10 C5 1_555 1_555
H4 C10 1_555 1_555
C11 C12 1_555 1_555
C12 H5 1_555 1_555
C13 C12 1_555 1_555
H6 C13 1_555 1_555
C14 C13 1_555 1_555
C15 C14 1_555 1_555
H7 C15 1_555 1_555
C16 C11 1_555 1_555
H8 C16 1_555 1_555
C17 H9 1_555 1_555
C18 C17 1_555 1_555
H10 C18 1_555 1_555
C19 C18 1_555 1_555
C20 C19 1_555 1_555
H11 C20 1_555 1_555
C21 C20 1_555 1_555
H12 C21 1_555 1_555
N1 C17 1_555 1_555
O1 C1 1_555 1_555
O2 C1 1_555 1_555
O3 C2 1_555 1_555
O4 C2 1_555 1_555
O5 C3 1_555 1_555
O6 C3 1_555 1_555
O7 C4 1_555 1_555
O8 C4 1_555 1_555
Cu1 N1 1_555 1_555
Cu2 O2 1_555 1_555
N2 C22 1_555 1_555
C22 H13 1_555 1_555
C23 C22 1_555 1_555
H14 C23 1_555 1_555
C24 C19 1_555 1_555
C25 C24 1_555 1_555
H15 C25 1_555 1_555
C26 N2 1_555 1_555
H16 C26 1_555 1_555
O5_2 Cu1 1_555 1_555
O6_2 Cu2 1_555 1_555
O7_2 Cu1 1_555 1_555
O8_2 Cu2 1_555 1_555
Cu1_2 O5 1_555 1_555
Cu1_3 O7 1_555 1_555
Cu2_2 O6 1_555 1_555
Cu2_3 O8 1_555 1_555
Cu2_4 N2 1_555 1_555
N2_2 Cu2 1_555 1_555
C9 C10 1_555 1_555
C15 C16 1_555 1_555
C21 N1 1_555 1_555
O1 Cu1 1_555 1_555
O3 Cu1 1_555 1_555
O4 Cu2 1_555 1_555
C23 C24 1_555 1_555
C25 C26 1_555 1_555

#END
