
#######################################################################
#
#                 Cambridge Crystallographic Data Centre
#                                CCDC 
#
#######################################################################
#
# If this CIF has been generated from an entry in the Cambridge 
# Structural Database, then it will include bibliographic, chemical, 
# crystal, experimental, refinement or atomic coordinate data resulting 
# from the CCDC's data processing and validation procedures.
#
#######################################################################

data_NEJSAY
_chemical_formula_moiety         '(C52 H32 Cu4 N4 O16)n,n(C1 H4 O1)'
_chemical_name_systematic        
"catena-(tetrakis(\m~4~-Terephthalato)-bis(\m~2~-4,4'-bipyridine)-tetra-copper methanol solvate)"
_symmetry_cell_setting           triclinic
_symmetry_space_group_name_H-M   'P -1'
_symmetry_Int_Tables_number      2
_space_group_name_Hall           '-P 1'
loop_
_symmetry_equiv_pos_site_id
_symmetry_equiv_pos_as_xyz
1 x,y,z
2 -x,-y,-z
_cell_length_a                   10.8195(18)
_cell_length_b                   14.004(3)
_cell_length_c                   21.682(4)
_cell_angle_alpha                87.570(4)
_cell_angle_beta                 86.557(5)
_cell_angle_gamma                88.083(5)
_cell_volume                     3274.72
_exptl_crystal_colour            green
_exptl_crystal_description       block
_cell_formula_units_Z            2
loop_
_atom_site_label
_atom_site_type_symbol
_atom_site_fract_x
_atom_site_fract_y
_atom_site_fract_z
C1 C 0.7664(3) 0.7892(3) 0.21317(18)
C2 C 1.0016(3) 0.7887(3) 0.32576(17)
C3 C 0.7704(3) 0.7874(3) 0.44625(18)
C4 C 1.5337(3) 0.7912(3) 0.33300(18)
C5 C 0.7992(3) 0.7895(3) 0.71183(18)
C6 C 1.0313(3) 0.7912(3) 0.82707(18)
C7 C 0.7873(3) 0.7901(3) -0.05386(18)
C8 C 1.5639(3) 0.7956(3) 0.83094(18)
C9 C 0.7680(3) 0.7884(3) 0.14349(18)
C10 C 0.7864(4) 0.7042(3) 0.1134(2)
H1 H 0.7944 0.6462 0.1364
C11 C 0.7931(4) 0.7040(3) 0.0498(2)
H2 H 0.8069 0.6459 0.0299
C12 C 0.7796(4) 0.7885(3) 0.01462(19)
C13 C 0.7620(5) 0.8736(4) 0.0452(2)
H3 H 0.754 0.9319 0.0224
C14 C 0.7564(5) 0.8725(3) 0.1089(2)
H4 H 0.7444 0.9305 0.1291
C15 C 1.1388(3) 0.7889(3) 0.32707(19)
C16 C 1.1999(4) 0.8747(3) 0.3231(2)
H5 H 1.1541 0.9326 0.3188
C17 C 1.3271(3) 0.8761(3) 0.3254(2)
H6 H 1.3676 0.9346 0.3229
C18 C 1.3945(3) 0.7915(3) 0.33133(19)
C19 C 1.3350(3) 0.7054(3) 0.3355(2)
H7 H 1.3814 0.6479 0.3404
C20 C 1.2076(3) 0.7032(3) 0.3326(2)
H8 H 1.1678 0.6444 0.3344
C21 C 0.7795(3) 0.7870(3) 0.51530(18)
C22 C 0.7597(4) 0.8728(3) 0.5469(2)
H9 H 0.7408 0.9301 0.5248
C23 C 0.7677(5) 0.8728(3) 0.6088(2)
H10 H 0.7557 0.9306 0.6292
C24 C 0.7935(3) 0.7893(3) 0.64314(19)
C25 C 0.8134(4) 0.7039(3) 0.6120(2)
H11 H 0.8312 0.6466 0.6343
C26 C 0.8068(4) 0.7038(3) 0.5485(2)
H12 H 0.8211 0.6465 0.5278
C27 C 1.1693(3) 0.7921(3) 0.82838(18)
C28 C 1.2298(3) 0.8789(3) 0.8222(2)
H13 H 1.1836 0.9367 0.818
C29 C 1.3576(3) 0.8799(3) 0.8222(2)
H14 H 1.3985 0.9381 0.8168
C30 C 1.4256(3) 0.7943(3) 0.83023(19)
C31 C 1.3654(3) 0.7071(3) 0.8359(2)
H15 H 1.4113 0.6493 0.8404
C32 C 1.2373(3) 0.7069(3) 0.8347(2)
H16 H 1.1964 0.6486 0.8381
C33 C 0.6820(5) 0.4933(4) 0.3628(3)
H17 H 0.6171 0.528 0.3832
C34 C 0.6762(5) 0.3957(4) 0.3648(3)
H18 H 0.6097 0.3653 0.3866
C35 C 0.7674(4) 0.3430(3) 0.3350(2)
C36 C 0.8621(5) 0.3933(3) 0.3045(3)
H19 H 0.9273 0.3605 0.2829
C37 C 0.8606(5) 0.4906(4) 0.3057(3)
H20 H 0.9262 0.5234 0.2849
C38 C 0.6573(4) 0.0908(3) 0.3338(2)
H21 H 0.5813 0.0599 0.3356
C39 C 0.6559(4) 0.1886(3) 0.3356(2)
H22 H 0.5799 0.2231 0.3383
C40 C 0.7654(4) 0.2365(3) 0.3335(2)
C41 C 0.8738(4) 0.1809(3) 0.3296(2)
H23 H 0.951 0.21 0.3284
C42 C 0.8683(4) 0.0842(3) 0.3276(2)
H24 H 0.943 0.048 0.3248
C43 C 0.6883(4) 0.0930(3) 0.8325(2)
H25 H 0.6126 0.0618 0.8328
C44 C 0.6862(4) 0.1910(3) 0.8358(2)
H26 H 0.6099 0.2252 0.8381
C45 C 0.7946(4) 0.2393(3) 0.83578(19)
C46 C 0.9024(4) 0.1830(3) 0.8330(2)
H27 H 0.9798 0.2116 0.8326
C47 C 0.8965(4) 0.0863(3) 0.8309(2)
H28 H 0.971 0.0498 0.8306
Cu1 Cu 0.77126(4) 0.69510(3) 0.33223(2)
Cu2 Cu 0.76300(4) -0.11567(3) 0.32709(2)
Cu3 Cu 0.80168(4) 0.69722(3) 0.83121(2)
Cu4 Cu 0.79285(4) 0.88665(3) 0.82608(2)
N1 N 0.7709(3) 0.5411(3) 0.33473(17)
N2 N 0.7614(3) 0.0379(2) 0.32946(16)
N3 N 0.7920(3) 0.0412(2) 0.82911(15)
O1 O 0.7686(3) 0.7099(2) 0.24172(13)
O2 O 0.7659(3) 0.8690(2) 0.23731(13)
O3 O 0.9518(2) 0.7075(2) 0.32573(15)
O4 O 0.9434(2) 0.8677(2) 0.32394(15)
O5 O 0.7741(3) 0.7072(2) 0.42180(13)
O6 O 0.7597(3) 0.8665(2) 0.41789(13)
O7 O 1.5901(2) 0.7128(2) 0.33738(15)
O8 O 1.5839(2) 0.8717(2) 0.33081(15)
O9 O 0.8032(3) 0.7095(2) 0.74059(13)
O10 O 0.7998(3) 0.8688(2) 0.73578(13)
O11 O 0.9823(2) 0.7117(2) 0.82747(15)
O12 O 0.9734(2) 0.8705(2) 0.82530(14)
O13 O 0.7968(3) 0.7098(2) -0.07892(13)
O14 O 0.7829(3) 0.8683(2) -0.08300(13)
O15 O 1.6211(2) 0.7155(2) 0.83409(15)
O16 O 1.6142(2) 0.8747(2) 0.82691(15)
N4 N 0.8026(3) 0.5438(2) 0.83576(16)
C48 C 0.7072(7) 0.4952(6) 0.8644(5)
H29 H 0.6427 0.53 0.885
C49 C 0.7010(7) 0.3980(6) 0.8646(5)
H30 H 0.6317 0.3674 0.8836
C50 C 0.7972(4) 0.3445(3) 0.8367(2)
C51 C 0.8968(7) 0.3936(6) 0.8106(5)
H31 H 0.966 0.3603 0.7928
C52 C 0.8939(8) 0.4923(7) 0.8108(6)
H32 H 0.9618 0.5245 0.7917
Cu1_2 Cu 1.77126(4) 0.69510(3) 0.33223(2)
Cu2_2 Cu 0.76300(4) 0.88433(3) 0.32709(2)
Cu2_3 Cu 1.76300(4) 0.88433(3) 0.32709(2)
Cu3_2 Cu 0.80168(4) 0.69722(3) -0.16879(2)
Cu3_3 Cu 1.80168(4) 0.69722(3) 0.83121(2)
Cu4_2 Cu 0.79285(4) -0.11335(3) 0.82608(2)
Cu4_3 Cu 0.79285(4) 0.88665(3) -0.17392(2)
Cu4_4 Cu 1.79285(4) 0.88665(3) 0.82608(2)
N3_2 N 0.7920(3) 1.0412(2) 0.82911(15)
O2_2 O 0.7659(3) -0.1310(2) 0.23731(13)
O4_2 O 0.9434(2) -0.1323(2) 0.32394(15)
O6_2 O 0.7597(3) -0.1335(2) 0.41789(13)
O7_2 O 0.5901(2) 0.7128(2) 0.33738(15)
O8_2 O 0.5839(2) -0.1283(2) 0.33081(15)
O13_2 O 0.7968(3) 0.7098(2) 0.92108(13)
O14_2 O 0.7829(3) 0.8683(2) 0.91700(13)
O15_2 O 0.6211(2) 0.7155(2) 0.83409(15)
O16_2 O 0.6142(2) 0.8747(2) 0.82691(15)
C53? C 0.7150(9) 0.5011(7) 0.8094(5)
C54? C 0.7079(9) 0.4010(7) 0.8105(6)
C55? C 0.7972(4) 0.3445(3) 0.8367(2)
C56? C 0.8949(9) 0.3911(7) 0.8618(6)
C57? C 0.8942(9) 0.4882(7) 0.8611(6)
H33? H 0.6548 0.5386 0.7891
H34? H 0.6412 0.3728 0.793
H35? H 0.9603 0.3552 0.879
H36? H 0.9592 0.5183 0.8787
N5? N 0.8026(3) 0.5438(2) 0.83576(16)
loop_
_geom_bond_atom_site_label_1
_geom_bond_atom_site_label_2
_geom_bond_site_symmetry_1
_geom_bond_site_symmetry_2
C1 C9 1_555 1_555
C2 C15 1_555 1_555
C3 C21 1_555 1_555
C4 C18 1_555 1_555
C5 C24 1_555 1_555
C6 C27 1_555 1_555
C7 C12 1_555 1_555
C8 C30 1_555 1_555
C9 C10 1_555 1_555
C10 H1 1_555 1_555
C11 C10 1_555 1_555
H2 C11 1_555 1_555
C12 C11 1_555 1_555
C13 C12 1_555 1_555
H3 C13 1_555 1_555
C14 C9 1_555 1_555
H4 C14 1_555 1_555
C15 C16 1_555 1_555
C16 H5 1_555 1_555
C17 C16 1_555 1_555
H6 C17 1_555 1_555
C18 C17 1_555 1_555
C19 C18 1_555 1_555
H7 C19 1_555 1_555
C20 C15 1_555 1_555
H8 C20 1_555 1_555
C21 C22 1_555 1_555
C22 H9 1_555 1_555
C23 C22 1_555 1_555
H10 C23 1_555 1_555
C24 C23 1_555 1_555
C25 C24 1_555 1_555
H11 C25 1_555 1_555
C26 C21 1_555 1_555
H12 C26 1_555 1_555
C27 C28 1_555 1_555
C28 H13 1_555 1_555
C29 C28 1_555 1_555
H14 C29 1_555 1_555
C30 C29 1_555 1_555
C31 C30 1_555 1_555
H15 C31 1_555 1_555
C32 C27 1_555 1_555
H16 C32 1_555 1_555
C33 H17 1_555 1_555
C34 C33 1_555 1_555
H18 C34 1_555 1_555
C35 C34 1_555 1_555
C36 C35 1_555 1_555
H19 C36 1_555 1_555
C37 C36 1_555 1_555
H20 C37 1_555 1_555
C38 H21 1_555 1_555
C39 C38 1_555 1_555
H22 C39 1_555 1_555
C40 C35 1_555 1_555
C41 C40 1_555 1_555
H23 C41 1_555 1_555
C42 C41 1_555 1_555
H24 C42 1_555 1_555
C43 H25 1_555 1_555
C44 C43 1_555 1_555
H26 C44 1_555 1_555
C45 C44 1_555 1_555
C46 C45 1_555 1_555
H27 C46 1_555 1_555
C47 C46 1_555 1_555
H28 C47 1_555 1_555
Cu1 N1 1_555 1_555
Cu2 N2 1_555 1_555
Cu3 O9 1_555 1_555
Cu4 O10 1_555 1_555
N1 C33 1_555 1_555
N2 C38 1_555 1_555
N3 C43 1_555 1_555
O1 C1 1_555 1_555
O2 C1 1_555 1_555
O3 C2 1_555 1_555
O4 C2 1_555 1_555
O5 C3 1_555 1_555
O6 C3 1_555 1_555
O7 C4 1_555 1_555
O8 C4 1_555 1_555
O9 C5 1_555 1_555
O10 C5 1_555 1_555
O11 C6 1_555 1_555
O12 C6 1_555 1_555
O13 C7 1_555 1_555
O14 C7 1_555 1_555
O15 C8 1_555 1_555
O16 C8 1_555 1_555
N4 Cu3 1_555 1_555
C48 N4 1_555 1_555
H29 C48 1_555 1_555
C49 C48 1_555 1_555
H30 C49 1_555 1_555
C50 C45 1_555 1_555
C51 C50 1_555 1_555
H31 C51 1_555 1_555
C52 N4 1_555 1_555
H32 C52 1_555 1_555
Cu1_2 O7 1_555 1_555
Cu2_2 O2 1_555 1_555
Cu2_3 O8 1_555 1_555
Cu3_2 O13 1_555 1_555
Cu3_3 O15 1_555 1_555
Cu4_2 N3 1_555 1_555
Cu4_3 O14 1_555 1_555
Cu4_4 O16 1_555 1_555
N3_2 Cu4 1_555 1_555
O2_2 Cu2 1_555 1_555
O4_2 Cu2 1_555 1_555
O6_2 Cu2 1_555 1_555
O7_2 Cu1 1_555 1_555
O8_2 Cu2 1_555 1_555
O13_2 Cu3 1_555 1_555
O14_2 Cu4 1_555 1_555
O15_2 Cu3 1_555 1_555
O16_2 Cu4 1_555 1_555
C13 C14 1_555 1_555
C19 C20 1_555 1_555
C25 C26 1_555 1_555
C31 C32 1_555 1_555
C37 N1 1_555 1_555
C39 C40 1_555 1_555
C42 N2 1_555 1_555
C47 N3 1_555 1_555
Cu1 O1 1_555 1_555
Cu1 O3 1_555 1_555
Cu1 O5 1_555 1_555
Cu3 O11 1_555 1_555
Cu4 O12 1_555 1_555
O4 Cu2_2 1_555 1_555
O6 Cu2_2 1_555 1_555
C49 C50 1_555 1_555
C51 C52 1_555 1_555

#END
