
#######################################################################
#
#                 Cambridge Crystallographic Data Centre
#                                CCDC 
#
#######################################################################
#
# If this CIF has been generated from an entry in the Cambridge 
# Structural Database, then it will include bibliographic, chemical, 
# crystal, experimental, refinement or atomic coordinate data resulting 
# from the CCDC's data processing and validation procedures.
#
#######################################################################

data_NEJSOM
_chemical_formula_moiety         '(C28 H18 Cu2 N2 O8)n,n(C2 H6 O1)'
_chemical_name_systematic        
'catena-(bis(\m~4~-Terephthalato)-(\m~2~-1,2-bis(4-pyridyl)ethene)-di-copper ethanol solvate)'
_symmetry_cell_setting           triclinic
_symmetry_space_group_name_H-M   'P -1'
_symmetry_Int_Tables_number      2
_space_group_name_Hall           '-P 1'
loop_
_symmetry_equiv_pos_site_id
_symmetry_equiv_pos_as_xyz
1 x,y,z
2 -x,-y,-z
_cell_length_a                   10.806(2)
_cell_length_b                   10.834(2)
_cell_length_c                   16.270(4)
_cell_angle_alpha                90.492(4)
_cell_angle_beta                 97.154(4)
_cell_angle_gamma                90.855(4)
_cell_volume                     1889.62
_exptl_crystal_colour            green
_exptl_crystal_description       block
_cell_formula_units_Z            2
loop_
_atom_site_label
_atom_site_type_symbol
_atom_site_fract_x
_atom_site_fract_y
_atom_site_fract_z
N1 N 0.7326(3) 0.1616(3) -1.4790(2)
C1 C 0.5674(9) 0.1357(13) -0.9595(6)
H1 H 0.4967 0.1106 -0.9352
C2 C 0.5596(9) 0.1366(14) -1.0451(5)
H2 H 0.4842 0.1141 -1.0774
C3 C 0.6614(4) 0.1701(5) -1.0830(3)
C4 C 0.7641(7) 0.2152(8) -1.0317(4)
H3 H 0.8339 0.2461 -1.0545
C5 C 0.7638(7) 0.2146(8) -0.9475(4)
H4 H 0.8333 0.2481 -0.9138
Cu1 Cu 0.68372(4) 0.15949(4) -0.77723(3)
Cu2 Cu 0.71577(4) 0.16218(4) -0.61278(3)
O1 O -0.1055(3) 0.1681(3) -0.62239(18)
O2 O 0.6883(3) 0.3403(3) -0.76327(18)
O3 O 0.7102(4) 0.3441(3) -0.62514(19)
O4 O 0.6834(3) 0.9787(3) -0.76738(18)
O5 O -0.1336(3) 0.1592(3) -0.76099(18)
O6 O 0.7164(3) 0.9821(3) -0.62917(19)
O7 O 0.5053(3) 0.1574(3) -0.76682(18)
C6 C 0.2783(4) 0.1621(5) -0.6210(3)
H5 H 0.3323 0.1635 -0.571
C7 C 0.3272(4) 0.1586(4) -0.6960(2)
O8 O 0.5330(3) 0.1566(3) -0.62837(18)
C8 C 0.1522(4) 0.1637(5) -0.6194(3)
H6 H 0.12 0.1668 -0.5684
N2 N 0.6681(3) 0.1681(3) -0.9108(2)
C9 C 0.6992(4) 0.3949(4) -0.6945(3)
C10 C 0.7011(4) 0.5323(4) -0.6950(3)
C11 C 0.2486(4) 0.1570(4) -0.7693(3)
H7 H 0.2816 0.1553 -0.8201
C12 C 0.0712(4) 0.1608(4) -0.6930(3)
C13 C 0.1213(4) 0.1579(4) -0.7682(3)
H8 H 0.0677 0.1566 -0.8184
C14 C -0.0661(4) 0.1630(4) -0.6921(2)
C15 C 0.7164(7) 0.7266(5) -0.6235(3)
H9 H 0.7266 0.7709 -0.5731
C16 C 0.7036(4) 0.7889(4) -0.6968(3)
C17 C 0.7492(5) 0.1779(5) -1.2162(3)
H10 H 0.8283 0.1923 -1.1863
C18 C 0.6907(6) 0.5941(4) -0.7697(3)
H11 H 0.6834 0.5492 -0.8198
C19 C 0.7007(4) 0.9277(4) -0.6977(3)
C20 C 0.4664(4) 0.1577(4) -0.6972(2)
C21 C 0.6912(6) 0.7219(4) -0.7708(3)
H12 H 0.6831 0.7634 -0.8216
C22 C 0.6301(5) 0.1602(6) -1.3579(3)
H13 H 0.5546 0.156 -1.3349
C23 C 0.6560(5) 0.1663(5) -1.1733(3)
H14 H 0.5767 0.1541 -1.2035
C24 C 0.7146(7) 0.5993(5) -0.6230(3)
H15 H 0.7228 0.558 -0.5721
C25 C 0.8416(4) 0.1683(5) -1.4307(3)
H16 H 0.9155 0.1698 -1.4556
C26 C 0.8496(5) 0.1734(5) -1.3456(3)
H17 H 0.9283 0.1786 -1.3137
C27 C 0.7427(4) 0.1707(5) -1.3068(3)
C28 C 0.6297(5) 0.1560(5) -1.4421(3)
H18 H 0.5525 0.1487 -1.4756
N1_2 N 0.7326(3) 0.1616(3) -0.4790(2)
Cu1_2 Cu 0.68372(4) 1.15949(4) -0.77723(3)
Cu1_3 Cu -0.31628(4) 0.15949(4) -0.77723(3)
Cu2_2 Cu 0.71577(4) 0.16218(4) -1.61278(3)
Cu2_3 Cu -0.28423(4) 0.16218(4) -0.61278(3)
Cu2_4 Cu 0.71577(4) 1.16218(4) -0.61278(3)
O1_2 O 0.8945(3) 0.1681(3) -0.62239(18)
O4_2 O 0.6834(3) -0.0213(3) -0.76738(18)
O5_2 O 0.8664(3) 0.1592(3) -0.76099(18)
O6_2 O 0.7164(3) -0.0179(3) -0.62917(19)
C29? C 0.581(3) 0.210(3) 0.0428(18)
C30? C 0.575(3) 0.219(3) -0.0430(17)
C31? C 0.6614(4) 0.1701(5) -0.0830(3)
C32? C 0.753(2) 0.110(3) -0.0361(12)
C33? C 0.756(2) 0.114(3) 0.0493(11)
H19? H 0.5121 0.2393 0.0672
H20? H 0.508 0.2603 -0.0729
H21? H 0.8135 0.0665 -0.0609
H22? H 0.8239 0.0776 0.0815
N3? N 0.7326(3) 0.1616(3) -0.4790(2)
loop_
_geom_bond_atom_site_label_1
_geom_bond_atom_site_label_2
_geom_bond_site_symmetry_1
_geom_bond_site_symmetry_2
N1 C25 1_555 1_555
C1 H1 1_555 1_555
C2 C1 1_555 1_555
H2 C2 1_555 1_555
C3 C2 1_555 1_555
C4 C3 1_555 1_555
H3 C4 1_555 1_555
C5 C4 1_555 1_555
H4 C5 1_555 1_555
Cu1 O2 1_555 1_555
Cu2 O3 1_555 1_555
O1 C14 1_555 1_555
O2 C9 1_555 1_555
O3 C9 1_555 1_555
O4 C19 1_555 1_555
O5 C14 1_555 1_555
O6 C19 1_555 1_555
O7 Cu1 1_555 1_555
C6 H5 1_555 1_555
C7 C6 1_555 1_555
O8 Cu2 1_555 1_555
C8 C6 1_555 1_555
H6 C8 1_555 1_555
N2 C1 1_555 1_555
C9 C10 1_555 1_555
C10 C18 1_555 1_555
C11 C7 1_555 1_555
H7 C11 1_555 1_555
C12 C8 1_555 1_555
C13 C11 1_555 1_555
H8 C13 1_555 1_555
C14 C12 1_555 1_555
C15 H9 1_555 1_555
C16 C15 1_555 1_555
C17 H10 1_555 1_555
C18 H11 1_555 1_555
C19 C16 1_555 1_555
C20 O7 1_555 1_555
C21 C16 1_555 1_555
H12 C21 1_555 1_555
C22 H13 1_555 1_555
C23 C3 1_555 1_555
H14 C23 1_555 1_555
C24 C10 1_555 1_555
H15 C24 1_555 1_555
C25 H16 1_555 1_555
C26 C25 1_555 1_555
H17 C26 1_555 1_555
C27 C17 1_555 1_555
C28 N1 1_555 1_555
H18 C28 1_555 1_555
N1_2 Cu2 1_555 1_555
Cu1_2 O4 1_555 1_555
Cu1_3 O5 1_555 1_555
Cu2_2 N1 1_555 1_555
Cu2_3 O1 1_555 1_555
Cu2_4 O6 1_555 1_555
O1_2 Cu2 1_555 1_555
O4_2 Cu1 1_555 1_555
O5_2 Cu1 1_555 1_555
O6_2 Cu2 1_555 1_555
C5 N2 1_555 1_555
Cu1 N2 1_555 1_555
C7 C20 1_555 1_555
O8 C20 1_555 1_555
C12 C13 1_555 1_555
C15 C24 1_555 1_555
C17 C23 1_555 1_555
C18 C21 1_555 1_555
C22 C27 1_555 1_555
C22 C28 1_555 1_555
C26 C27 1_555 1_555

#END
