
#######################################################################
#
#                 Cambridge Crystallographic Data Centre
#                                CCDC 
#
#######################################################################
#
# If this CIF has been generated from an entry in the Cambridge 
# Structural Database, then it will include bibliographic, chemical, 
# crystal, experimental, refinement or atomic coordinate data resulting 
# from the CCDC's data processing and validation procedures.
#
#######################################################################

data_LILNOL
_chemical_formula_moiety         '(C36 H36 Co8 N12 O14)n'
_chemical_name_systematic        
'catena-[octakis(\m~4~-4-Carboxylato-3,5-dimethylpyrazolato)-bis(\m~4~-oxo)-octa-cobalt unknown solvate]'
_symmetry_cell_setting           cubic
_symmetry_space_group_name_H-M   'F -4 3 m'
_symmetry_Int_Tables_number      216
_space_group_name_Hall           'F -4 2 3'
loop_
_symmetry_equiv_pos_site_id
_symmetry_equiv_pos_as_xyz
1 x,y,z
2 y,-x,-z
3 -x,-y,z
4 -y,x,-z
5 -x,z,-y
6 x,-y,-z
7 -x,-z,y
8 -z,-y,x
9 -x,y,-z
10 z,-y,-x
11 z,x,y
12 y,z,x
13 -y,-z,x
14 z,-x,-y
15 -y,z,-x
16 -z,-x,y
17 -z,x,-y
18 y,-z,-x
19 -y,-x,z
20 y,x,z
21 x,-z,-y
22 x,z,y
23 -z,y,-x
24 z,y,x
25 x,1/2+y,1/2+z
26 y,1/2-x,1/2-z
27 -x,1/2-y,1/2+z
28 -y,1/2+x,1/2-z
29 -x,1/2+z,1/2-y
30 x,1/2-y,1/2-z
31 -x,1/2-z,1/2+y
32 -z,1/2-y,1/2+x
33 -x,1/2+y,1/2-z
34 z,1/2-y,1/2-x
35 z,1/2+x,1/2+y
36 y,1/2+z,1/2+x
37 -y,1/2-z,1/2+x
38 z,1/2-x,1/2-y
39 -y,1/2+z,1/2-x
40 -z,1/2-x,1/2+y
41 -z,1/2+x,1/2-y
42 y,1/2-z,1/2-x
43 -y,1/2-x,1/2+z
44 y,1/2+x,1/2+z
45 x,1/2-z,1/2-y
46 x,1/2+z,1/2+y
47 -z,1/2+y,1/2-x
48 z,1/2+y,1/2+x
49 1/2+x,y,1/2+z
50 1/2+y,-x,1/2-z
51 1/2-x,-y,1/2+z
52 1/2-y,x,1/2-z
53 1/2-x,z,1/2-y
54 1/2+x,-y,1/2-z
55 1/2-x,-z,1/2+y
56 1/2-z,-y,1/2+x
57 1/2-x,y,1/2-z
58 1/2+z,-y,1/2-x
59 1/2+z,x,1/2+y
60 1/2+y,z,1/2+x
61 1/2-y,-z,1/2+x
62 1/2+z,-x,1/2-y
63 1/2-y,z,1/2-x
64 1/2-z,-x,1/2+y
65 1/2-z,x,1/2-y
66 1/2+y,-z,1/2-x
67 1/2-y,-x,1/2+z
68 1/2+y,x,1/2+z
69 1/2+x,-z,1/2-y
70 1/2+x,z,1/2+y
71 1/2-z,y,1/2-x
72 1/2+z,y,1/2+x
73 1/2+x,1/2+y,z
74 1/2+y,1/2-x,-z
75 1/2-x,1/2-y,z
76 1/2-y,1/2+x,-z
77 1/2-x,1/2+z,-y
78 1/2+x,1/2-y,-z
79 1/2-x,1/2-z,y
80 1/2-z,1/2-y,x
81 1/2-x,1/2+y,-z
82 1/2+z,1/2-y,-x
83 1/2+z,1/2+x,y
84 1/2+y,1/2+z,x
85 1/2-y,1/2-z,x
86 1/2+z,1/2-x,-y
87 1/2-y,1/2+z,-x
88 1/2-z,1/2-x,y
89 1/2-z,1/2+x,-y
90 1/2+y,1/2-z,-x
91 1/2-y,1/2-x,z
92 1/2+y,1/2+x,z
93 1/2+x,1/2-z,-y
94 1/2+x,1/2+z,y
95 1/2-z,1/2+y,-x
96 1/2+z,1/2+y,x
_cell_length_a                   20.1090(7)
_cell_length_b                   20.1090(7)
_cell_length_c                   20.1090(7)
_cell_angle_alpha                90
_cell_angle_beta                 90
_cell_angle_gamma                90
_cell_volume                     8131.51
_exptl_crystal_colour            'blue violet'
_exptl_crystal_description       cube
_cell_formula_units_Z            4
loop_
_atom_site_label
_atom_site_type_symbol
_atom_site_fract_x
_atom_site_fract_y
_atom_site_fract_z
Co1 Co 0.05674(9) 0.55674(9) 0.55674(9)
Co2 Co 0.05511(8) 0.55511(8) 0.94489(8)
O1 O 0.0000 0.5000 0.5000
O2 O 0.0000 0.5000 1.0000
O3 O 0.0378(5) 0.5378(5) 0.8535(6)
N1 N 0.02292(18) 0.52292(18) 0.6458(7)
C1 C 0.0000 0.5000 0.7454(8)
C2 C 0.0000 0.5000 0.8193(9)
C3 C 0.0389(5) 0.5389(5) 0.7068(6)
C4 C 0.1090(9) 0.5558(18) 0.7261(13)
H1 H 0.1286 0.5783 0.6888
H2 H 0.1358 0.5182 0.7378
H3 H 0.1063 0.5894 0.7631
O3B O -0.0378(5) 0.4622(5) 0.8535(6)
N1B N -0.02292(18) 0.47708(18) 0.6458(7)
C3B C -0.0389(5) 0.4611(5) 0.7068(6)
C4B C -0.1090(9) 0.4442(18) 0.7261(13)
H1B H -0.1286 0.4217 0.6888
H2B H -0.1358 0.4818 0.7378
H3B H -0.1063 0.4106 0.7631
C4LC C -0.0558(18) 0.3910(9) 0.7261(13)
H1LC H -0.0783 0.3714 0.6888
H2LC H -0.0182 0.3642 0.7378
H3LC H -0.0894 0.3937 0.7631
C4MC C 0.0558(18) 0.6090(9) 0.7261(13)
H1MC H 0.0783 0.6286 0.6888
H2MC H 0.0182 0.6358 0.7378
H3MC H 0.0894 0.6063 0.7631
Co1B Co -0.05674(9) 0.44326(9) 0.55674(9)
Co2B Co -0.05511(8) 0.44489(8) 0.94489(8)
Co1D Co -0.05674(9) 0.55674(9) 0.44326(9)
O3D O -0.0378(5) 0.8535(6) 0.4622(5)
N1D N -0.02292(18) 0.6458(7) 0.47708(18)
C1D C 0.0000 0.7454(8) 0.5000
C2D C 0.0000 0.8193(9) 0.5000
C3D C -0.0389(5) 0.7068(6) 0.4611(5)
C4D C -0.1090(9) 0.7261(13) 0.4442(18)
H1D H -0.1286 0.6888 0.4217
H2D H -0.1358 0.7378 0.4818
H3D H -0.1063 0.7631 0.4106
O3U O 0.0378(5) 0.8535(6) 0.5378(5)
N1U N 0.02292(18) 0.6458(7) 0.52292(18)
C3U C 0.0389(5) 0.7068(6) 0.5389(5)
C4U C 0.1090(9) 0.7261(13) 0.5558(18)
H1U H 0.1286 0.6888 0.5783
H2U H 0.1358 0.7378 0.5182
H3U H 0.1063 0.7631 0.5894
C4GB C 0.0558(18) 0.7261(13) 0.6090(9)
H1GB H 0.0783 0.6888 0.6286
H2GB H 0.0182 0.7378 0.6358
H3GB H 0.0894 0.7631 0.6063
C4JB C -0.0558(18) 0.7261(13) 0.3910(9)
H1JB H -0.0783 0.6888 0.3714
H2JB H -0.0182 0.7378 0.3642
H3JB H -0.0894 0.7631 0.3937
Co1E Co 0.05674(9) 0.44326(9) 0.44326(9)
O3E O 0.0378(5) 0.4622(5) 0.1465(6)
N1E N 0.02292(18) 0.47708(18) 0.3542(7)
C1E C 0.0000 0.5000 0.2546(8)
C2E C 0.0000 0.5000 0.1807(9)
C3E C 0.0389(5) 0.4611(5) 0.2932(6)
C4E C 0.1090(9) 0.4442(18) 0.2739(13)
H1E H 0.1286 0.4217 0.3112
H2E H 0.1358 0.4818 0.2622
H3E H 0.1063 0.4106 0.2369
O3H O -0.0378(5) 0.5378(5) 0.1465(6)
N1H N -0.02292(18) 0.52292(18) 0.3542(7)
C3H C -0.0389(5) 0.5389(5) 0.2932(6)
C4H C -0.1090(9) 0.5558(18) 0.2739(13)
H1H H -0.1286 0.5783 0.3112
H2H H -0.1358 0.5182 0.2622
H3H H -0.1063 0.5894 0.2369
C4WB C -0.0558(18) 0.6090(9) 0.2739(13)
H1WB H -0.0783 0.6286 0.3112
H2WB H -0.0182 0.6358 0.2622
H3WB H -0.0894 0.6063 0.2369
C4UB C 0.0558(18) 0.3910(9) 0.2739(13)
H1UB H 0.0783 0.3714 0.3112
H2UB H 0.0182 0.3642 0.2622
H3UB H 0.0894 0.3937 0.2369
O3F O -0.0378(5) 0.1465(6) 0.5378(5)
N1F N -0.02292(18) 0.3542(7) 0.52292(18)
C1F C 0.0000 0.2546(8) 0.5000
C2F C 0.0000 0.1807(9) 0.5000
C3F C -0.0389(5) 0.2932(6) 0.5389(5)
C4F C -0.1090(9) 0.2739(13) 0.5558(18)
H1F H -0.1286 0.3112 0.5783
H2F H -0.1358 0.2622 0.5182
H3F H -0.1063 0.2369 0.5894
O3T O 0.0378(5) 0.1465(6) 0.4622(5)
N1T N 0.02292(18) 0.3542(7) 0.47708(18)
C3T C 0.0389(5) 0.2932(6) 0.4611(5)
C4T C 0.1090(9) 0.2739(13) 0.4442(18)
H1T H 0.1286 0.3112 0.4217
H2T H 0.1358 0.2622 0.4818
H3T H 0.1063 0.2369 0.4106
C4MB C 0.0558(18) 0.2739(13) 0.3910(9)
H1MB H 0.0783 0.3112 0.3714
H2MB H 0.0182 0.2622 0.3642
H3MB H 0.0894 0.2369 0.3937
C4HB C -0.0558(18) 0.2739(13) 0.6090(9)
H1HB H -0.0783 0.3112 0.6286
H2HB H -0.0182 0.2622 0.6358
H3HB H -0.0894 0.2369 0.6063
Co2O Co 0.05511(8) 0.94489(8) 0.55511(8)
O3CB O -0.3535(6) 0.4622(5) 0.5378(5)
N1CB N -0.1458(7) 0.47708(18) 0.52292(18)
C1CB C -0.2454(8) 0.5000 0.5000
C2CB C -0.3193(9) 0.5000 0.5000
C3CB C -0.2068(6) 0.4611(5) 0.5389(5)
C4CB C -0.2261(13) 0.4442(18) 0.6090(9)
H1CB H -0.1888 0.4217 0.6286
H2CB H -0.2378 0.4818 0.6358
H3CB H -0.2631 0.4106 0.6063
O3RB O -0.3535(6) 0.5378(5) 0.4622(5)
N1RB N -0.1458(7) 0.52292(18) 0.47708(18)
C3RB C -0.2068(6) 0.5389(5) 0.4611(5)
C4RB C -0.2261(13) 0.5558(18) 0.3910(9)
H1RB H -0.1888 0.5783 0.3714
H2RB H -0.2378 0.5182 0.3642
H3RB H -0.2631 0.5894 0.3937
C4JC C -0.2261(13) 0.6090(9) 0.4442(18)
H1JC H -0.1888 0.6286 0.4217
H2JC H -0.2378 0.6358 0.4818
H3JC H -0.2631 0.6063 0.4106
C4IC C -0.2261(13) 0.3910(9) 0.5558(18)
H1IC H -0.1888 0.3714 0.5783
H2IC H -0.2378 0.3642 0.5182
H3IC H -0.2631 0.3937 0.5894
O3EB O 0.3535(6) 0.4622(5) 0.4622(5)
N1EB N 0.1458(7) 0.47708(18) 0.47708(18)
C1EB C 0.2454(8) 0.5000 0.5000
C2EB C 0.3193(9) 0.5000 0.5000
C3EB C 0.2068(6) 0.4611(5) 0.4611(5)
C4EB C 0.2261(13) 0.4442(18) 0.3910(9)
H1EB H 0.1888 0.4217 0.3714
H2EB H 0.2378 0.4818 0.3642
H3EB H 0.2631 0.4106 0.3937
O3SB O 0.3535(6) 0.5378(5) 0.5378(5)
N1SB N 0.1458(7) 0.52292(18) 0.52292(18)
C3SB C 0.2068(6) 0.5389(5) 0.5389(5)
C4SB C 0.2261(13) 0.5558(18) 0.6090(9)
H1SB H 0.1888 0.5783 0.6286
H2SB H 0.2378 0.5182 0.6358
H3SB H 0.2631 0.5894 0.6063
C4DC C 0.2261(13) 0.6090(9) 0.5558(18)
H1DC H 0.1888 0.6286 0.5783
H2DC H 0.2378 0.6358 0.5182
H3DC H 0.2631 0.6063 0.5894
C4GC C 0.2261(13) 0.3910(9) 0.4442(18)
H1GC H 0.1888 0.3714 0.4217
H2GC H 0.2378 0.3642 0.4818
H3GC H 0.2631 0.3937 0.4106
Co2AA Co 0.44489(8) 0.55511(8) 0.55511(8)
Co2D Co -0.05511(8) 0.94489(8) 0.44489(8)
Co2E Co 0.05511(8) 0.44489(8) 0.05511(8)
Co2E_2 Co 0.05511(8) 0.44489(8) 1.05511(8)
Co2F Co -0.05511(8) 0.05511(8) 0.55511(8)
Co2H Co -0.05511(8) 0.55511(8) 0.05511(8)
Co2H_2 Co -0.05511(8) 0.55511(8) 1.05511(8)
Co2P Co 0.05511(8) 0.05511(8) 0.44489(8)
Co2Y Co -0.44489(8) 0.44489(8) 0.55511(8)
Co2LA Co 0.44489(8) 0.44489(8) 0.44489(8)
Co2OA Co -0.44489(8) 0.55511(8) 0.44489(8)
O2D O 0.0000 1.0000 0.5000
O2Y O 0.5000 0.5000 0.5000
O3I O -0.1465(6) 0.4622(5) 0.9622(5)
O3O O 0.1465(6) 0.9622(5) 0.5378(5)
O3V O 0.1465(6) 0.5378(5) 0.9622(5)
O3AA O 0.4622(5) 0.5378(5) 0.6465(6)
O3BA O -0.0378(5) 0.3535(6) 0.9622(5)
O3CA O 0.0378(5) 0.9622(5) 0.6465(6)
O3JA O 0.4622(5) 0.6465(6) 0.5378(5)
O3RA O 0.0378(5) 0.6465(6) 0.9622(5)
O4? O 0.0426(5) 0.5426(5) 0.6498(6)
N2? N 0.0200(7) 0.5200(7) 0.8568(6)
C5? C 0.0000 0.5000 0.6719(10)
C6? C 0.0941(9) 0.5941(9) 0.7784(11)
H4? H 0.0743 0.6241 0.7438
H5? H 0.1387 0.5862 0.7659
H6? H 0.0949 0.6228 0.8190
C7? C 0.0336(7) 0.5336(7) 0.7942(7)
loop_
_geom_bond_atom_site_label_1
_geom_bond_atom_site_label_2
_geom_bond_site_symmetry_1
_geom_bond_site_symmetry_2
Co1 O1 1_555 1_555
Co2 O2 1_555 1_555
O1 Co1B 1_555 1_555
O2 Co2B 1_555 1_555
O3 Co2 1_555 1_555
N1 Co1 1_555 1_555
C1 C2 1_555 1_555
C2 O3 1_555 1_555
C3 N1 1_555 1_555
C4 C3 1_555 1_555
H1 C4 1_555 1_555
H2 C4 1_555 1_555
H3 C4 1_555 1_555
O3B C2 1_555 1_555
N1B N1 1_555 1_555
C3B C1 1_555 1_555
C4B C3B 1_555 1_555
H1B C4B 1_555 1_555
H2B C4B 1_555 1_555
H3B C4B 1_555 1_555
C4LC C3B 1_555 1_555
H1LC C4LC 1_555 1_555
H2LC C4LC 1_555 1_555
H3LC C4B 1_555 1_555
C4MC C3 1_555 1_555
H1MC C4MC 1_555 1_555
H2MC C4MC 1_555 1_555
H3MC C4 1_555 1_555
Co1B N1B 1_555 1_555
Co2B O3B 1_555 1_555
Co1D O1 1_555 1_555
O3D C2D 1_555 1_555
N1D Co1D 1_555 1_555
C1D C2D 1_555 1_555
C2D O3U 1_555 1_555
C3D N1D 1_555 1_555
C4D C3D 1_555 1_555
H1D C4D 1_555 1_555
H2D C4D 1_555 1_555
H3D C4D 1_555 1_555
O3U Co2O 1_555 1_555
N1U Co1 1_555 1_555
C3U C1D 1_555 1_555
C4U C3U 1_555 1_555
H1U C4U 1_555 1_555
H2U C4U 1_555 1_555
H3U C4U 1_555 1_555
C4GB C3U 1_555 1_555
H1GB C4GB 1_555 1_555
H2GB C4GB 1_555 1_555
H3GB C4U 1_555 1_555
C4JB C3D 1_555 1_555
H1JB C4JB 1_555 1_555
H2JB C4JB 1_555 1_555
H3JB C4D 1_555 1_555
Co1E O1 1_555 1_555
O3E C2E 1_555 1_555
N1E Co1E 1_555 1_555
C1E C2E 1_555 1_555
C2E O3H 1_555 1_555
C3E N1E 1_555 1_555
C4E C3E 1_555 1_555
H1E C4E 1_555 1_555
H2E C4E 1_555 1_555
H3E C4E 1_555 1_555
O3H Co2H 1_555 1_555
N1H Co1D 1_555 1_555
C3H C1E 1_555 1_555
C4H C3H 1_555 1_555
H1H C4H 1_555 1_555
H2H C4H 1_555 1_555
H3H C4H 1_555 1_555
C4WB C3H 1_555 1_555
H1WB C4WB 1_555 1_555
H2WB C4WB 1_555 1_555
H3WB C4H 1_555 1_555
C4UB C3E 1_555 1_555
H1UB C4UB 1_555 1_555
H2UB C4UB 1_555 1_555
H3UB C4E 1_555 1_555
O3F C2F 1_555 1_555
N1F Co1B 1_555 1_555
C1F C2F 1_555 1_555
C2F O3T 1_555 1_555
C3F N1F 1_555 1_555
C4F C3F 1_555 1_555
H1F C4F 1_555 1_555
H2F C4F 1_555 1_555
H3F C4F 1_555 1_555
O3T Co2P 1_555 1_555
N1T Co1E 1_555 1_555
C3T C1F 1_555 1_555
C4T C3T 1_555 1_555
H1T C4T 1_555 1_555
H2T C4T 1_555 1_555
H3T C4T 1_555 1_555
C4MB C3T 1_555 1_555
H1MB C4MB 1_555 1_555
H2MB C4MB 1_555 1_555
H3MB C4T 1_555 1_555
C4HB C3F 1_555 1_555
H1HB C4HB 1_555 1_555
H2HB C4HB 1_555 1_555
H3HB C4F 1_555 1_555
Co2O O2D 1_555 1_555
O3CB C2CB 1_555 1_555
N1CB Co1B 1_555 1_555
C1CB C2CB 1_555 1_555
C2CB O3RB 1_555 1_555
C3CB N1CB 1_555 1_555
C4CB C3CB 1_555 1_555
H1CB C4CB 1_555 1_555
H2CB C4CB 1_555 1_555
H3CB C4CB 1_555 1_555
O3RB Co2OA 1_555 1_555
N1RB Co1D 1_555 1_555
C3RB C1CB 1_555 1_555
C4RB C3RB 1_555 1_555
H1RB C4RB 1_555 1_555
H2RB C4RB 1_555 1_555
H3RB C4RB 1_555 1_555
C4JC C3RB 1_555 1_555
H1JC C4JC 1_555 1_555
H2JC C4JC 1_555 1_555
H3JC C4RB 1_555 1_555
C4IC C3CB 1_555 1_555
H1IC C4IC 1_555 1_555
H2IC C4IC 1_555 1_555
H3IC C4CB 1_555 1_555
O3EB C2EB 1_555 1_555
N1EB Co1E 1_555 1_555
C1EB C2EB 1_555 1_555
C2EB O3SB 1_555 1_555
C3EB N1EB 1_555 1_555
C4EB C3EB 1_555 1_555
H1EB C4EB 1_555 1_555
H2EB C4EB 1_555 1_555
H3EB C4EB 1_555 1_555
O3SB Co2AA 1_555 1_555
N1SB Co1 1_555 1_555
C3SB C1EB 1_555 1_555
C4SB C3SB 1_555 1_555
H1SB C4SB 1_555 1_555
H2SB C4SB 1_555 1_555
H3SB C4SB 1_555 1_555
C4DC C3SB 1_555 1_555
H1DC C4DC 1_555 1_555
H2DC C4DC 1_555 1_555
H3DC C4SB 1_555 1_555
C4GC C3EB 1_555 1_555
H1GC C4GC 1_555 1_555
H2GC C4GC 1_555 1_555
H3GC C4EB 1_555 1_555
Co2AA O2Y 1_555 1_555
Co2D O3D 1_555 1_555
Co2E O3E 1_555 1_555
Co2E_2 O2 1_555 1_555
Co2F O3F 1_555 1_555
Co2H_2 O2 1_555 1_555
Co2Y O3CB 1_555 1_555
Co2LA O3EB 1_555 1_555
O2D Co2D 1_555 1_555
O2Y Co2LA 1_555 1_555
O3I Co2B 1_555 1_555
O3O Co2O 1_555 1_555
O3V Co2 1_555 1_555
O3AA Co2AA 1_555 1_555
O3BA Co2B 1_555 1_555
O3CA Co2O 1_555 1_555
O3JA Co2AA 1_555 1_555
O3RA Co2 1_555 1_555
C1 C3 1_555 1_555
C4 C4MC 1_555 1_555
H3 C4MC 1_555 1_555
N1B C3B 1_555 1_555
C4B C4LC 1_555 1_555
H3B C4LC 1_555 1_555
C4LC H3LC 1_555 1_555
C4MC H3MC 1_555 1_555
N1D N1U 1_555 1_555
C1D C3D 1_555 1_555
C4D C4JB 1_555 1_555
H3D C4JB 1_555 1_555
N1U C3U 1_555 1_555
C4U C4GB 1_555 1_555
H3U C4GB 1_555 1_555
C4GB H3GB 1_555 1_555
C4JB H3JB 1_555 1_555
N1E N1H 1_555 1_555
C1E C3E 1_555 1_555
C4E C4UB 1_555 1_555
H3E C4UB 1_555 1_555
N1H C3H 1_555 1_555
C4H C4WB 1_555 1_555
H3H C4WB 1_555 1_555
C4WB H3WB 1_555 1_555
C4UB H3UB 1_555 1_555
N1F N1T 1_555 1_555
C1F C3F 1_555 1_555
C4F C4HB 1_555 1_555
H3F C4HB 1_555 1_555
N1T C3T 1_555 1_555
C4T C4MB 1_555 1_555
H3T C4MB 1_555 1_555
C4MB H3MB 1_555 1_555
C4HB H3HB 1_555 1_555
N1CB N1RB 1_555 1_555
C1CB C3CB 1_555 1_555
C4CB C4IC 1_555 1_555
H3CB C4IC 1_555 1_555
N1RB C3RB 1_555 1_555
C4RB C4JC 1_555 1_555
H3RB C4JC 1_555 1_555
C4JC H3JC 1_555 1_555
C4IC H3IC 1_555 1_555
N1EB N1SB 1_555 1_555
C1EB C3EB 1_555 1_555
C4EB C4GC 1_555 1_555
H3EB C4GC 1_555 1_555
N1SB C3SB 1_555 1_555
C4SB C4DC 1_555 1_555
H3SB C4DC 1_555 1_555
C4DC H3DC 1_555 1_555
C4GC H3GC 1_555 1_555

#END
