
#######################################################################
#
#                 Cambridge Crystallographic Data Centre
#                                CCDC 
#
#######################################################################
#
# If this CIF has been generated from an entry in the Cambridge 
# Structural Database, then it will include bibliographic, chemical, 
# crystal, experimental, refinement or atomic coordinate data resulting 
# from the CCDC's data processing and validation procedures.
#
#######################################################################

data_LILPAZ
_chemical_formula_moiety         '(C72 H60 Co8 N12 O14)0.5n'
_chemical_name_systematic        
'catena-[tetrakis(\m~4~-4-Benzoato-3,5-dimethylpyrazolato)-(\m~4~-oxo)-tetra-cobalt unknown solvate]'
_symmetry_cell_setting           orthorhombic
_symmetry_space_group_name_H-M   'P 2 2 2'
_symmetry_Int_Tables_number      16
_space_group_name_Hall           'P 2 2'
loop_
_symmetry_equiv_pos_site_id
_symmetry_equiv_pos_as_xyz
1 x,y,z
2 x,-y,-z
3 -x,y,-z
4 -x,-y,z
_cell_length_a                   14.242(3)
_cell_length_b                   14.278(3)
_cell_length_c                   14.332(4)
_cell_angle_alpha                90
_cell_angle_beta                 90
_cell_angle_gamma                90
_cell_volume                     2914.37
_exptl_crystal_colour            blue
_exptl_crystal_description       cubic
_cell_formula_units_Z            1
loop_
_atom_site_label
_atom_site_type_symbol
_atom_site_fract_x
_atom_site_fract_y
_atom_site_fract_z
Co1 Co 0.42301(4) 0.92360(3) 0.92394(5)
O1 O 0.5000 1.0000 1.0000
C1 C 0.5000 0.6450(5) 1.0000
C2 C 0.4476(5) 0.5927(5) 0.9488(6)
C3 C 0.4434(5) 0.4854(5) 0.9457(6)
C4 C 0.5000 0.4632(7) 1.0000
C5 C 0.5000 0.7259(10) 1.0000
C6 C 0.3832(7) 0.6810(7) 0.8838(8)
C7 C 0.4436(6) 0.7102(6) 0.9684(7)
C8 C 0.5000 1.0000 0.6519(6)
C9 C 0.4615(6) 0.9576(6) 0.6003(8)
H1 H 0.4168 0.9084 0.6044
C10 C 0.4351(6) 0.9525(6) 0.4916(8)
C11 C 0.5000 1.0000 0.4654(13)
C12 C 0.3832(8) 0.8803(8) 0.6698(9)
C13 C 0.4500(5) 0.9491(5) 0.7112(6)
O2 O 0.4430(3) 0.9409(3) 0.8032(3)
O3 O 0.4447(3) 0.7902(2) 0.9369(4)
C14 C 0.1436(5) 1.0000 1.0000
C15 C 0.1079(16) 0.9359(13) 1.0322(19)
C16 C 0.0021(6) 0.9411(5) 1.0541(6)
C17 C -0.0470(8) 1.0000 1.0000
C18 C 0.1858(5) 0.8856(5) 0.8850(6)
C19 C 0.2254(4) 0.9486(4) 0.9584(5)
N1 N 0.2997(3) 0.9694(5) 0.9740(4)
H2 H 0.2058 0.9075 0.8233
H3 H 0.1171 0.8863 0.8885
H4 H 0.2087 0.8216 0.8950
H5 H 0.4175 0.8237 0.6515
H6 H 0.3533 0.9079 0.6147
H7 H 0.3351 0.8641 0.7159
H8 H 0.4243 0.6644 0.8315
H9 H 0.3426 0.7333 0.8656
H10 H 0.3444 0.6269 0.9006
C1A C 0.5000 0.3550(5) 1.0000
C2A C 0.4476(5) 0.4073(5) 1.0512(6)
C3A C 0.4434(5) 0.5146(5) 1.0543(6)
C4A C 0.5000 0.5368(7) 1.0000
C5A C 0.5000 0.2741(10) 1.0000
C6A C 0.3832(7) 0.3190(7) 1.1162(8)
C7A C 0.4436(6) 0.2898(6) 1.0316(7)
O3A O 0.4447(3) 0.2098(2) 1.0631(4)
H8A H 0.4243 0.3356 1.1685
H9A H 0.3426 0.2667 1.1344
H10A H 0.3444 0.3731 1.0994
C2B C 0.5524(5) 0.5927(5) 1.0512(6)
C3B C 0.5566(5) 0.4854(5) 1.0543(6)
C6B C 0.6168(7) 0.6810(7) 1.1162(8)
C7B C 0.5564(6) 0.7102(6) 1.0316(7)
O3B O 0.5553(3) 0.7902(2) 1.0631(4)
H8B H 0.5757 0.6644 1.1685
H9B H 0.6574 0.7333 1.1344
H10B H 0.6556 0.6269 1.0994
C2C C 0.5524(5) 0.4073(5) 0.9488(6)
C3C C 0.5566(5) 0.5146(5) 0.9457(6)
C6C C 0.6168(7) 0.3190(7) 0.8838(8)
C7C C 0.5564(6) 0.2898(6) 0.9684(7)
O3C O 0.5553(3) 0.2098(2) 0.9369(4)
H8C H 0.5757 0.3356 0.8315
H9C H 0.6574 0.2667 0.8656
H10C H 0.6556 0.3731 0.9006
C8A C 0.5000 1.0000 0.3481(6)
C9A C 0.4615(6) 1.0424(6) 0.3997(8)
H1A H 0.4168 1.0916 0.3956
C10A C 0.4351(6) 1.0475(6) 0.5084(8)
C11A C 0.5000 1.0000 0.5346(13)
C12A C 0.3832(8) 1.1197(8) 0.3302(9)
C13A C 0.4500(5) 1.0509(5) 0.2888(6)
O2A O 0.4430(3) 1.0591(3) 0.1968(3)
H5A H 0.4175 1.1763 0.3485
H6A H 0.3533 1.0921 0.3853
H7A H 0.3351 1.1359 0.2841
C9B C 0.5385(6) 0.9576(6) 0.3997(8)
H1B H 0.5832 0.9084 0.3956
C10B C 0.5649(6) 0.9525(6) 0.5084(8)
C12B C 0.6168(8) 0.8803(8) 0.3302(9)
C13B C 0.5500(5) 0.9491(5) 0.2888(6)
O2B O 0.5570(3) 0.9409(3) 0.1968(3)
H5B H 0.5825 0.8237 0.3485
H6B H 0.6467 0.9079 0.3853
H7B H 0.6649 0.8641 0.2841
C9C C 0.5385(6) 1.0424(6) 0.6003(8)
H1C H 0.5832 1.0916 0.6044
C10C C 0.5649(6) 1.0475(6) 0.4916(8)
C12C C 0.6168(8) 1.1197(8) 0.6698(9)
C13C C 0.5500(5) 1.0509(5) 0.7112(6)
O2C O 0.5570(3) 1.0591(3) 0.8032(3)
H5C H 0.5825 1.1763 0.6515
H6C H 0.6467 1.0921 0.6147
H7C H 0.6649 1.1359 0.7159
C15A C 0.1079(16) 1.0641(13) 0.9678(19)
C16A C 0.0021(6) 1.0589(5) 0.9459(6)
C18A C 0.1858(5) 1.1144(5) 1.1150(6)
C19A C 0.2254(4) 1.0514(4) 1.0416(5)
N1A N 0.2997(3) 1.0306(5) 1.0260(4)
H2A H 0.2058 1.0925 1.1767
H3A H 0.1171 1.1137 1.1115
H4A H 0.2087 1.1784 1.1050
C14B C -0.1436(5) 1.0000 1.0000
C15B C -0.1079(16) 0.9359(13) 0.9678(19)
C16B C -0.0021(6) 0.9411(5) 0.9459(6)
C17B C 0.0470(8) 1.0000 1.0000
C18B C -0.1858(5) 0.8856(5) 1.1150(6)
C19B C -0.2254(4) 0.9486(4) 1.0416(5)
N1B N -0.2997(3) 0.9694(5) 1.0260(4)
H2B H -0.2058 0.9075 1.1767
H3B H -0.1171 0.8863 1.1115
H4B H -0.2087 0.8216 1.1050
C15C C -0.1079(16) 1.0641(13) 1.0322(19)
C16C C -0.0021(6) 1.0589(5) 1.0541(6)
C18C C -0.1858(5) 1.1144(5) 0.8850(6)
C19C C -0.2254(4) 1.0514(4) 0.9584(5)
N1C N -0.2997(3) 1.0306(5) 0.9740(4)
H2C H -0.2058 1.0925 0.8233
H3C H -0.1171 1.1137 0.8885
H4C H -0.2087 1.1784 0.8950
Co1A Co 0.42301(4) 0.07640(3) 1.07606(5)
Co1B Co -0.42301(4) 0.92360(3) 1.07606(5)
Co1C Co 0.57699(4) 1.07640(3) 0.92394(5)
Co1_2 Co -0.57699(4) 0.92360(3) 0.92394(5)
Co1_3 Co 0.42301(4) -0.07640(3) 0.92394(5)
Co1A_2 Co -0.57699(4) 1.07640(3) 1.07606(5)
Co1A_3 Co 0.42301(4) 1.07640(3) 0.07606(5)
Co1A_4 Co 0.42301(4) 1.07640(3) 1.07606(5)
Co1B_2 Co 0.57699(4) -0.07640(3) 1.07606(5)
Co1B_3 Co 0.57699(4) 0.92360(3) 0.07606(5)
Co1B_4 Co 0.57699(4) 0.92360(3) 1.07606(5)
Co1C_2 Co -0.42301(4) 1.07640(3) 0.92394(5)
Co1C_3 Co 0.57699(4) 0.07640(3) 0.92394(5)
O1_2 O -0.5000 1.0000 1.0000
O1_3 O 0.5000 0.0000 1.0000
O2A_2 O 0.4430(3) 0.0591(3) 1.1968(3)
O2B_2 O -0.4430(3) 0.9409(3) 1.1968(3)
O3B_2 O -0.4447(3) 0.7902(2) 1.0631(4)
O3C_2 O 0.5553(3) 1.2098(2) 0.9369(4)
N1A_2 N 0.2997(3) 0.0306(5) 1.0260(4)
N1C_2 N 0.7003(3) 1.0306(5) 0.9740(4)
C20? C 0.5000 1.0000 0.7724(19)
O4? O 0.2971(2) 0.9580(3) 0.9454(3)
C21? C 0.2310(7) 1.0000 1.0000
N2? N 0.4874(3) 0.9575(3) 0.7829(4)
N3? N 0.4836(5) 0.7928(3) 0.9756(5)
loop_
_geom_bond_atom_site_label_1
_geom_bond_atom_site_label_2
_geom_bond_site_symmetry_1
_geom_bond_site_symmetry_2
Co1 O1 1_555 1_555
O1 Co1C 1_555 1_555
C1 C2 1_555 1_555
C2 C3 1_555 1_555
C3 C4 1_555 1_555
C4 C1A 1_555 1_555
C5 C1 1_555 1_555
C6 C7 1_555 1_555
C7 C1 1_555 1_555
C8 C9 1_555 1_555
C9 H1 1_555 1_555
H1 C12 1_555 1_555
C10 C9 1_555 1_555
C11 C10 1_555 1_555
C12 C13 1_555 1_555
C13 C8 1_555 1_555
O2 Co1 1_555 1_555
O3 Co1 1_555 1_555
C14 C15 1_555 1_555
C15 C16 1_555 1_555
C16 C17 1_555 1_555
C17 C16A 1_555 1_555
C18 C19 1_555 1_555
C19 C14 1_555 1_555
N1 Co1 1_555 1_555
H2 C18 1_555 1_555
H3 C18 1_555 1_555
H4 C18 1_555 1_555
H5 C12 1_555 1_555
H6 C12 1_555 1_555
H7 C12 1_555 1_555
H8 C6 1_555 1_555
H9 C6 1_555 1_555
H10 C6 1_555 1_555
C1A C2A 1_555 1_555
C2A C4 1_555 1_555
C3A C3 1_555 1_555
C4A C1 1_555 1_555
C5A C1A 1_555 1_555
C6A C7A 1_555 1_555
C7A C1A 1_555 1_555
O3A C5A 1_555 1_555
H8A C6A 1_555 1_555
H9A C6A 1_555 1_555
H10A C6A 1_555 1_555
C2B C1 1_555 1_555
C3B C4 1_555 1_555
C6B C7B 1_555 1_555
C7B C1 1_555 1_555
O3B C5 1_555 1_555
H8B C6B 1_555 1_555
H9B C6B 1_555 1_555
H10B C6B 1_555 1_555
C2C C4 1_555 1_555
C3C C3 1_555 1_555
C6C C7C 1_555 1_555
C7C C1A 1_555 1_555
O3C C5A 1_555 1_555
H8C C6C 1_555 1_555
H9C C6C 1_555 1_555
H10C C6C 1_555 1_555
C8A C11 1_555 1_555
C9A C11 1_555 1_555
H1A C9A 1_555 1_555
C10A C10 1_555 1_555
C11A C8 1_555 1_555
C12A H1A 1_555 1_555
C13A C8A 1_555 1_555
O2A C13A 1_555 1_555
H5A C12A 1_555 1_555
H6A C12A 1_555 1_555
H7A C12A 1_555 1_555
C9B C11 1_555 1_555
H1B C9B 1_555 1_555
C10B C11 1_555 1_555
C12B H1B 1_555 1_555
C13B C8A 1_555 1_555
O2B C13B 1_555 1_555
H5B C12B 1_555 1_555
H6B C12B 1_555 1_555
H7B C12B 1_555 1_555
C9C C8 1_555 1_555
H1C C9C 1_555 1_555
C10C C11 1_555 1_555
C12C H1C 1_555 1_555
C13C C8 1_555 1_555
O2C C13C 1_555 1_555
H5C C12C 1_555 1_555
H6C C12C 1_555 1_555
H7C C12C 1_555 1_555
C15A C14 1_555 1_555
C16A C15A 1_555 1_555
C18A C19A 1_555 1_555
C19A C14 1_555 1_555
N1A N1 1_555 1_555
H2A C18A 1_555 1_555
H3A C18A 1_555 1_555
H4A C18A 1_555 1_555
C14B C17 1_555 1_555
C15B C17 1_555 1_555
C16B C16 1_555 1_555
C17B C14 1_555 1_555
C18B C19B 1_555 1_555
C19B C14B 1_555 1_555
N1B C19B 1_555 1_555
H2B C18B 1_555 1_555
H3B C18B 1_555 1_555
H4B C18B 1_555 1_555
C15C C17 1_555 1_555
C16C C16 1_555 1_555
C18C C19C 1_555 1_555
C19C C14B 1_555 1_555
N1C N1B 1_555 1_555
H2C C18C 1_555 1_555
H3C C18C 1_555 1_555
H4C C18C 1_555 1_555
Co1A O3A 1_555 1_555
Co1B N1B 1_555 1_555
Co1C Co1 1_555 1_555
Co1_2 Co1B 1_555 1_555
Co1_3 Co1A 1_555 1_555
Co1A_2 Co1B 1_555 1_555
Co1A_3 O2A 1_555 1_555
Co1A_4 Co1 1_555 1_555
Co1B_2 Co1A 1_555 1_555
Co1B_3 O2B 1_555 1_555
Co1B_4 Co1 1_555 1_555
Co1C_2 N1C 1_555 1_555
Co1C_3 O3C 1_555 1_555
O1_2 Co1B 1_555 1_555
O1_3 Co1A 1_555 1_555
O2A_2 Co1A 1_555 1_555
O2B_2 Co1B 1_555 1_555
O3B_2 Co1B 1_555 1_555
O3C_2 Co1C 1_555 1_555
N1A_2 Co1A 1_555 1_555
N1C_2 Co1C 1_555 1_555
O1 Co1A_4 1_555 1_555
O1 Co1B_4 1_555 1_555
C2 C7 1_555 1_555
C2 C4A 1_555 1_555
C3 C4A 1_555 1_555
C4 C3A 1_555 1_555
C4 C4A 1_555 1_555
C4 C3C 1_555 1_555
C5 C7 1_555 1_555
C5 O3 1_555 1_555
C5 C7B 1_555 1_555
C7 O3 1_555 1_555
C9 C13 1_555 1_555
C9 C11A 1_555 1_555
C9 C9C 1_555 1_555
C10 C11A 1_555 1_555
C11 C10A 1_555 1_555
C11 C11A 1_555 1_555
C13 O2 1_555 1_555
C15 C17B 1_555 1_555
C16 C17B 1_555 1_555
C17 C16B 1_555 1_555
C17 C17B 1_555 1_555
C17 C16C 1_555 1_555
C19 N1 1_555 1_555
C1A C2C 1_555 1_555
C2A C3A 1_555 1_555
C2A C7A 1_555 1_555
C3A C4A 1_555 1_555
C3A C3B 1_555 1_555
C4A C2B 1_555 1_555
C4A C3B 1_555 1_555
C4A C3C 1_555 1_555
C5A C7A 1_555 1_555
C5A C7C 1_555 1_555
C7A O3A 1_555 1_555
C2B C3B 1_555 1_555
C2B C7B 1_555 1_555
C3B C3C 1_555 1_555
C7B O3B 1_555 1_555
O3B Co1B_4 1_555 1_555
C2C C3C 1_555 1_555
C2C C7C 1_555 1_555
C7C O3C 1_555 1_555
C8A C9A 1_555 1_555
C8A C9B 1_555 1_555
C9A C10A 1_555 1_555
C9A C13A 1_555 1_555
C9A C9B 1_555 1_555
C10A C11A 1_555 1_555
C11A C10B 1_555 1_555
C11A C9C 1_555 1_555
C11A C10C 1_555 1_555
C12A C13A 1_555 1_555
C9B C10B 1_555 1_555
C9B C13B 1_555 1_555
C10B C10C 1_555 1_555
C12B C13B 1_555 1_555
C9C C10C 1_555 1_555
C9C C13C 1_555 1_555
C12C C13C 1_555 1_555
O2C Co1C 1_555 1_555
C15A C17B 1_555 1_555
C16A C16B 1_555 1_555
C16A C17B 1_555 1_555
C16A C16C 1_555 1_555
C19A N1A 1_555 1_555
N1A Co1A_4 1_555 1_555
C14B C15B 1_555 1_555
C14B C15C 1_555 1_555
C15B C16B 1_555 1_555
C16B C17B 1_555 1_555
C17B C16C 1_555 1_555
C15C C16C 1_555 1_555
C19C N1C 1_555 1_555
Co1A Co1C_3 1_555 1_555
Co1B Co1C_2 1_555 1_555
Co1C Co1A_4 1_555 1_555
Co1C Co1B_4 1_555 1_555
Co1_2 Co1A_2 1_555 1_555
Co1_2 Co1C_2 1_555 1_555
Co1_2 O1_2 1_555 1_555
Co1_3 Co1B_2 1_555 1_555
Co1_3 Co1C_3 1_555 1_555
Co1_3 O1_3 1_555 1_555
Co1A_2 Co1C_2 1_555 1_555
Co1A_2 O1_2 1_555 1_555
Co1A_3 Co1B_3 1_555 1_555
Co1A_4 Co1B_4 1_555 1_555
Co1B_2 Co1C_3 1_555 1_555
Co1B_2 O1_3 1_555 1_555
Co1C_2 O1_2 1_555 1_555
Co1C_3 O1_3 1_555 1_555

#END
