
#######################################################################
#
#                 Cambridge Crystallographic Data Centre
#                                CCDC 
#
#######################################################################
#
# If this CIF has been generated from an entry in the Cambridge 
# Structural Database, then it will include bibliographic, chemical, 
# crystal, experimental, refinement or atomic coordinate data resulting 
# from the CCDC's data processing and validation procedures.
#
#######################################################################

data_XUXPUD
_chemical_formula_moiety         '(C24 H28 N2 O8 Zn2)n'
_chemical_name_systematic        
"catena-[(\m-4,4'-dihydroxybiphenyl-3,3'-dicarboxylato)-bis(N,N-diethylformamide)-di-zinc unknown solvate]"
_symmetry_cell_setting           trigonal
_symmetry_space_group_name_H-M   'P 32 2 1'
_symmetry_Int_Tables_number      154
_space_group_name_Hall           'P 32 2"'
loop_
_symmetry_equiv_pos_site_id
_symmetry_equiv_pos_as_xyz
1 x,y,z
2 -y,x-y,2/3+z
3 -x+y,-x,1/3+z
4 y,x,-z
5 x-y,-y,1/3-z
6 -x,-x+y,2/3-z
_cell_length_a                   21.698(3)
_cell_length_b                   21.698(3)
_cell_length_c                   6.8690(14)
_cell_angle_alpha                90
_cell_angle_beta                 90
_cell_angle_gamma                120
_cell_volume                     2800.68
_exptl_crystal_colour            colorless
_exptl_crystal_description       hexagonal
_cell_formula_units_Z            3
loop_
_atom_site_label
_atom_site_type_symbol
_atom_site_fract_x
_atom_site_fract_y
_atom_site_fract_z
Zn1 Zn 0.60639(3) 0.27947(2) 1.15793(6)
O1 O 0.6490(2) 0.23825(19) 0.9690(4)
O2 O 0.63628(16) 0.28621(23) 0.6113(4)
O3 O 0.58207(17) 0.20738(15) 0.3738(4)
C1 C 0.6138(3) 0.1744(3) 0.8787(6)
C2 C 0.5940(2) 0.1649(4) 0.6810(6)
C3 C 0.5602(3) 0.0958(4) 0.6029(7)
H1 H 0.5470 0.0898 0.4694
C4 C 0.5449(3) 0.0355(4) 0.7105(7)
C5 C 0.5638(3) 0.0465(2) 0.9089(6)
H2 H 0.5538 0.0067 0.9881
C6 C 0.5962(3) 0.1132(3) 0.9911(6)
H3 H 0.6070 0.1182 1.1262
C7 C 0.6050(2) 0.2229(4) 0.5481(7)
O4 O 0.50364(18) 0.2277(2) 1.0379(5)
C8 C 0.4926(3) 0.2359(3) 0.8694(8)
H4 H 0.5327 0.2584 0.7854
N1 N 0.4291(3) 0.2159(4) 0.7923(8)
C9 C 0.3652(5) 0.1891(7) 0.9245(15)
H5 H 0.3701 0.1616 1.0325
H6 H 0.3218 0.1566 0.8504
C10 C 0.3569(7) 0.2517(9) 1.011(3)
H7 H 0.4041 0.2928 1.0362
H8 H 0.3300 0.2362 1.1332
H9 H 0.3314 0.2650 0.9179
C11 C 0.4276(7) 0.2267(8) 0.5793(13)
H10 H 0.4762 0.2609 0.5334
H11 H 0.3967 0.2471 0.5515
C12 C 0.3996(10) 0.1560(12) 0.470(2)
H12 H 0.3644 0.1170 0.5511
H13 H 0.4393 0.1478 0.4419
H14 H 0.3774 0.1579 0.3480
O1D O 0.41075(28) -0.23825(19) 0.3643(4)
C1D C 0.4394(4) -0.1744(3) 0.4546(6)
C5D C 0.5173(4) -0.0465(2) 0.4244(6)
H2D H 0.5471 -0.0067 0.3452
C6D C 0.4830(4) -0.1132(3) 0.3422(6)
H3D H 0.4888 -0.1182 0.2071
O2D O 0.35007(28) -0.28621(23) 0.7220(4)
C2D C 0.4291(4) -0.1649(4) 0.6523(6)
C3D C 0.4644(5) -0.0958(4) 0.7304(7)
H1D H 0.4572 -0.0898 0.8639
C4D C 0.5094(5) -0.0355(4) 0.6228(7)
C7D C 0.3821(4) -0.2229(4) 0.7852(7)
O3D O 0.37469(23) -0.20738(15) 0.9595(4)
Zn1D Zn 0.32692(4) -0.27947(2) 0.17540(6)
O4D O 0.27594(27) -0.2277(2) 0.2954(5)
C8D C 0.2567(4) -0.2359(3) 0.4639(8)
H4D H 0.2743 -0.2584 0.5479
N1D N 0.2132(5) -0.2159(4) 0.5410(8)
C9D C 0.1761(9) -0.1891(7) 0.4088(15)
H5D H 0.2085 -0.1616 0.3008
H6D H 0.1652 -0.1566 0.4829
C10D C 0.1052(11) -0.2517(9) 0.322(3)
H7D H 0.1113 -0.2928 0.2971
H8D H 0.0938 -0.2362 0.2001
H9D H 0.0664 -0.2650 0.4154
C11D C 0.2009(11) -0.2267(8) 0.7540(13)
H10D H 0.2153 -0.2609 0.7999
H11D H 0.1496 -0.2471 0.7818
C12D C 0.2436(16) -0.1560(12) 0.863(2)
H12D H 0.2474 -0.1170 0.7822
H13D H 0.2915 -0.1478 0.8914
H14D H 0.2195 -0.1579 0.9853
Zn1_2 Zn 0.60639(3) 0.27947(2) 0.15793(6)
Zn1A Zn 0.72053(2) 0.32692(4) 0.82460(6)
Zn1B Zn 0.67308(4) 0.39361(3) 0.49126(6)
Zn1C Zn 0.27947(2) -0.39361(3) 0.84207(6)
Zn1D_2 Zn 0.32692(4) -0.27947(2) 1.17540(6)
Zn1E Zn 0.39361(3) -0.32692(4) 0.50874(6)
O1B O 0.58925(28) 0.3510(2) 1.3023(4)
O1C O 0.23825(19) -0.3510(2) 0.0310(4)
O2A O 0.71379(23) 0.35007(28) 1.2780(4)
O2B O 0.64993(28) 0.36372(16) 0.9446(4)
O2C O 0.28621(23) -0.36372(16) 0.3887(4)
O2E O 0.36372(16) -0.35007(28) 0.0554(4)
O3_2 O 0.58207(17) 0.20738(15) 1.3738(4)
O3D_2 O 0.37469(23) -0.20738(15) -0.0405(4)
loop_
_geom_bond_atom_site_label_1
_geom_bond_atom_site_label_2
_geom_bond_site_symmetry_1
_geom_bond_site_symmetry_2
Zn1 O1 1_555 1_555
O1 C1 1_555 1_555
O2 C7 1_555 1_555
O3 C7 1_555 1_555
C1 C2 1_555 1_555
C2 C3 1_555 1_555
C3 H1 1_555 1_555
C4 C3 1_555 1_555
C5 C4 1_555 1_555
H2 C5 1_555 1_555
C6 C1 1_555 1_555
H3 C6 1_555 1_555
C7 C2 1_555 1_555
O4 Zn1 1_555 1_555
C8 O4 1_555 1_555
H4 C8 1_555 1_555
N1 C8 1_555 1_555
C9 N1 1_555 1_555
H5 C9 1_555 1_555
H6 C9 1_555 1_555
C10 C9 1_555 1_555
H7 C10 1_555 1_555
H8 C10 1_555 1_555
H9 C10 1_555 1_555
C11 N1 1_555 1_555
H10 C11 1_555 1_555
H11 C11 1_555 1_555
C12 C11 1_555 1_555
H12 C12 1_555 1_555
H13 C12 1_555 1_555
H14 C12 1_555 1_555
O1D C1D 1_555 1_555
C1D C6D 1_555 1_555
C5D H2D 1_555 1_555
C6D C5D 1_555 1_555
H3D C6D 1_555 1_555
O2D C7D 1_555 1_555
C2D C1D 1_555 1_555
C3D C2D 1_555 1_555
H1D C3D 1_555 1_555
C4D C4 1_555 1_555
C7D C2D 1_555 1_555
O3D C7D 1_555 1_555
Zn1D O1D 1_555 1_555
O4D Zn1D 1_555 1_555
C8D O4D 1_555 1_555
H4D C8D 1_555 1_555
N1D C8D 1_555 1_555
C9D N1D 1_555 1_555
H5D C9D 1_555 1_555
H6D C9D 1_555 1_555
C10D C9D 1_555 1_555
H7D C10D 1_555 1_555
H8D C10D 1_555 1_555
H9D C10D 1_555 1_555
C11D N1D 1_555 1_555
H10D C11D 1_555 1_555
H11D C11D 1_555 1_555
C12D C11D 1_555 1_555
H12D C12D 1_555 1_555
H13D C12D 1_555 1_555
H14D C12D 1_555 1_555
Zn1_2 O3 1_555 1_555
Zn1A O1 1_555 1_555
Zn1B O2 1_555 1_555
Zn1C O2D 1_555 1_555
Zn1D_2 O3D 1_555 1_555
Zn1E O1D 1_555 1_555
O1B Zn1 1_555 1_555
O1C Zn1D 1_555 1_555
O2A Zn1 1_555 1_555
O2B Zn1 1_555 1_555
O2C Zn1D 1_555 1_555
O2E Zn1D 1_555 1_555
O3_2 Zn1 1_555 1_555
O3D_2 Zn1D 1_555 1_555
O2 Zn1A 1_555 1_555
C5 C6 1_555 1_555
C5D C4D 1_555 1_555
O2D Zn1E 1_555 1_555
C3D C4D 1_555 1_555
Zn1A O2B 1_555 1_555
Zn1E O2C 1_555 1_555

#END
