
#######################################################################
#
#                 Cambridge Crystallographic Data Centre
#                                CCDC 
#
#######################################################################
#
# If this CIF has been generated from an entry in the Cambridge 
# Structural Database, then it will include bibliographic, chemical, 
# crystal, experimental, refinement or atomic coordinate data resulting 
# from the CCDC's data processing and validation procedures.
#
#######################################################################

data_TEWFUY01
_chemical_formula_moiety         '(C30 H22 Cu1 N4 O10)n,3n(H2 O1)'
_chemical_name_systematic        
'catena-(diaqua-(\m~2~-phthalato)-(\m~2~-2-((pyridin-4-yl)methyl)-6-((pyridin-4-yl)methyl)pyrrolo[3,4-f]isoindole-1,3,5,7(2H,6H)-tetrone)-di-copper trihydrate)'
_symmetry_cell_setting           orthorhombic
_symmetry_space_group_name_H-M   'I b c a'
_symmetry_Int_Tables_number      73
_space_group_name_Hall           '-I 2b 2c'
loop_
_symmetry_equiv_pos_site_id
_symmetry_equiv_pos_as_xyz
1 x,y,z
2 1/2-x,-y,1/2+z
3 -x,1/2+y,1/2-z
4 1/2+x,1/2-y,-z
5 1/2+x,1/2+y,1/2+z
6 -x,1/2-y,z
7 1/2-x,y,-z
8 x,-y,1/2-z
9 -x,-y,-z
10 1/2+x,y,1/2-z
11 x,1/2-y,1/2+z
12 1/2-x,1/2+y,z
13 1/2-x,1/2-y,1/2-z
14 x,1/2+y,-z
15 1/2+x,-y,z
16 -x,y,1/2+z
_cell_length_a                   14.6232(10)
_cell_length_b                   16.9144(10)
_cell_length_c                   27.9419(18)
_cell_angle_alpha                90
_cell_angle_beta                 90
_cell_angle_gamma                90
_cell_volume                     6911.22
_exptl_crystal_colour            purple
_exptl_crystal_description       rodlike
_cell_formula_units_Z            8
loop_
_atom_site_label
_atom_site_type_symbol
_atom_site_fract_x
_atom_site_fract_y
_atom_site_fract_z
_atom_site_U_iso_or_equiv
_atom_site_thermal_displace_type
Cu1 Cu 0.2500 0.2500 0.2500 0.0353 Uani
O1 O 0.32157(16) 0.23390(12) 0.19232(8) 0.0411 Uani
O2 O 0.42974(16) 0.31106(12) 0.22290(8) 0.0426 Uani
O3 O 0.5906(2) -0.01583(17) 0.37366(9) 0.0610 Uani
C1 C 0.4528(2) 0.25640(16) 0.14538(10) 0.0373 Uani
N1 N 0.4399(2) -0.04874(15) 0.38765(9) 0.0400 Uani
C2 C 0.3998(2) 0.26869(17) 0.19080(11) 0.0358 Uani
O4 O 0.30024(19) -0.06824(16) 0.42459(8) 0.0587 Uani
N2 N 0.30160(19) 0.14846(15) 0.27738(9) 0.0401 Uani
C3 C 0.3804(3) -0.05056(19) 0.42648(12) 0.0440 Uani
C4 C 0.3919(2) 0.13797(19) 0.28034(12) 0.0422 Uani
H1 H 0.4313 0.1784 0.2689 0.0510 Uiso
C5 C 0.3744(2) 0.01081(17) 0.31603(10) 0.0354 Uani
C6 C 0.4066(3) 0.2616(2) 0.10176(12) 0.0498 Uani
H2 H 0.3422 0.2692 0.1014 0.0600 Uiso
C7 C 0.4125(3) -0.06357(17) 0.33857(11) 0.0407 Uani
H3 H 0.3655 -0.1057 0.3379 0.0490 Uiso
H4 H 0.4659 -0.0821 0.3199 0.0490 Uiso
C8 C 0.4298(3) 0.07062(19) 0.29937(11) 0.0429 Uani
H5 H 0.4944 0.0653 0.3010 0.0520 Uiso
C9 C 0.4537(3) 0.2557(3) 0.05916(12) 0.0646 Uani
H6 H 0.4217 0.2594 0.0297 0.0780 Uiso
C10 C 0.5272(3) -0.0241(2) 0.40060(11) 0.0431 Uani
C11 C 0.5916(3) 0.0171(2) 0.48361(12) 0.0480 Uani
H7 H 0.6519 0.0282 0.4728 0.0580 Uiso
C12 C 0.2816(3) 0.02165(19) 0.31308(13) 0.0454 Uani
H8 H 0.2409 -0.0178 0.3246 0.0550 Uiso
C13 C 0.5237(3) -0.00895(19) 0.45354(11) 0.0424 Uani
C14 C 0.4351(3) -0.0258(2) 0.46879(11) 0.0435 Uani
C15 C 0.2479(2) 0.09089(19) 0.29310(13) 0.0472 Uani
H9 H 0.1836 0.0973 0.2906 0.0570 Uiso
O1E O 0.67843(16) 0.26610(12) 0.19232(8) 0.0411 Uani
O2E O 0.57026(16) 0.18894(12) 0.22290(8) 0.0426 Uani
C1E C 0.5472(2) 0.24360(16) 0.14538(10) 0.0373 Uani
C2E C 0.6002(2) 0.23131(17) 0.19080(11) 0.0358 Uani
C6E C 0.5934(3) 0.2384(2) 0.10176(12) 0.0498 Uani
H2E H 0.6578 0.2308 0.1014 0.0600 Uiso
C9E C 0.5463(3) 0.2443(3) 0.05916(12) 0.0646 Uani
H6E H 0.5783 0.2406 0.0297 0.0780 Uiso
O3H O 0.4094(2) 0.01583(17) 0.62634(9) 0.0610 Uani
N1H N 0.5601(2) 0.04874(15) 0.61235(9) 0.0400 Uani
O4H O 0.69976(19) 0.06824(16) 0.57541(8) 0.0587 Uani
N2H N 0.69840(19) -0.14846(15) 0.72262(9) 0.0401 Uani
C3H C 0.6196(3) 0.05056(19) 0.57352(12) 0.0440 Uani
C4H C 0.6081(2) -0.13797(19) 0.71966(12) 0.0422 Uani
H1H H 0.5687 -0.1784 0.7311 0.0510 Uiso
C5H C 0.6256(2) -0.01081(17) 0.68397(10) 0.0354 Uani
C7H C 0.5875(3) 0.06357(17) 0.66143(11) 0.0407 Uani
H3H H 0.6345 0.1057 0.6621 0.0490 Uiso
H4H H 0.5341 0.0821 0.6801 0.0490 Uiso
C8H C 0.5702(3) -0.07062(19) 0.70063(11) 0.0429 Uani
H5H H 0.5056 -0.0653 0.6990 0.0520 Uiso
C10H C 0.4728(3) 0.0241(2) 0.59940(11) 0.0431 Uani
C11H C 0.4084(3) -0.0171(2) 0.51639(12) 0.0480 Uani
H7H H 0.3481 -0.0282 0.5272 0.0580 Uiso
C12H C 0.7184(3) -0.02165(19) 0.68692(13) 0.0454 Uani
H8H H 0.7591 0.0178 0.6754 0.0550 Uiso
C13H C 0.4763(3) 0.00895(19) 0.54646(11) 0.0424 Uani
C14H C 0.5649(3) 0.0258(2) 0.53121(11) 0.0435 Uani
C15H C 0.7521(2) -0.09089(19) 0.70690(13) 0.0472 Uani
H9H H 0.8164 -0.0973 0.7094 0.0570 Uiso
Cu1D Cu 0.7500 -0.2500 0.7500 0.0353 Uani
Cu1E Cu 0.7500 0.2500 0.2500 0.0353 Uani
O1L O 0.17843(16) 0.26610(12) 0.30768(8) 0.0411 Uani
N2L N 0.19840(19) 0.35154(15) 0.22262(9) 0.0401 Uani
loop_
_atom_site_aniso_label
_atom_site_aniso_U_11
_atom_site_aniso_U_22
_atom_site_aniso_U_33
_atom_site_aniso_U_23
_atom_site_aniso_U_13
_atom_site_aniso_U_12
Cu1 0.0329(4) 0.0301(3) 0.0428(4) 0.0026(3) 0.0008(3) 0.0036(3)
O1 0.0383(14) 0.0389(11) 0.0460(12) 0.0021(9) 0.0016(11) 0.0021(10)
O2 0.0415(14) 0.0435(11) 0.0429(12) -0.0065(10) -0.0057(11) 0.0082(10)
O3 0.0474(17) 0.099(2) 0.0366(12) -0.0039(13) 0.0057(13) -0.0050(15)
C1 0.0436(19) 0.0307(14) 0.0377(16) 0.0022(13) 0.0014(15) -0.0014(13)
N1 0.0456(18) 0.0422(14) 0.0321(13) 0.0000(11) -0.0017(13) 0.0042(13)
C2 0.036(2) 0.0301(15) 0.0414(18) 0.0046(13) -0.0033(15) 0.0078(14)
O4 0.0481(18) 0.0845(18) 0.0436(13) -0.0038(13) -0.0036(12) -0.0081(15)
N2 0.0414(19) 0.0343(13) 0.0447(15) 0.0055(12) 0.0017(13) 0.0075(12)
C3 0.047(2) 0.0485(18) 0.0366(17) 0.0021(14) -0.0059(16) 0.0002(17)
C4 0.040(2) 0.0413(16) 0.0454(18) 0.0090(14) 0.0026(16) -0.0008(15)
C5 0.041(2) 0.0370(16) 0.0283(14) -0.0025(12) -0.0002(13) 0.0075(14)
C6 0.049(2) 0.058(2) 0.0424(19) 0.0059(15) -0.0104(17) -0.0010(17)
C7 0.050(2) 0.0355(15) 0.0365(16) -0.0004(13) -0.0070(16) 0.0085(15)
C8 0.041(2) 0.0465(18) 0.0413(17) 0.0054(14) -0.0015(16) 0.0047(16)
C9 0.077(3) 0.082(3) 0.0348(18) 0.0047(18) -0.0067(19) -0.009(2)
C10 0.046(2) 0.0500(18) 0.0334(16) 0.0003(14) 0.0001(17) 0.0028(16)
C11 0.040(2) 0.065(2) 0.0391(17) 0.0031(16) 0.0052(16) -0.0003(17)
C12 0.047(2) 0.0362(17) 0.053(2) 0.0066(15) 0.0058(17) 0.0041(15)
C13 0.043(2) 0.0522(19) 0.0321(17) 0.0008(14) -0.0010(15) 0.0002(16)
C14 0.041(2) 0.0527(18) 0.0368(17) 0.0018(14) 0.0013(16) 0.0029(16)
C15 0.038(2) 0.0376(17) 0.066(2) 0.0077(16) 0.0045(18) 0.0066(15)
O1E 0.0383 0.0389 0.046 -0.0021 -0.0016 0.0021
O2E 0.0415 0.0435 0.0429 0.0065 0.0057 0.0082
C1E 0.0436 0.0307 0.0377 -0.0022 -0.0014 -0.0014
C2E 0.036 0.0301 0.0414 -0.0046 0.0033 0.0078
C6E 0.049 0.058 0.0424 -0.0059 0.0104 -0.001
C9E 0.077 0.082 0.0348 -0.0047 0.0067 -0.009
O3H 0.0474 0.099 0.0366 -0.0039 0.0057 -0.005
N1H 0.0456 0.0422 0.0321 0 -0.0017 0.0042
O4H 0.0481 0.0845 0.0436 -0.0038 -0.0036 -0.0081
N2H 0.0414 0.0343 0.0447 0.0055 0.0017 0.0075
C3H 0.047 0.0485 0.0366 0.0021 -0.0059 0.0002
C4H 0.04 0.0413 0.0454 0.009 0.0026 -0.0008
C5H 0.041 0.037 0.0283 -0.0025 -0.0002 0.0075
C7H 0.05 0.0355 0.0365 -0.0004 -0.007 0.0085
C8H 0.041 0.0465 0.0413 0.0054 -0.0015 0.0047
C10H 0.046 0.05 0.0334 0.0003 0.0001 0.0028
C11H 0.04 0.065 0.0391 0.0031 0.0052 -0.0003
C12H 0.047 0.0362 0.053 0.0066 0.0058 0.0041
C13H 0.043 0.0522 0.0321 0.0008 -0.001 0.0002
C14H 0.041 0.0527 0.0368 0.0018 0.0013 0.0029
C15H 0.038 0.0376 0.066 0.0077 0.0045 0.0066
Cu1D 0.0329 0.0301 0.0428 0.0026 0.0008 0.0036
Cu1E 0.0329 0.0301 0.0428 -0.0026 -0.0008 0.0036
O1L 0.0383 0.0389 0.046 0.0021 0.0016 0.0021
N2L 0.0414 0.0343 0.0447 0.0055 0.0017 0.0075
loop_
_geom_bond_atom_site_label_1
_geom_bond_atom_site_label_2
_geom_bond_site_symmetry_1
_geom_bond_site_symmetry_2
Cu1 O1 1_555 1_555
O1 C2 1_555 1_555
O2 C2 1_555 1_555
O3 C10 1_555 1_555
C1 C2 1_555 1_555
N1 C3 1_555 1_555
O4 C3 1_555 1_555
N2 Cu1 1_555 1_555
C3 C14 1_555 1_555
C4 N2 1_555 1_555
H1 C4 1_555 1_555
C5 C7 1_555 1_555
C6 C1 1_555 1_555
H2 C6 1_555 1_555
C7 N1 1_555 1_555
H3 C7 1_555 1_555
H4 C7 1_555 1_555
C8 C4 1_555 1_555
H5 C8 1_555 1_555
C9 C6 1_555 1_555
H6 C9 1_555 1_555
C10 N1 1_555 1_555
C11 H7 1_555 1_555
C12 C5 1_555 1_555
H8 C12 1_555 1_555
C13 C10 1_555 1_555
C14 C13 1_555 1_555
C15 N2 1_555 1_555
H9 C15 1_555 1_555
O1E C2E 1_555 1_555
O2E C2E 1_555 1_555
C1E C1 1_555 1_555
C2E C1E 1_555 1_555
C6E C1E 1_555 1_555
H2E C6E 1_555 1_555
C9E C9 1_555 1_555
H6E C9E 1_555 1_555
O3H C10H 1_555 1_555
N1H C3H 1_555 1_555
O4H C3H 1_555 1_555
N2H C4H 1_555 1_555
C3H C14H 1_555 1_555
C4H H1H 1_555 1_555
C5H C7H 1_555 1_555
C7H N1H 1_555 1_555
H3H C7H 1_555 1_555
H4H C7H 1_555 1_555
C8H C4H 1_555 1_555
H5H C8H 1_555 1_555
C10H N1H 1_555 1_555
C11H C14 1_555 1_555
H7H C11H 1_555 1_555
C12H C5H 1_555 1_555
H8H C12H 1_555 1_555
C13H C10H 1_555 1_555
C14H C11 1_555 1_555
C15H N2H 1_555 1_555
H9H C15H 1_555 1_555
Cu1D N2H 1_555 1_555
Cu1E O1E 1_555 1_555
O1L Cu1 1_555 1_555
N2L Cu1 1_555 1_555
C5 C8 1_555 1_555
C11 C13 1_555 1_555
C12 C15 1_555 1_555
C6E C9E 1_555 1_555
C5H C8H 1_555 1_555
C11H C13H 1_555 1_555
C12H C15H 1_555 1_555
C13H C14H 1_555 1_555

#END
