
#######################################################################
#
#                 Cambridge Crystallographic Data Centre
#                                CCDC 
#
#######################################################################
#
# If this CIF has been generated from an entry in the Cambridge 
# Structural Database, then it will include bibliographic, chemical, 
# crystal, experimental, refinement or atomic coordinate data resulting 
# from the CCDC's data processing and validation procedures.
#
#######################################################################

data_IXAKAU
_chemical_formula_moiety         
'(C26 H18 Cu2 N2 O10)n,3n(C3 H7 N1 O1),7n(H2 O1)'
_chemical_name_systematic        
'catena-(bis(\m~4~-5-(3-Pyridyl)isophthalato)-diaqua-di-copper dimethylformamide solvate heptahydrate)'
_symmetry_cell_setting           monoclinic
_symmetry_space_group_name_H-M   'P 21/c'
_symmetry_Int_Tables_number      14
_space_group_name_Hall           '-P 2ybc'
loop_
_symmetry_equiv_pos_site_id
_symmetry_equiv_pos_as_xyz
1 x,y,z
2 -x,1/2+y,1/2-z
3 -x,-y,-z
4 x,1/2-y,1/2+z
_cell_length_a                   14.564(3)
_cell_length_b                   26.220(5)
_cell_length_c                   14.207(5)
_cell_angle_alpha                90
_cell_angle_beta                 107.08(3)
_cell_angle_gamma                90
_cell_volume                     5185.92
_exptl_crystal_colour            blue
_exptl_crystal_description       block
_cell_formula_units_Z            4
loop_
_atom_site_label
_atom_site_type_symbol
_atom_site_fract_x
_atom_site_fract_y
_atom_site_fract_z
C1 C 0.4412(8) 0.2779(4) 0.3071(9)
H1 H 0.4648 0.2614 0.2594
C2 C 0.3797(9) 0.3212(5) 0.2807(8)
H2 H 0.3583 0.3328 0.2145
C3 C 0.3523(8) 0.3457(4) 0.3535(8)
H3 H 0.3172 0.3767 0.3388
C4 C 0.3750(5) 0.3261(3) 0.4481(7)
C5 C 0.4313(5) 0.2834(3) 0.4671(6)
H4 H 0.4471 0.2690 0.5313
C6 C 0.3454(6) 0.3510(3) 0.5284(7)
C7 C 0.2576(5) 0.3826(2) 0.5002(6)
H5 H 0.2206 0.3858 0.4332
C8 C 0.2307(5) 0.4075(2) 0.5738(7)
C9 C 0.2793(7) 0.4013(3) 0.6698(8)
H6 H 0.2577 0.4176 0.7191
C10 C 0.3653(6) 0.3695(3) 0.6975(6)
C11 C 0.3928(5) 0.3465(3) 0.6261(7)
H7 H 0.4488 0.3258 0.6446
C12 C 0.4168(7) 0.3620(3) 0.8052(7)
O1 O 0.4132(10) 0.3935(5) 0.8742(8)
C13 C 0.1437(5) 0.4421(3) 0.5481(7)
C14 C 0.7498(8) 0.1445(3) 0.5128(9)
H8 H 0.7391 0.1475 0.5753
C15 C 0.8334(8) 0.1241(4) 0.5042(8)
H9 H 0.8816 0.1129 0.5613
C16 C 0.8474(6) 0.1197(3) 0.4141(9)
H10 H 0.9045 0.1039 0.4091
C17 C 0.7787(5) 0.1383(3) 0.3262(6)
C18 C 0.6942(5) 0.1574(2) 0.3442(7)
H11 H 0.6434 0.1686 0.2894
C19 C 0.7878(4) 0.1378(2) 0.2288(7)
C20 C 0.8406(4) 0.1020(2) 0.1919(6)
H12 H 0.8739 0.0757 0.2346
C21 C 0.8462(5) 0.1032(2) 0.0993(7)
C22 C 0.7969(5) 0.1409(2) 0.0300(7)
H13 H 0.7981 0.1414 -0.0365
C23 C 0.7459(5) 0.1776(2) 0.0689(7)
C24 C 0.7427(4) 0.1763(2) 0.1615(6)
H14 H 0.7086 0.2024 0.1833
C25 C 0.9044(5) 0.0650(2) 0.0575(8)
C26 C 0.6886(5) 0.2181(2) -0.0087(7)
Cu1 Cu 0.56451(7) 0.20274(3) 0.43624(9)
Cu2 Cu 0.02727(6) 0.52025(3) 0.58902(9)
N1 N 0.4650(5) 0.2610(3) 0.3994(7)
N2 N 0.6826(5) 0.1604(2) 0.4303(7)
O2 O 0.4907(3) 0.33305(19) 0.8201(4)
O3 O 0.1337(3) 0.47227(18) 0.6131(4)
O4 O 0.0887(4) 0.43824(16) 0.4612(5)
O5 O 0.9493(4) 0.03289(19) 0.1240(5)
O6 O 0.9032(4) 0.06692(17) -0.0280(5)
O7 O 0.6846(4) 0.21741(19) -0.0967(5)
O8 O 0.6473(3) 0.25159(16) 0.0329(4)
O9 O 0.0703(4) 0.55430(19) 0.7330(4)
O10 O 0.5140(4) 0.1692(2) 0.5552(5)
Cu1C Cu 0.56451(7) 0.29726(3) 0.93624(9)
Cu1C_2 Cu 0.56451(7) 0.29726(3) -0.06376(9)
Cu2B Cu -0.02727(6) 0.47975(3) 0.41098(9)
Cu2C Cu 1.02727(6) -0.02025(3) 0.08902(9)
Cu2A Cu 0.97273(6) 0.02025(3) -0.08902(9)
O2C O 0.4907(3) 0.16695(19) 0.3201(4)
O4B O -0.0887(4) 0.56176(16) 0.5388(5)
O5C O -0.0507(4) 0.46711(19) 0.6240(5)
O6A O 0.0968(4) 0.56692(17) 0.5280(5)
O8C O 0.6473(3) 0.24841(16) 0.5329(4)
O11? O 0.3658(9) 0.3653(6) 0.8639(10)
loop_
_geom_bond_atom_site_label_1
_geom_bond_atom_site_label_2
_geom_bond_site_symmetry_1
_geom_bond_site_symmetry_2
C1 H1 1_555 1_555
C2 C1 1_555 1_555
H2 C2 1_555 1_555
C3 C2 1_555 1_555
H3 C3 1_555 1_555
C4 C3 1_555 1_555
C5 C4 1_555 1_555
H4 C5 1_555 1_555
C6 C4 1_555 1_555
C7 C6 1_555 1_555
H5 C7 1_555 1_555
C8 C7 1_555 1_555
C9 C8 1_555 1_555
H6 C9 1_555 1_555
C10 C9 1_555 1_555
C11 C6 1_555 1_555
H7 C11 1_555 1_555
C12 C10 1_555 1_555
O1 C12 1_555 1_555
C13 C8 1_555 1_555
C14 H8 1_555 1_555
C15 C14 1_555 1_555
H9 C15 1_555 1_555
C16 C15 1_555 1_555
H10 C16 1_555 1_555
C17 C16 1_555 1_555
C18 C17 1_555 1_555
H11 C18 1_555 1_555
C19 C17 1_555 1_555
C20 C19 1_555 1_555
H12 C20 1_555 1_555
C21 C20 1_555 1_555
C22 C21 1_555 1_555
H13 C22 1_555 1_555
C23 C22 1_555 1_555
C24 C19 1_555 1_555
H14 C24 1_555 1_555
C25 C21 1_555 1_555
C26 C23 1_555 1_555
Cu1 N1 1_555 1_555
Cu2 O3 1_555 1_555
N1 C1 1_555 1_555
N2 C14 1_555 1_555
O2 C12 1_555 1_555
O3 C13 1_555 1_555
O4 C13 1_555 1_555
O5 C25 1_555 1_555
O6 C25 1_555 1_555
O7 C26 1_555 1_555
O8 C26 1_555 1_555
O9 Cu2 1_555 1_555
O10 Cu1 1_555 1_555
Cu1C O2 1_555 1_555
Cu1C_2 O8 1_555 1_555
Cu2B O4 1_555 1_555
Cu2C O5 1_555 1_555
Cu2A O6 1_555 1_555
O2C Cu1 1_555 1_555
O4B Cu2 1_555 1_555
O5C Cu2 1_555 1_555
O6A Cu2 1_555 1_555
O8C Cu1 1_555 1_555
C5 N1 1_555 1_555
C10 C11 1_555 1_555
C18 N2 1_555 1_555
C23 C24 1_555 1_555
Cu1 N2 1_555 1_555

#END
