
#######################################################################
#
#                 Cambridge Crystallographic Data Centre
#                                CCDC 
#
#######################################################################
#
# If this CIF has been generated from an entry in the Cambridge 
# Structural Database, then it will include bibliographic, chemical, 
# crystal, experimental, refinement or atomic coordinate data resulting 
# from the CCDC's data processing and validation procedures.
#
#######################################################################

data_MACHIJ
_chemical_formula_moiety         
'(C36 H26 O17 Zn5)n,4n(C4 H9 N1 O1),5.5n(H2 O1)'
_chemical_name_systematic        
'catena-[bis(\m~4~-Fluorenone-2,7-dicarboxylato)-bis(\m~4~-ethylene glycolato)-(\m~3~-ethylene glycolato)-aqua-penta-zinc N,N-dimethylacetamide solvate hydrate]'
_symmetry_cell_setting           hexagonal
_symmetry_space_group_name_H-M   'P 63/m c m'
_symmetry_Int_Tables_number      193
_space_group_name_Hall           '-P 6c 2'
loop_
_symmetry_equiv_pos_site_id
_symmetry_equiv_pos_as_xyz
1 x,y,z
2 -y,x-y,z
3 -x+y,-x,z
4 -x,-y,1/2+z
5 y,-x+y,1/2+z
6 x-y,x,1/2+z
7 y,x,1/2-z
8 x-y,-y,1/2-z
9 -x,-x+y,1/2-z
10 -y,-x,-z
11 -x+y,y,-z
12 x,x-y,-z
13 -x,-y,-z
14 y,-x+y,-z
15 x-y,x,-z
16 x,y,1/2-z
17 -y,x-y,1/2-z
18 -x+y,-x,1/2-z
19 -y,-x,1/2+z
20 -x+y,y,1/2+z
21 x,x-y,1/2+z
22 y,x,z
23 x-y,-y,z
24 -x,-x+y,z
_cell_length_a                   26.055(4)
_cell_length_b                   26.055(4)
_cell_length_c                   35.842(7)
_cell_angle_alpha                90
_cell_angle_beta                 90
_cell_angle_gamma                120
_cell_volume                     21072
_exptl_crystal_colour            orange
_exptl_crystal_description       prism
_cell_formula_units_Z            12
loop_
_atom_site_label
_atom_site_type_symbol
_atom_site_fract_x
_atom_site_fract_y
_atom_site_fract_z
_atom_site_U_iso_or_equiv
_atom_site_thermal_displace_type
Zn1 Zn 0.0000 0.33990(3) 0.06270(3) 0.0585 Uani
Zn2 Zn 0.13915(2) 0.45430(2) 0.055118(17) 0.0521 Uani
Zn3 Zn 0.25515(3) 0.58825(3) 0.035144(17) 0.0686 Uani
C1 C 0.1158(3) 0.3343(3) 0.05135(19) 0.0663 Uani
C2 C 0.1376(3) 0.2910(3) 0.04855(19) 0.0692 Uani
C3 C 0.1980(3) 0.3106(3) 0.04477(19) 0.0686 Uani
H1 H 0.2254 0.3508 0.0430 0.0820 Uiso
C4 C 0.0966(3) 0.2304(3) 0.0516(3) 0.0933 Uani
H2 H 0.0565 0.2179 0.0544 0.1130 Uiso
C5 C 0.2163(3) 0.2688(2) 0.0438(2) 0.0718 Uani
C6 C 0.1153(3) 0.1880(3) 0.0503(3) 0.1033 Uani
H3 H 0.0882 0.1476 0.0516 0.1240 Uiso
C7 C 0.1753(2) 0.2089(3) 0.0470(2) 0.0802 Uani
C8 C 0.2777(3) 0.2777(3) 0.0417(3) 0.0768 Uani
O1 O 0.0611(2) 0.3141(2) 0.05312(17) 0.0946 Uani
O2 O 0.15494(19) 0.38861(18) 0.05141(14) 0.0789 Uani
O3 O 0.3234(2) 0.3234(2) 0.0382(3) 0.1207 Uani
C9 C 0.2034(6) 0.5441(7) 0.1143(5) 0.0688 Uani
C10 C 0.2080(5) 0.5600(4) 0.1541(2) 0.0634 Uani
C11 C 0.181(2) 0.5106(12) 0.1774(5) 0.0908 Uani
H4 H 0.1613 0.4715 0.1692 0.1090 Uiso
C12 C 0.1877(8) 0.5280(7) 0.2152(4) 0.0911 Uani
C13 C 0.2148(5) 0.5851(5) 0.2291(3) 0.0754 Uani
C14 C 0.2404(5) 0.6335(6) 0.2026(3) 0.0846 Uani
H5 H 0.2585 0.6727 0.2104 0.1020 Uiso
C15 C 0.2368(5) 0.6185(5) 0.1646(3) 0.0900 Uani
H6 H 0.2538 0.6482 0.1467 0.1080 Uiso
O4 O 0.2315(4) 0.5849(3) 0.0906(2) 0.0749 Uani
O5 O 0.1393(11) 0.4310(11) 0.2500 0.1588 Uani
O8 O 0.1687(2) 0.4892(2) 0.10409(12) 0.0903 Uani
C23 C 0.1636(6) 0.4874(6) 0.2500 0.1167 Uani
C24 C 0.1734(4) 0.5052(3) -0.01766(18) 0.1312 Uani
H10 H 0.1708 0.4672 -0.0223 0.1580 Uiso
H11 H 0.1341 0.4993 -0.0221 0.1580 Uiso
C25 C 0.2085(4) 0.5420(4) -0.04495(19) 0.1312 Uani
H12 H 0.1854 0.5543 -0.0598 0.1580 Uiso
H13 H 0.2208 0.5203 -0.0611 0.1580 Uiso
C26 C 0.0307(3) 0.4570(4) 0.0405(4) 0.1592 Uani
H14 H 0.0443 0.4730 0.0157 0.1910 Uiso
H15 H 0.0443 0.4902 0.0575 0.1910 Uiso
O9 O 0.18386(16) 0.51582(14) 0.01968(10) 0.0586 Uani
O10 O 0.26127(16) 0.59490(16) -0.03112(10) 0.0647 Uani
O11 O 0.05678(18) 0.42424(18) 0.05048(16) 0.0911 Uani
O12 O 0.0000 0.3348(5) 0.1228(4) 0.1527 Uani
H16 H 0.0313(7) 0.336(5) 0.136(3) 0.2290 Uiso
Zn1B Zn 0.33990(3) 0.0000 0.06270(3) 0.0585 Uani
Zn2U Zn 0.45430(2) 0.13915(2) 0.055118(17) 0.0521 Uani
Zn2O Zn 0.13915(2) 0.45430(2) 0.444882(17) 0.0521 Uani
Zn2W Zn -0.13915(2) 0.31515(3) 0.055118(17) 0.0521 Uani
Zn3O Zn 0.25515(3) 0.58825(3) 0.464856(17) 0.0686 Uani
Zn3J Zn 0.33310(4) 0.58825(3) -0.035144(17) 0.0686 Uani
Zn3K Zn 0.25515(3) 0.66690(4) -0.035144(17) 0.0686 Uani
Zn3U Zn 0.58825(3) 0.25515(3) 0.035144(17) 0.0686 Uani
Zn3M Zn 0.58825(3) 0.33310(4) -0.035144(17) 0.0686 Uani
Zn3N Zn 0.66690(4) 0.25515(3) -0.035144(17) 0.0686 Uani
C1U C 0.3343(3) 0.1158(3) 0.05135(19) 0.0663 Uani
C2U C 0.2910(3) 0.1376(3) 0.04855(19) 0.0692 Uani
C3U C 0.3106(3) 0.1980(3) 0.04477(19) 0.0686 Uani
H1U H 0.3508 0.2254 0.0430 0.0820 Uiso
C4U C 0.2304(3) 0.0966(3) 0.0516(3) 0.0933 Uani
H2U H 0.2179 0.0565 0.0544 0.1130 Uiso
C5U C 0.2688(2) 0.2163(3) 0.0438(2) 0.0718 Uani
C6U C 0.1880(3) 0.1153(3) 0.0503(3) 0.1033 Uani
H3U H 0.1476 0.0882 0.0516 0.1240 Uiso
C7U C 0.2089(3) 0.1753(2) 0.0470(2) 0.0802 Uani
O1U O 0.3141(2) 0.0611(2) 0.05312(17) 0.0946 Uani
O1W O -0.0611(2) 0.2530(3) 0.05312(17) 0.0946 Uani
O2U O 0.38861(18) 0.15494(19) 0.05141(14) 0.0789 Uani
C9O C 0.2034(6) 0.5441(7) 0.3857(5) 0.0688 Uani
C10O C 0.2080(5) 0.5600(4) 0.3459(2) 0.0634 Uani
C11O C 0.181(2) 0.5106(12) 0.3226(5) 0.0908 Uani
H4O H 0.1613 0.4715 0.3308 0.1090 Uiso
C12O C 0.1877(8) 0.5280(7) 0.2848(4) 0.0911 Uani
C13O C 0.2148(5) 0.5851(5) 0.2709(3) 0.0754 Uani
C14O C 0.2404(5) 0.6335(6) 0.2974(3) 0.0846 Uani
H5O H 0.2585 0.6727 0.2896 0.1020 Uiso
C15O C 0.2368(5) 0.6185(5) 0.3354(3) 0.0900 Uani
H6O H 0.2538 0.6482 0.3533 0.1080 Uiso
O4O O 0.2315(4) 0.5849(3) 0.4094(2) 0.0749 Uani
O8O O 0.1687(2) 0.4892(2) 0.39591(12) 0.0903 Uani
O8U O 0.4892(2) 0.1687(2) 0.10409(12) 0.0903 Uani
C24U C 0.5052(3) 0.1734(4) -0.01766(18) 0.1312 Uani
H10U H 0.4672 0.1708 -0.0223 0.1580 Uiso
H11U H 0.4993 0.1341 -0.0221 0.1580 Uiso
C25U C 0.5420(4) 0.2085(4) -0.04495(19) 0.1312 Uani
H12U H 0.5543 0.1854 -0.0598 0.1580 Uiso
H13U H 0.5203 0.2208 -0.0611 0.1580 Uiso
C26W C -0.0307(3) 0.4263(5) 0.0405(4) 0.1592 Uani
H14W H -0.0443 0.4287 0.0157 0.1910 Uiso
H15W H -0.0443 0.4459 0.0575 0.1910 Uiso
O9U O 0.51582(14) 0.18386(16) 0.01968(10) 0.0586 Uani
O9O O 0.18386(16) 0.51582(14) 0.48032(10) 0.0586 Uani
O10U O 0.59490(16) 0.26127(16) -0.03112(10) 0.0647 Uani
O10J O 0.33363(23) 0.59490(16) 0.03112(10) 0.0647 Uani
O10K O 0.26127(16) 0.66637(23) 0.03112(10) 0.0647 Uani
O10O O 0.26127(16) 0.59490(16) 0.53112(10) 0.0647 Uani
O10S O 0.33363(23) 0.59490(16) 0.46888(10) 0.0647 Uani
O10T O 0.26127(16) 0.66637(23) 0.46888(10) 0.0647 Uani
O11W O -0.05678(18) 0.36746(25) 0.05048(16) 0.0911 Uani
O11U O 0.42424(18) 0.05678(18) 0.05048(16) 0.0911 Uani
H16W H -0.0313(7) 0.3047(50) 0.136(3) 0.2290 Uiso
C16? C 0.2189(10) 0.5318(10) 0.1110(5) 0.0638 Uani
C17? C 0.2342(7) 0.5364(6) 0.1537(4) 0.0694 Uani
C18? C 0.190(3) 0.5116(18) 0.1825(8) 0.0908 Uani
H7? H 0.1510 0.4937 0.1751 0.1090 Uiso
C19? C 0.2014(9) 0.5117(10) 0.2207(7) 0.0911 Uani
C20? C 0.2621(6) 0.5468(6) 0.2295(4) 0.0729 Uani
C21? C 0.3057(8) 0.5769(7) 0.2030(4) 0.0846 Uani
H8? H 0.3448 0.6013 0.2105 0.1020 Uiso
C22? C 0.2915(8) 0.5707(7) 0.1647(4) 0.0900 Uani
H9? H 0.3212 0.5901 0.1470 0.1080 Uiso
O6? O 0.2560(4) 0.5656(5) 0.0912(3) 0.0629 Uani
O7? O 0.1089(16) 0.4515(17) 0.2500 0.1588 Uani
loop_
_atom_site_aniso_label
_atom_site_aniso_U_11
_atom_site_aniso_U_22
_atom_site_aniso_U_33
_atom_site_aniso_U_23
_atom_site_aniso_U_13
_atom_site_aniso_U_12
Zn1 0.0385(4) 0.0393(3) 0.0974(7) 0.0040(3) 0.000 0.0192(2)
Zn2 0.0414(3) 0.0409(3) 0.0668(4) 0.0041(2) 0.0019(2) 0.0152(2)
Zn3 0.0596(4) 0.0542(4) 0.0479(4) 0.0006(2) 0.0036(3) -0.0046(3)
C1 0.059(3) 0.057(3) 0.091(4) 0.002(3) 0.003(3) 0.035(3)
C2 0.053(3) 0.057(3) 0.109(5) 0.004(3) 0.003(3) 0.036(3)
C3 0.055(3) 0.050(3) 0.103(4) -0.001(3) 0.001(3) 0.028(3)
C4 0.053(3) 0.049(3) 0.184(8) -0.004(4) -0.001(4) 0.030(3)
C5 0.056(3) 0.046(3) 0.118(5) 0.002(3) 0.000(3) 0.029(3)
C6 0.057(4) 0.057(4) 0.202(9) 0.002(4) 0.004(4) 0.033(3)
C7 0.047(3) 0.052(3) 0.142(6) 0.005(3) -0.003(3) 0.025(3)
C8 0.053(3) 0.053(3) 0.133(8) 0.008(4) 0.008(4) 0.033(4)
O1 0.051(2) 0.055(2) 0.185(5) 0.003(3) 0.012(3) 0.032(2)
O2 0.062(2) 0.056(2) 0.126(4) 0.002(2) 0.000(2) 0.035(2)
O3 0.052(3) 0.052(3) 0.250(12) 0.010(4) 0.010(4) 0.020(3)
C9 0.052(7) 0.073(9) 0.065(8) -0.007(6) 0.017(5) 0.019(6)
C10 0.067(6) 0.053(5) 0.045(4) -0.001(4) 0.003(4) 0.011(5)
C11 0.084(16) 0.089(5) 0.051(6) 0.000(4) -0.005(7) 0.007(6)
C12 0.109(9) 0.065(9) 0.040(6) 0.019(5) -0.021(5) -0.001(6)
C13 0.081(7) 0.063(6) 0.057(5) 0.004(5) 0.008(5) 0.017(5)
C14 0.076(6) 0.082(6) 0.059(5) -0.004(4) 0.004(4) 0.012(5)
C15 0.092(6) 0.072(5) 0.070(5) 0.014(4) 0.009(5) 0.014(5)
O4 0.093(6) 0.053(4) 0.054(4) 0.004(3) 0.015(4) 0.018(4)
O5 0.15(2) 0.120(18) 0.079(6) 0.000 0.000 -0.028(12)
O8 0.100(3) 0.069(3) 0.059(2) 0.004(2) 0.006(2) 0.010(3)
C23 0.119(9) 0.095(8) 0.066(6) 0.000 0.000 0.001(7)
C24 0.110(4) 0.103(4) 0.055(2) -0.006(2) -0.012(3) -0.041(3)
C25 0.110(4) 0.103(4) 0.055(2) -0.006(2) -0.012(3) -0.041(3)
C26 0.056(4) 0.077(5) 0.343(16) 0.083(8) -0.001(6) 0.032(4)
O9 0.0567(19) 0.0432(17) 0.0568(19) 0.0018(15) 0.0001(16) 0.0106(15)
O10 0.056(2) 0.056(2) 0.050(2) -0.0055(15) -0.0031(15) 0.0039(17)
O11 0.046(2) 0.053(2) 0.173(5) 0.028(3) -0.003(2) 0.0238(18)
O12 0.100(7) 0.166(9) 0.170(11) 0.019(7) 0.000 0.050(3)
Zn1B 0.0394 0.0385 0.0974 0 0.004 0.0193
Zn2U 0.0409 0.0414 0.0668 0.0019 0.0041 0.0152
Zn2O 0.0414 0.0409 0.0668 -0.0041 -0.0019 0.0152
Zn2W 0.0414 0.0519 0.0668 0.0022 -0.0019 0.0262
Zn3O 0.0596 0.0542 0.0479 -0.0006 -0.0036 -0.0046
Zn3J 0.123 0.0542 0.0479 -0.0006 0.003 0.0588
Zn3K 0.0596 0.123 0.0479 -0.003 -0.0036 0.0642
Zn3U 0.0542 0.0596 0.0479 0.0036 0.0006 -0.0046
Zn3M 0.0542 0.123 0.0479 0.003 -0.0006 0.0588
Zn3N 0.123 0.0596 0.0479 -0.0036 -0.003 0.0642
C1U 0.057 0.059 0.091 0.003 0.002 0.035
C2U 0.057 0.053 0.109 0.003 0.004 0.036
C3U 0.05 0.055 0.103 0.001 -0.001 0.028
C4U 0.049 0.053 0.184 -0.001 -0.004 0.03
C5U 0.046 0.056 0.118 0 0.002 0.029
C6U 0.057 0.057 0.202 0.004 0.002 0.033
C7U 0.052 0.047 0.142 -0.003 0.005 0.025
O1U 0.055 0.051 0.185 0.012 0.003 0.032
O1W 0.051 0.042 0.185 -0.009 -0.012 0.019
O2U 0.056 0.062 0.126 0 0.002 0.035
C9O 0.052 0.073 0.065 0.007 -0.017 0.019
C10O 0.067 0.053 0.045 0.001 -0.003 0.011
C11O 0.084 0.089 0.051 0 0.005 0.007
C12O 0.109 0.065 0.04 -0.019 0.021 -0.001
C13O 0.081 0.063 0.057 -0.004 -0.008 0.017
C14O 0.076 0.082 0.059 0.004 -0.004 0.012
C15O 0.092 0.072 0.07 -0.014 -0.009 0.014
O4O 0.093 0.053 0.054 -0.004 -0.015 0.018
O8O 0.1 0.069 0.059 -0.004 -0.006 0.01
O8U 0.069 0.1 0.059 0.006 0.004 0.01
C24U 0.103 0.11 0.055 -0.012 -0.006 -0.041
C25U 0.103 0.11 0.055 -0.012 -0.006 -0.041
C26W 0.056 0.069 0.343 0.084 0.001 0.024
O9U 0.0432 0.0567 0.0568 0.0001 0.0018 0.0106
O9O 0.0567 0.0432 0.0568 -0.0018 -0.0001 0.0106
O10U 0.056 0.056 0.05 -0.0031 -0.0055 0.0039
O10J 0.1042 0.056 0.05 0.0055 0.0024 0.0521
O10K 0.056 0.1042 0.05 -0.0024 0.0031 0.0521
O10O 0.056 0.056 0.05 0.0055 0.0031 0.0039
O10S 0.1042 0.056 0.05 -0.0055 -0.0024 0.0521
O10T 0.056 0.1042 0.05 0.0024 -0.0031 0.0521
O11W 0.046 0.0514 0.173 0.031 0.003 0.0222
O11U 0.053 0.046 0.173 -0.003 0.028 0.0238
C16? 0.076(13) 0.090(13) 0.030(6) -0.024(7) -0.001(7) 0.045(11)
C17? 0.083(10) 0.062(8) 0.051(7) -0.001(6) -0.004(6) 0.027(8)
C18? 0.084(16) 0.089(5) 0.051(6) 0.000(4) -0.005(7) 0.007(6)
C19? 0.109(9) 0.065(9) 0.040(6) 0.019(5) -0.021(5) -0.001(6)
C20? 0.071(9) 0.062(8) 0.060(7) -0.005(6) 0.003(6) 0.014(7)
C21? 0.076(6) 0.082(6) 0.059(5) -0.004(4) 0.004(4) 0.012(5)
C22? 0.092(6) 0.072(5) 0.070(5) 0.014(4) 0.009(5) 0.014(5)
O6? 0.048(5) 0.073(6) 0.050(5) 0.019(5) 0.009(4) 0.017(5)
O7? 0.15(2) 0.120(18) 0.079(6) 0.000 0.000 -0.028(12)
loop_
_geom_bond_atom_site_label_1
_geom_bond_atom_site_label_2
_geom_bond_site_symmetry_1
_geom_bond_site_symmetry_2
Zn1 O1 1_555 1_555
Zn2 O2 1_555 1_555
Zn3 O4 1_555 1_555
C1 C2 1_555 1_555
C2 C3 1_555 1_555
C3 H1 1_555 1_555
C4 C2 1_555 1_555
H2 C4 1_555 1_555
C5 C3 1_555 1_555
C6 C4 1_555 1_555
H3 C6 1_555 1_555
C7 C5 1_555 1_555
C8 C5 1_555 1_555
O1 C1 1_555 1_555
O2 C1 1_555 1_555
O3 C8 1_555 1_555
C9 C10 1_555 1_555
C10 C11 1_555 1_555
C11 H4 1_555 1_555
C12 C11 1_555 1_555
C13 C12 1_555 1_555
C14 C13 1_555 1_555
H5 C14 1_555 1_555
C15 C10 1_555 1_555
H6 C15 1_555 1_555
O4 C9 1_555 1_555
O5 C23 1_555 1_555
O8 Zn2 1_555 1_555
C23 C12 1_555 1_555
C24 H10 1_555 1_555
H11 C24 1_555 1_555
C25 C24 1_555 1_555
H12 C25 1_555 1_555
H13 C25 1_555 1_555
C26 H14 1_555 1_555
H15 C26 1_555 1_555
O9 Zn2 1_555 1_555
O10 Zn3 1_555 1_555
O11 Zn1 1_555 1_555
O12 Zn1 1_555 1_555
H16 O12 1_555 1_555
Zn1B O1U 1_555 1_555
Zn2U O2U 1_555 1_555
Zn2O O8O 1_555 1_555
Zn2W O11W 1_555 1_555
Zn3O O4O 1_555 1_555
Zn3J O10 1_555 1_555
Zn3K O10 1_555 1_555
Zn3U O9U 1_555 1_555
Zn3M O10U 1_555 1_555
Zn3N O10U 1_555 1_555
C1U C2U 1_555 1_555
C2U C3U 1_555 1_555
C3U H1U 1_555 1_555
C4U C2U 1_555 1_555
H2U C4U 1_555 1_555
C5U C8 1_555 1_555
C6U C4U 1_555 1_555
H3U C6U 1_555 1_555
C7U C7 1_555 1_555
O1U C1U 1_555 1_555
O1W Zn1 1_555 1_555
O2U C1U 1_555 1_555
C9O C10O 1_555 1_555
C10O C11O 1_555 1_555
C11O H4O 1_555 1_555
C12O C23 1_555 1_555
C13O C13 1_555 1_555
C14O C13O 1_555 1_555
H5O C14O 1_555 1_555
C15O C10O 1_555 1_555
H6O C15O 1_555 1_555
O4O C9O 1_555 1_555
O8O C9O 1_555 1_555
O8U Zn2U 1_555 1_555
C24U H10U 1_555 1_555
H11U C24U 1_555 1_555
C25U C24U 1_555 1_555
H12U C25U 1_555 1_555
H13U C25U 1_555 1_555
C26W C26 1_555 1_555
H14W C26W 1_555 1_555
H15W C26W 1_555 1_555
O9U Zn2U 1_555 1_555
O9O Zn2O 1_555 1_555
O10U Zn3U 1_555 1_555
O10J Zn3 1_555 1_555
O10K Zn3 1_555 1_555
O10O Zn3O 1_555 1_555
O10S Zn3O 1_555 1_555
O10T Zn3O 1_555 1_555
O11W Zn1 1_555 1_555
O11U Zn1B 1_555 1_555
H16W O12 1_555 1_555
Zn2 O11 1_555 1_555
Zn3 O9 1_555 1_555
C6 C7 1_555 1_555
C9 O8 1_555 1_555
C14 C15 1_555 1_555
C24 O9 1_555 1_555
C25 O10 1_555 1_555
C26 O11 1_555 1_555
Zn2U O11U 1_555 1_555
Zn3O O9O 1_555 1_555
Zn3J O10J 1_555 1_555
Zn3K O10K 1_555 1_555
C3U C5U 1_555 1_555
C5U C7U 1_555 1_555
C6U C7U 1_555 1_555
C11O C12O 1_555 1_555
C12O C13O 1_555 1_555
C14O C15O 1_555 1_555
C24U O9U 1_555 1_555
C25U O10U 1_555 1_555
C26W O11W 1_555 1_555

#END
