
#######################################################################
#
#                 Cambridge Crystallographic Data Centre
#                                CCDC 
#
#######################################################################
#
# If this CIF has been generated from an entry in the Cambridge 
# Structural Database, then it will include bibliographic, chemical, 
# crystal, experimental, refinement or atomic coordinate data resulting 
# from the CCDC's data processing and validation procedures.
#
#######################################################################

data_AHORAR
_chemical_name_common            PCN-18
_chemical_formula_moiety         '(C28 H18 Cu1 O5)n,2n(C4 H9 N1 O1)'
_chemical_name_systematic        
"catena-((\m~4~-4,4'-anthracene-9,10-diyldibenzoato)-aqua-copper dimethylacetamide solvate)"
_symmetry_cell_setting           orthorhombic
_symmetry_space_group_name_H-M   'I b a m'
_symmetry_Int_Tables_number      72
_space_group_name_Hall           '-I 2 2c'
loop_
_symmetry_equiv_pos_site_id
_symmetry_equiv_pos_as_xyz
1 x,y,z
2 -x,-y,z
3 x,-y,1/2-z
4 -x,y,1/2-z
5 1/2+x,1/2+y,1/2+z
6 1/2-x,1/2-y,1/2+z
7 1/2+x,1/2-y,-z
8 1/2-x,1/2+y,-z
9 -x,-y,-z
10 x,y,-z
11 -x,y,1/2+z
12 x,-y,1/2+z
13 1/2-x,1/2-y,1/2-z
14 1/2+x,1/2+y,1/2-z
15 1/2-x,1/2+y,z
16 1/2+x,1/2-y,z
_cell_length_a                   13.923(3)
_cell_length_b                   17.382(4)
_cell_length_c                   31.841(6)
_cell_angle_alpha                90
_cell_angle_beta                 90
_cell_angle_gamma                90
_cell_volume                     7705.83
_exptl_crystal_colour            turquoise
_exptl_crystal_description       block
_cell_formula_units_Z            8
loop_
_atom_site_label
_atom_site_type_symbol
_atom_site_fract_x
_atom_site_fract_y
_atom_site_fract_z
_atom_site_U_iso_or_equiv
_atom_site_thermal_displace_type
Cu1 Cu 0.07460(3) 0.95277(3) 0.5000 0.0414 Uani
O1 O 0.12444(17) 1.02015(15) 0.45588(7) 0.0637 Uani
C1 C 0.0753(3) 1.0752(2) 0.44138(12) 0.0610 Uani
O2 O 0.1921(3) 0.8725(3) 0.5000 0.1110 Uani
O3 O -0.00293(18) 1.10030(14) 0.45579(7) 0.0613 Uani
C2 C 0.1120(3) 1.1138(2) 0.40235(12) 0.0733 Uani
C3 C 0.0583(3) 1.1699(3) 0.38279(15) 0.1007 Uani
H1 H -0.0010 1.1862 0.3945 0.1200 Uiso
C4 C 0.0924(4) 1.2033(4) 0.34492(16) 0.1137 Uani
H2 H 0.0556 1.2420 0.3314 0.1360 Uiso
C5 C 0.2016(3) 1.0934(3) 0.38547(15) 0.0950 Uani
H3 H 0.2407 1.0570 0.3997 0.1140 Uiso
C6 C 0.2336(3) 1.1258(3) 0.34835(17) 0.1113 Uani
H4 H 0.2939 1.1107 0.3370 0.1340 Uiso
C7 C 0.1782(3) 1.1801(3) 0.32753(16) 0.1027 Uani
C8 C 0.2133(4) 1.2150(3) 0.28683(17) 0.0997 Uani
C9 C 0.2709(3) 1.2836(3) 0.2902(2) 0.1027 Uani
C10 C 0.1184(5) 1.0845(5) 0.2062(3) 0.1373 Uani
H5 H 0.0804 1.0392 0.2047 0.1650 Uiso
C11 C 0.1928(3) 1.1822(4) 0.24834(19) 0.1070 Uani
C12 C 0.1349(4) 1.1136(4) 0.2432(2) 0.1210 Uani
H6 H 0.1084 1.0893 0.2674 0.1450 Uiso
C13 C 0.2932(4) 1.3230(5) 0.3300(2) 0.1257 Uani
H7 H 0.2674 1.3030 0.3553 0.1500 Uiso
C14 C 0.1528(4) 1.1154(4) 0.1684(2) 0.1323 Uani
H8 H 0.1373 1.0922 0.1423 0.1590 Uiso
Cu1A Cu -0.07460(3) 1.04723(3) 0.5000 0.0414 Uani
Cu1E Cu 0.42540(3) 1.54723(3) 0.0000 0.0414 Uani
Cu1D Cu 0.57460(3) 1.45277(3) 0.0000 0.0414 Uani
O1L O 0.37556(17) 1.47985(15) 0.04412(7) 0.0637 Uani
O1I O 0.12444(17) 1.02015(15) 0.54412(7) 0.0637 Uani
C1L C 0.4247(3) 1.4248(2) 0.05862(12) 0.0610 Uani
O3L O 0.50293(18) 1.39970(14) 0.04421(7) 0.0613 Uani
O3A O 0.00293(18) 0.89970(14) 0.45579(7) 0.0613 Uani
O3H O 0.00293(18) 0.89970(14) 0.54421(7) 0.0613 Uani
C2L C 0.3880(3) 1.3862(2) 0.09765(12) 0.0733 Uani
C3L C 0.4417(3) 1.3301(3) 0.11721(15) 0.1007 Uani
H1L H 0.5010 1.3138 0.1055 0.1200 Uiso
C4L C 0.4076(4) 1.2967(4) 0.15508(16) 0.1137 Uani
H2L H 0.4444 1.2580 0.1686 0.1360 Uiso
C5L C 0.2984(3) 1.4066(3) 0.11453(15) 0.0950 Uani
H3L H 0.2593 1.4430 0.1003 0.1140 Uiso
C6L C 0.2664(3) 1.3742(3) 0.15165(17) 0.1113 Uani
H4L H 0.2061 1.3893 0.1630 0.1340 Uiso
C7L C 0.3218(3) 1.3199(3) 0.17247(16) 0.1027 Uani
C8L C 0.2867(4) 1.2850(3) 0.21317(17) 0.0997 Uani
C9L C 0.2291(3) 1.2164(3) 0.2098(2) 0.1027 Uani
C10L C 0.3816(5) 1.4155(5) 0.2938(3) 0.1373 Uani
H5L H 0.4196 1.4608 0.2953 0.1650 Uiso
C11L C 0.3072(3) 1.3178(4) 0.25166(19) 0.1070 Uani
C12L C 0.3651(4) 1.3864(4) 0.2568(2) 0.1210 Uani
H6L H 0.3916 1.4107 0.2326 0.1450 Uiso
C13L C 0.2068(4) 1.1770(5) 0.1700(2) 0.1257 Uani
H7L H 0.2326 1.1970 0.1447 0.1500 Uiso
C14L C 0.3472(4) 1.3846(4) 0.3316(2) 0.1323 Uani
H8L H 0.3627 1.4078 0.3577 0.1590 Uiso
loop_
_atom_site_aniso_label
_atom_site_aniso_U_11
_atom_site_aniso_U_22
_atom_site_aniso_U_33
_atom_site_aniso_U_23
_atom_site_aniso_U_13
_atom_site_aniso_U_12
Cu1 0.0551(3) 0.0493(3) 0.0197(3) 0.000 0.000 -0.0186(2)
O1 0.0661(14) 0.0811(16) 0.0440(13) 0.0191(12) 0.0125(11) -0.0186(13)
C1 0.070(2) 0.068(2) 0.045(2) 0.0184(17) 0.0021(16) -0.0280(19)
O2 0.084(3) 0.105(3) 0.144(5) 0.000 0.000 -0.001(3)
O3 0.0713(15) 0.0742(16) 0.0384(12) 0.0172(11) 0.0125(10) -0.0126(12)
C2 0.071(2) 0.095(3) 0.054(2) 0.036(2) 0.0127(17) -0.021(2)
C3 0.084(3) 0.149(5) 0.069(3) 0.062(3) 0.031(2) 0.007(3)
C4 0.095(3) 0.167(5) 0.079(3) 0.083(4) 0.034(3) 0.016(3)
C5 0.084(3) 0.123(4) 0.078(3) 0.051(3) 0.033(2) 0.005(3)
C6 0.085(3) 0.151(5) 0.098(4) 0.078(4) 0.036(3) 0.020(3)
C7 0.083(3) 0.142(4) 0.083(3) 0.068(3) 0.032(2) 0.004(3)
C8 0.082(3) 0.131(4) 0.086(4) 0.063(3) 0.023(3) 0.004(3)
C9 0.082(3) 0.127(4) 0.099(4) 0.061(3) 0.028(3) 0.007(3)
C10 0.110(4) 0.165(6) 0.137(7) 0.059(6) 0.032(5) -0.009(4)
C11 0.078(3) 0.143(5) 0.100(4) 0.073(4) 0.027(3) 0.004(3)
C12 0.107(4) 0.148(5) 0.108(5) 0.069(5) 0.028(4) -0.010(4)
C13 0.102(4) 0.180(6) 0.095(5) 0.055(4) 0.025(3) -0.004(4)
C14 0.123 0.157 0.117 0.045 0.031 -0.029
Cu1A 0.0551 0.0493 0.0197 0 0 -0.0186
Cu1E 0.0551 0.0493 0.0197 0 0 -0.0186
Cu1D 0.0551 0.0493 0.0197 0 0 -0.0186
O1L 0.0661 0.0811 0.044 0.0191 0.0125 -0.0186
O1I 0.0661 0.0811 0.044 -0.0191 -0.0125 -0.0186
C1L 0.07 0.068 0.045 0.0184 0.0021 -0.028
O3L 0.0713 0.0742 0.0384 0.0172 0.0125 -0.0126
O3A 0.0713 0.0742 0.0384 -0.0172 -0.0125 -0.0126
O3H 0.0713 0.0742 0.0384 0.0172 0.0125 -0.0126
C2L 0.071 0.095 0.054 0.036 0.0127 -0.021
C3L 0.084 0.149 0.069 0.062 0.031 0.007
C4L 0.095 0.167 0.079 0.083 0.034 0.016
C5L 0.084 0.123 0.078 0.051 0.033 0.005
C6L 0.085 0.151 0.098 0.078 0.036 0.02
C7L 0.083 0.142 0.083 0.068 0.032 0.004
C8L 0.082 0.131 0.086 0.063 0.023 0.004
C9L 0.082 0.127 0.099 0.061 0.028 0.007
C10L 0.11 0.165 0.137 0.059 0.032 -0.009
C11L 0.078 0.143 0.1 0.073 0.027 0.004
C12L 0.107 0.148 0.108 0.069 0.028 -0.01
C13L 0.102 0.18 0.095 0.055 0.025 -0.004
C14L 0.123(5) 0.157(6) 0.117(5) 0.045(5) 0.031(4) -0.029(4)
loop_
_geom_bond_atom_site_label_1
_geom_bond_atom_site_label_2
_geom_bond_site_symmetry_1
_geom_bond_site_symmetry_2
Cu1 O1 1_555 1_555
O1 C1 1_555 1_555
C1 O3 1_555 1_555
O2 Cu1 1_555 1_555
O3 Cu1A 1_555 1_555
C2 C1 1_555 1_555
C3 C2 1_555 1_555
H1 C3 1_555 1_555
C4 C3 1_555 1_555
H2 C4 1_555 1_555
C5 C2 1_555 1_555
H3 C5 1_555 1_555
C6 C5 1_555 1_555
H4 C6 1_555 1_555
C7 C4 1_555 1_555
C8 C7 1_555 1_555
C9 C8 1_555 1_555
C10 H5 1_555 1_555
C11 C8 1_555 1_555
C12 C10 1_555 1_555
H6 C12 1_555 1_555
C13 C9 1_555 1_555
H7 C13 1_555 1_555
C14 C10 1_555 1_555
H8 C14 1_555 1_555
Cu1E O1L 1_555 1_555
Cu1D O3L 1_555 1_555
O1L C1L 1_555 1_555
O1I Cu1 1_555 1_555
C1L O3L 1_555 1_555
O3A Cu1 1_555 1_555
O3H Cu1 1_555 1_555
C2L C1L 1_555 1_555
C3L C2L 1_555 1_555
H1L C3L 1_555 1_555
C4L C3L 1_555 1_555
H2L C4L 1_555 1_555
C5L C2L 1_555 1_555
H3L C5L 1_555 1_555
C6L C5L 1_555 1_555
H4L C6L 1_555 1_555
C7L C4L 1_555 1_555
C8L C7L 1_555 1_555
C9L C11 1_555 1_555
C10L H5L 1_555 1_555
C11L C9 1_555 1_555
C12L C10L 1_555 1_555
H6L C12L 1_555 1_555
C13L C14 1_555 1_555
H7L C13L 1_555 1_555
C14L C13 1_555 1_555
H8L C14L 1_555 1_555
C6 C7 1_555 1_555
C11 C12 1_555 1_555
C6L C7L 1_555 1_555
C8L C9L 1_555 1_555
C8L C11L 1_555 1_555
C9L C13L 1_555 1_555
C10L C14L 1_555 1_555
C11L C12L 1_555 1_555

#END
