
#######################################################################
#
#                 Cambridge Crystallographic Data Centre
#                                CCDC 
#
#######################################################################
#
# If this CIF has been generated from an entry in the Cambridge 
# Structural Database, then it will include bibliographic, chemical, 
# crystal, experimental, refinement or atomic coordinate data resulting 
# from the CCDC's data processing and validation procedures.
#
#######################################################################

data_AWAWUR
_chemical_formula_moiety         '(C90 H72 Co9 N12 O51)n'
_chemical_name_systematic        
'catena-(tris((\m~6~-Benzene-1,3,5-tricarboxylato)-(\m~3~-benzene-1,3,5-tricarboxylato))-bis(\m~3~-2,4,6-tris(pyridin-4-yl)-1,3,5-triazine)-tris(\m~2~-aqua)-dodeca-aqua-nona-cobalt unknown solvate)'
_symmetry_cell_setting           rhombohedral
_symmetry_space_group_name_H-M   'R -3 m'
_symmetry_Int_Tables_number      166
_space_group_name_Hall           '-R 3 2"'
loop_
_symmetry_equiv_pos_site_id
_symmetry_equiv_pos_as_xyz
1 x,y,z
2 -y,x-y,z
3 -x+y,-x,z
4 y,x,-z
5 -x,-x+y,-z
6 x-y,-y,-z
7 2/3+x,1/3+y,1/3+z
8 2/3-y,1/3+x-y,1/3+z
9 2/3-x+y,1/3-x,1/3+z
10 2/3+y,1/3+x,1/3-z
11 2/3-x,1/3-x+y,1/3-z
12 2/3+x-y,1/3-y,1/3-z
13 1/3+x,2/3+y,2/3+z
14 1/3-y,2/3+x-y,2/3+z
15 1/3-x+y,2/3-x,2/3+z
16 1/3+y,2/3+x,2/3-z
17 1/3-x,2/3-x+y,2/3-z
18 1/3+x-y,2/3-y,2/3-z
19 -x,-y,-z
20 y,-x+y,-z
21 x-y,x,-z
22 -y,-x,z
23 x,x-y,z
24 -x+y,y,z
25 1/3-x,2/3-y,2/3-z
26 1/3+y,2/3-x+y,2/3-z
27 1/3+x-y,2/3+x,2/3-z
28 1/3-y,2/3-x,2/3+z
29 1/3+x,2/3+x-y,2/3+z
30 1/3-x+y,2/3+y,2/3+z
31 2/3-x,1/3-y,1/3-z
32 2/3+y,1/3-x+y,1/3-z
33 2/3+x-y,1/3+x,1/3-z
34 2/3-y,1/3-x,1/3+z
35 2/3+x,1/3+x-y,1/3+z
36 2/3-x+y,1/3+y,1/3+z
_cell_length_a                   27.422(3)
_cell_length_b                   27.422(3)
_cell_length_c                   38.087(8)
_cell_angle_alpha                90
_cell_angle_beta                 90
_cell_angle_gamma                120
_cell_volume                     24803.1
_exptl_crystal_colour            red
_exptl_crystal_description       block
_cell_formula_units_Z            6
loop_
_atom_site_label
_atom_site_type_symbol
_atom_site_fract_x
_atom_site_fract_y
_atom_site_fract_z
C1 C 0.3580(2) 0.0000 0.0000
C2 C 0.2570(2) 0.0000 0.0000
H1 H 0.2231 0.0000 0.0000
C3 C 0.6117(2) 0.30585(11) 0.07273(15)
C4 C 0.29064(17) 0.07350(16) 0.04707(11)
C5 C 0.51961(17) 0.30322(17) 0.07619(12)
H2 H 0.5382 0.3423 0.0749
C6 C 0.46203(16) 0.27275(16) 0.07983(12)
H3 H 0.4421 0.2920 0.0803
C7 C 0.29926(16) 0.03474(16) 0.02318(11)
C8 C 0.4139(2) 0.0000 0.0000
C9 C 0.10649(14) 0.2130(3) 0.19818(19)
C10 C 0.34965(17) 0.03383(16) 0.02351(11)
H4 H 0.3777 0.0559 0.0395
C11 C 0.5497(2) 0.27483(11) 0.07443(15)
C12 C 0.39170(16) -0.2166(3) 0.01222(19)
C13 C 0.12002(16) 0.2400(3) 0.23260(18)
C14 C 0.36042(16) -0.2792(3) 0.0178(2)
C15 C 0.4498(2) -0.1874(2) 0.00630(15)
H5 H 0.4710 -0.2046 0.0108
C16 C 0.07947(16) 0.1589(3) 0.1334(2)
H6 H 0.0700 0.1400 0.1120
C17 C 0.1707(2) 0.1589(3) 0.13209(17)
C18 C 0.4750(2) -0.1338(2) -0.00603(15)
H7 H 0.5137 -0.1150 -0.0099
C19 C 0.1306(2) 0.1730(2) 0.14921(15)
C20 C 0.14392(19) 0.1998(2) 0.18183(14)
H8 H 0.1778 0.2088 0.1927
Co1 Co 0.20221(3) 0.101105(15) 0.075716(18)
Co2 Co 0.34727(3) 0.173634(14) 0.097008(18)
Co3 Co 0.483590(19) -0.03282(4) -0.04602(2)
N1 N 0.44669(12) -0.1066(2) -0.01280(16)
N2 N 0.30408(12) -0.30408(12) 0.01816(16)
N3 N 0.43353(18) 0.21676(9) 0.08272(12)
N4 N 0.63790(9) 0.36210(9) 0.07262(13)
O1 O 0.33332(11) 0.11021(11) 0.06323(7)
O2 O 0.24190(12) 0.06619(13) 0.04853(9)
O3 O 0.42960(13) -0.00888(15) -0.02880(9)
O4 O 0.15733(12) 0.13155(13) 0.10433(8)
O5 O 0.2135(3) 0.1631(4) 0.15206(18)
O6 O 0.16704(14) 0.25336(15) 0.24693(9)
O7 O 0.1353(2) 0.06764(11) 0.03941(14)
O8 O 0.26571(16) 0.13285(8) 0.11581(10)
O9 O 0.36690(13) 0.23894(13) 0.13613(8)
O10 O 0.52104(15) 0.0421(3) -0.07885(18)
C1T C 0.3580(2) 0.3580(2) 0.0000
C1R C 0.6420(2) 0.0000 0.0000
C2T C 0.2570(2) 0.2570(2) 0.0000
C2R C 0.7430(2) 0.0000 0.0000
H1T H 0.2231 0.2231 0.0000
H1R H 0.7769 0.0000 0.0000
C3B C 0.69415(23) 0.3883(2) 0.07273(15)
C3A C 0.69415(11) 0.30585(23) 0.07273(15)
C4E C 0.21714(23) -0.07350(16) -0.04707(11)
C4V C 0.29064(17) 0.21714(23) 0.04707(11)
C4T C 0.21714(23) 0.29064(17) -0.04707(11)
C4W C 0.78286(23) 0.07350(16) 0.04707(11)
C4R C 0.70936(17) -0.07350(16) -0.04707(11)
C5V C 0.51961(17) 0.21639(24) 0.07619(12)
C5B C 0.78361(24) 0.48039(17) 0.07619(12)
C5U C 0.69678(17) 0.48039(17) 0.07619(12)
C5A C 0.69678(17) 0.21639(24) 0.07619(12)
C5W C 0.78361(24) 0.30322(17) 0.07619(12)
H2V H 0.5382 0.1959 0.0749
H2B H 0.8041 0.4618 0.0749
H2U H 0.6577 0.4618 0.0749
H2A H 0.6577 0.1959 0.0749
H2W H 0.8041 0.3423 0.0749
C6V C 0.46203(16) 0.18928(23) 0.07983(12)
C6B C 0.81072(23) 0.53797(16) 0.07983(12)
C6U C 0.72725(16) 0.53797(16) 0.07983(12)
C6A C 0.72725(16) 0.18928(23) 0.07983(12)
C6W C 0.81072(23) 0.27275(16) 0.07983(12)
H3V H 0.4421 0.1501 0.0803
H3B H 0.8499 0.5579 0.0803
H3U H 0.7080 0.5579 0.0803
H3A H 0.7080 0.1501 0.0803
H3W H 0.8499 0.2920 0.0803
C7E C 0.26452(23) -0.03474(16) -0.02318(11)
C7V C 0.29926(16) 0.26452(23) 0.02318(11)
C7T C 0.26452(23) 0.29926(16) -0.02318(11)
C7W C 0.73548(23) 0.03474(16) 0.02318(11)
C7R C 0.70074(16) -0.03474(16) -0.02318(11)
C8T C 0.4139(2) 0.4139(2) 0.0000
C8R C 0.5861(2) 0.0000 0.0000
C9V C 0.10649(14) -0.10651(33) 0.19818(19)
C9L C 0.43982(14) -0.1203(3) -0.13515(19)
C10E C 0.31582(23) -0.03383(16) -0.02351(11)
C10V C 0.34965(17) 0.31582(23) 0.02351(11)
C10T C 0.31582(23) 0.34965(17) -0.02351(11)
C10W C 0.68418(23) 0.03383(16) 0.02351(11)
C10R C 0.65035(17) -0.03383(16) -0.02351(11)
H4E H 0.3218 -0.0559 -0.0395
H4V H 0.3777 0.3218 0.0395
H4T H 0.3218 0.3777 -0.0395
H4W H 0.6782 0.0559 0.0395
H4R H 0.6223 -0.0559 -0.0395
C11B C 0.72513(23) 0.4503(2) 0.07443(15)
C11A C 0.72517(11) 0.27487(23) 0.07443(15)
C12A C 0.2166(3) -0.39170(34) 0.01222(19)
C12B C 0.39170(34) -0.39170(16) 0.01222(19)
C13V C 0.12002(16) -0.11998(34) 0.23260(18)
C13L C 0.45335(16) -0.0933(3) -0.10073(18)
C14A C 0.2792(3) -0.36038(34) 0.0178(2)
C14B C 0.36038(34) -0.36042(16) 0.0178(2)
C15A C 0.1874(2) -0.3628(3) 0.00630(15)
C15U C 0.1874(2) -0.4498(2) 0.00630(15)
C15B C 0.3628(3) -0.4498(2) 0.00630(15)
C15V C 0.4498(2) -0.3628(3) 0.00630(15)
C15W C 0.3628(3) -0.1874(2) 0.00630(15)
H5A H 0.2046 -0.3244 0.0108
H5U H 0.2046 -0.4710 0.0108
H5B H 0.3244 -0.4710 0.0108
H5V H 0.4710 -0.3244 0.0108
H5W H 0.3244 -0.2046 0.0108
C16V C 0.07947(16) -0.07943(34) 0.1334(2)
C16L C 0.41280(16) -0.1744(3) -0.1999(2)
H6B H 0.0700 -0.0700 0.1120
H6L H 0.4033 -0.1933 -0.2213
C17W C -0.0118(4) 0.1589(3) 0.13209(17)
C17V C 0.1707(2) 0.0118(4) 0.13209(17)
C17B C -0.0118(4) -0.1707(2) 0.13209(17)
C17L C 0.5040(2) -0.1744(3) -0.20124(17)
C17CA C 0.3215(4) -0.1744(3) -0.20124(17)
C18A C 0.1338(2) -0.3912(3) -0.00603(15)
C18U C 0.1338(2) -0.4750(2) -0.00603(15)
C18B C 0.3912(3) -0.4750(2) -0.00603(15)
C18V C 0.4750(2) -0.3912(3) -0.00603(15)
C18W C 0.3912(3) -0.1338(2) -0.00603(15)
H7A H 0.1150 -0.3713 -0.0099
H7U H 0.1150 -0.5137 -0.0099
H7B H 0.3713 -0.5137 -0.0099
H7V H 0.5137 -0.3713 -0.0099
H7W H 0.3713 -0.1150 -0.0099
C19W C 0.0424(3) 0.1730(2) 0.14921(15)
C19V C 0.1306(2) -0.0424(3) 0.14921(15)
C19B C 0.0424(3) -0.1306(2) 0.14921(15)
C19L C 0.4639(2) -0.1603(2) -0.18412(15)
C19CA C 0.3757(3) -0.1603(2) -0.18412(15)
C20W C 0.05588(28) 0.1998(2) 0.18183(14)
C20V C 0.14392(19) -0.05588(28) 0.18183(14)
C20B C 0.05588(28) -0.14392(19) 0.18183(14)
C20L C 0.47725(19) -0.1335(2) -0.15150(14)
C20CA C 0.38921(28) -0.1335(2) -0.15150(14)
H8W H 0.0310 0.2088 0.1927
H8V H 0.1778 -0.0310 0.1927
H8B H 0.0310 -0.1778 0.1927
H8L H 0.5111 -0.1245 -0.1406
H8CA H 0.3643 -0.1245 -0.1406
Co1E Co 0.101105(34) -0.101105(15) -0.075716(18)
Co1C Co 0.101105(15) 0.20221(3) -0.075716(18)
Co1A Co -0.101105(15) 0.101105(34) 0.075716(18)
Co1B Co -0.101105(34) -0.20221(3) 0.075716(18)
Co1A_2 Co 0.898895(15) 0.101105(34) 0.075716(18)
Co1D Co 0.79779(3) -0.101105(34) -0.075716(18)
Co1L Co 0.53554(3) -0.232228(15) -0.257617(18)
Co1M Co 0.232228(15) -0.232228(34) -0.257617(18)
Co2E Co 0.173636(33) -0.173634(14) -0.097008(18)
Co2T Co 0.173636(33) 0.34727(3) -0.097008(18)
Co2B Co 0.826364(33) 0.65273(3) 0.097008(18)
Co2A Co 0.826366(14) 0.173636(33) 0.097008(18)
Co2R Co 0.65273(3) -0.173634(14) -0.097008(18)
Co3E Co 0.516410(44) 0.03282(4) 0.04602(2)
Co3B Co 0.483590(44) 0.516410(19) -0.04602(2)
Co3F Co 0.150257(19) 0.30051(4) 0.28731(2)
Co3A Co 0.03282(4) -0.483590(44) -0.04602(2)
Co3B_2 Co 0.483590(44) -0.483590(19) -0.04602(2)
Co3D Co 0.516410(19) 0.483590(44) 0.04602(2)
Co3H Co 0.150257(44) -0.150257(19) 0.28731(2)
N1A N 0.1066(2) -0.44671(23) -0.01280(16)
N1B N 0.44671(23) -0.44669(12) -0.01280(16)
N1E N 0.55329(23) 0.1066(2) 0.01280(16)
N1V N 0.44669(12) 0.55329(23) -0.01280(16)
N2A N 0.30408(12) -0.39184(17) 0.01816(16)
N2B N 0.39184(17) -0.30408(12) 0.01816(16)
N3B N 0.78323(20) 0.56647(18) 0.08272(12)
N3A N 0.78324(9) 0.21677(20) 0.08272(12)
N3E N 0.21677(20) -0.21676(9) -0.08272(12)
N3T N 0.21677(20) 0.43353(18) -0.08272(12)
N4B N 0.72420(13) 0.36210(9) 0.07262(13)
N4A N 0.63790(9) 0.27580(13) 0.07262(13)
O1E O 0.22311(16) -0.11021(11) -0.06323(7)
O1V O 0.33332(11) 0.22311(16) 0.06323(7)
O1T O 0.22311(16) 0.33332(11) -0.06323(7)
O1W O 0.77689(16) 0.11021(11) 0.06323(7)
O1R O 0.66668(11) -0.11021(11) -0.06323(7)
O1S O 0.11021(11) -0.22311(16) -0.06323(7)
O1C O 0.11021(11) 0.33332(11) -0.06323(7)
O2E O 0.17571(18) -0.06619(13) -0.04853(9)
O2V O 0.24190(12) 0.17571(18) 0.04853(9)
O2T O 0.17571(18) 0.24190(12) -0.04853(9)
O2W O 0.82429(18) 0.06619(13) 0.04853(9)
O2R O 0.75810(12) -0.06619(13) -0.04853(9)
O2S O 0.06619(13) -0.17571(18) -0.04853(9)
O2C O 0.06619(13) 0.24190(12) -0.04853(9)
O3E O 0.43848(20) 0.00888(15) 0.02880(9)
O3V O 0.42960(13) 0.43848(20) -0.02880(9)
O3T O 0.43848(20) 0.42960(13) 0.02880(9)
O3W O 0.56152(20) -0.00888(15) -0.02880(9)
O3R O 0.57040(13) 0.00888(15) 0.02880(9)
O3B O 0.56152(20) 0.57040(13) -0.02880(9)
O4W O -0.02578(18) 0.13155(13) 0.10433(8)
O4V O 0.15733(12) 0.02578(18) 0.10433(8)
O4B O -0.02578(18) -0.15733(12) 0.10433(8)
O4L O 0.49066(12) -0.20178(13) -0.22900(8)
O4CA O 0.30755(18) -0.20178(13) -0.22900(8)
O4E O 0.02578(18) -0.13155(13) -0.10433(8)
O4S O 0.13155(13) -0.02578(18) -0.10433(8)
O4T O 0.02578(18) 0.15733(12) -0.10433(8)
O4C O 0.13155(13) 0.15733(12) -0.10433(8)
O5W O -0.0504(5) 0.1631(4) 0.15206(18)
O5V O 0.2135(3) 0.0504(5) 0.15206(18)
O5B O -0.0504(5) -0.2135(3) 0.15206(18)
O5L O 0.5468(3) -0.1702(4) -0.18127(18)
O5CA O 0.2829(5) -0.1702(4) -0.18127(18)
O6W O 0.08632(21) 0.25336(15) 0.24693(9)
O6V O 0.16704(14) -0.08632(21) 0.24693(9)
O6B O 0.08632(21) -0.16704(14) 0.24693(9)
O6L O 0.50037(14) -0.07997(15) -0.08640(9)
O6CA O 0.41965(21) -0.07997(15) -0.08640(9)
O6K O 0.58035(21) 0.07997(15) 0.08640(9)
O6DA O 0.49963(14) 0.07997(15) 0.08640(9)
O6BA O 0.50037(14) 0.58035(21) -0.08640(9)
O6N O 0.41965(21) 0.49963(14) -0.08640(9)
O7E O 0.06766(23) -0.06764(11) -0.03941(14)
O7T O 0.06766(23) 0.1353(2) -0.03941(14)
O8E O 0.13286(18) -0.13285(8) -0.11581(10)
O8T O 0.13286(18) 0.26571(16) -0.11581(10)
O9V O 0.36690(13) 0.12796(18) 0.13613(8)
O9E O 0.12796(18) -0.23894(13) -0.13613(8)
O9S O 0.23894(13) -0.12796(18) -0.13613(8)
O9T O 0.12796(18) 0.36690(13) -0.13613(8)
O9C O 0.23894(13) 0.36690(13) -0.13613(8)
O10E O 0.47894(34) -0.0421(3) 0.07885(18)
O10V O 0.52104(15) 0.47894(34) -0.07885(18)
O11? O 0.2252(5) 0.2019(6) 0.1333(5)
loop_
_geom_bond_atom_site_label_1
_geom_bond_atom_site_label_2
_geom_bond_site_symmetry_1
_geom_bond_site_symmetry_2
C1 C8 1_555 1_555
C2 H1 1_555 1_555
C3 C11 1_555 1_555
C4 C7 1_555 1_555
C5 H2 1_555 1_555
C6 C5 1_555 1_555
H3 C6 1_555 1_555
C7 C2 1_555 1_555
C8 O3 1_555 1_555
C9 C13 1_555 1_555
C10 C1 1_555 1_555
H4 C10 1_555 1_555
C11 C5 1_555 1_555
C12 C14 1_555 1_555
C13 O6 1_555 1_555
C14 N2 1_555 1_555
C15 C12 1_555 1_555
H5 C15 1_555 1_555
C16 H6 1_555 1_555
C17 C19 1_555 1_555
C18 C15 1_555 1_555
H7 C18 1_555 1_555
C19 C16 1_555 1_555
C20 C9 1_555 1_555
H8 C20 1_555 1_555
Co1 O2 1_555 1_555
Co2 N3 1_555 1_555
Co3 N1 1_555 1_555
N1 C18 1_555 1_555
N2 C14A 1_555 1_555
N3 C6 1_555 1_555
N4 C3 1_555 1_555
O1 C4 1_555 1_555
O2 C4 1_555 1_555
O3 Co3 1_555 1_555
O4 C17 1_555 1_555
O5 C17 1_555 1_555
O6 Co3F 1_555 1_555
O7 Co1 1_555 1_555
O8 Co1 1_555 1_555
O9 Co2 1_555 1_555
O10 Co3 1_555 1_555
C1T C8T 1_555 1_555
C1R C8R 1_555 1_555
C2T H1T 1_555 1_555
C2R H1R 1_555 1_555
C3B N4 1_555 1_555
C3A C11A 1_555 1_555
C4E C7E 1_555 1_555
C4V C7V 1_555 1_555
C4T C7T 1_555 1_555
C4W C7W 1_555 1_555
C4R C7R 1_555 1_555
C5V C11 1_555 1_555
C5B H2B 1_555 1_555
C5U H2U 1_555 1_555
C5A H2A 1_555 1_555
C5W H2W 1_555 1_555
H2V C5V 1_555 1_555
C6V N3 1_555 1_555
C6B C5B 1_555 1_555
C6U C5U 1_555 1_555
C6A C5A 1_555 1_555
C6W C5W 1_555 1_555
H3V C6V 1_555 1_555
H3B C6B 1_555 1_555
H3U C6U 1_555 1_555
H3A C6A 1_555 1_555
H3W C6W 1_555 1_555
C7E C2 1_555 1_555
C7V C2T 1_555 1_555
C7T C2T 1_555 1_555
C7W C2R 1_555 1_555
C7R C2R 1_555 1_555
C8T O3V 1_555 1_555
C8R O3W 1_555 1_555
C9V C13V 1_555 1_555
C9L C13L 1_555 1_555
C10E C1 1_555 1_555
C10V C1T 1_555 1_555
C10T C1T 1_555 1_555
C10W C1R 1_555 1_555
C10R C1R 1_555 1_555
H4E C10E 1_555 1_555
H4V C10V 1_555 1_555
H4T C10T 1_555 1_555
H4W C10W 1_555 1_555
H4R C10R 1_555 1_555
C11B C3B 1_555 1_555
C11A C5A 1_555 1_555
C12A C14A 1_555 1_555
C12B C14B 1_555 1_555
C13V O6V 1_555 1_555
C13L O6L 1_555 1_555
C14A N2A 1_555 1_555
C14B N2A 1_555 1_555
C15A C12A 1_555 1_555
C15U C12A 1_555 1_555
C15B C12B 1_555 1_555
C15V C12B 1_555 1_555
C15W C12 1_555 1_555
H5A C15A 1_555 1_555
H5U C15U 1_555 1_555
H5B C15B 1_555 1_555
H5V C15V 1_555 1_555
H5W C15W 1_555 1_555
C16V H6B 1_555 1_555
C16L H6L 1_555 1_555
C17W C19W 1_555 1_555
C17V C19V 1_555 1_555
C17B C19B 1_555 1_555
C17L C19L 1_555 1_555
C17CA C19CA 1_555 1_555
C18A C15A 1_555 1_555
C18U C15U 1_555 1_555
C18B C15B 1_555 1_555
C18V C15V 1_555 1_555
C18W N1 1_555 1_555
H7A C18A 1_555 1_555
H7U C18U 1_555 1_555
H7B C18B 1_555 1_555
H7V C18V 1_555 1_555
H7W C18W 1_555 1_555
C19W C16 1_555 1_555
C19V C16V 1_555 1_555
C19B C16V 1_555 1_555
C19L C16L 1_555 1_555
C19CA C16L 1_555 1_555
C20W C9 1_555 1_555
C20V C9V 1_555 1_555
C20B C9V 1_555 1_555
C20L C9L 1_555 1_555
C20CA C9L 1_555 1_555
H8W C20W 1_555 1_555
H8V C20V 1_555 1_555
H8B C20B 1_555 1_555
H8L C20L 1_555 1_555
H8CA C20CA 1_555 1_555
Co1E O2E 1_555 1_555
Co1C O2T 1_555 1_555
Co1A O4W 1_555 1_555
Co1B O4B 1_555 1_555
Co1A_2 O2W 1_555 1_555
Co1D O2R 1_555 1_555
Co1L O4L 1_555 1_555
Co1M O4CA 1_555 1_555
Co2E N3E 1_555 1_555
Co2T N3T 1_555 1_555
Co2B N3B 1_555 1_555
Co2A N3A 1_555 1_555
Co2R O1R 1_555 1_555
Co3E N1E 1_555 1_555
Co3B N1V 1_555 1_555
Co3F O6W 1_555 1_555
Co3A N1A 1_555 1_555
Co3B_2 N1B 1_555 1_555
Co3D O3T 1_555 1_555
Co3H O6V 1_555 1_555
N1A C18A 1_555 1_555
N1B C18B 1_555 1_555
N2B C14 1_555 1_555
N3B C6B 1_555 1_555
N3A C6A 1_555 1_555
N4B C3B 1_555 1_555
N4A C3 1_555 1_555
O1E C4E 1_555 1_555
O1V Co2 1_555 1_555
O1T C4T 1_555 1_555
O1W C4W 1_555 1_555
O1R C4R 1_555 1_555
O1S Co2E 1_555 1_555
O1C Co2T 1_555 1_555
O2E C4E 1_555 1_555
O2V Co1 1_555 1_555
O2T C4T 1_555 1_555
O2W C4W 1_555 1_555
O2R C4R 1_555 1_555
O2S Co1E 1_555 1_555
O2C Co1C 1_555 1_555
O3E C8 1_555 1_555
O3V Co3B 1_555 1_555
O3T C8T 1_555 1_555
O3W Co3 1_555 1_555
O3R C8R 1_555 1_555
O3B Co3B 1_555 1_555
O4W C17W 1_555 1_555
O4V Co1 1_555 1_555
O4B C17B 1_555 1_555
O4L C17L 1_555 1_555
O4CA C17CA 1_555 1_555
O4E Co1E 1_555 1_555
O4S Co1E 1_555 1_555
O4T Co1C 1_555 1_555
O4C Co1C 1_555 1_555
O5W C17W 1_555 1_555
O5V C17V 1_555 1_555
O5B C17B 1_555 1_555
O5L C17L 1_555 1_555
O5CA C17CA 1_555 1_555
O6W C13 1_555 1_555
O6B C13V 1_555 1_555
O6L Co3 1_555 1_555
O6CA Co3 1_555 1_555
O6K Co3E 1_555 1_555
O6DA Co3E 1_555 1_555
O6BA Co3B 1_555 1_555
O6N Co3B 1_555 1_555
O7E Co1E 1_555 1_555
O7T Co1C 1_555 1_555
O8E Co1E 1_555 1_555
O8T Co1C 1_555 1_555
O9V Co2 1_555 1_555
O9E Co2E 1_555 1_555
O9S Co2E 1_555 1_555
O9T Co2T 1_555 1_555
O9C Co2T 1_555 1_555
O10E Co3E 1_555 1_555
O10V Co3B 1_555 1_555
C7 C10 1_555 1_555
C19 C20 1_555 1_555
Co1 O4 1_555 1_555
Co2 O1 1_555 1_555
Co2 O8 1_555 1_555
C3A N4B 1_555 1_555
C3A N4A 1_555 1_555
C4V O1V 1_555 1_555
C4V O2V 1_555 1_555
C5V C6V 1_555 1_555
C5B C11B 1_555 1_555
C5U C11B 1_555 1_555
C5W C11A 1_555 1_555
C6U N3B 1_555 1_555
C6W N3A 1_555 1_555
C7E C10E 1_555 1_555
C7V C10V 1_555 1_555
C7T C10T 1_555 1_555
C7W C10W 1_555 1_555
C7R C10R 1_555 1_555
C13L O6CA 1_555 1_555
C14B N2B 1_555 1_555
C15W C18W 1_555 1_555
C17V O4V 1_555 1_555
C18U N1A 1_555 1_555
C18V N1B 1_555 1_555
C19W C20W 1_555 1_555
C19V C20V 1_555 1_555
C19B C20B 1_555 1_555
C19L C20L 1_555 1_555
C19CA C20CA 1_555 1_555
Co2E O1E 1_555 1_555
Co2E O8E 1_555 1_555
Co2T O1T 1_555 1_555
Co2T O8T 1_555 1_555
Co2A O1W 1_555 1_555
Co3E O3E 1_555 1_555
Co3E O3R 1_555 1_555
Co3H O6B 1_555 1_555

#END
