
#######################################################################
#
#                 Cambridge Crystallographic Data Centre
#                                CCDC 
#
#######################################################################
#
# If this CIF has been generated from an entry in the Cambridge 
# Structural Database, then it will include bibliographic, chemical, 
# crystal, experimental, refinement or atomic coordinate data resulting 
# from the CCDC's data processing and validation procedures.
#
#######################################################################

data_OYEBIE
_chemical_formula_moiety         '(C40 H32 N4 O8 Zn2)n,8n(H2 O1)'
_chemical_name_systematic        
"catena-(bis(\m~2~-terephthalato)-bis(\m~2~-4,4'-ethane-1,2-diyldipyridine)-di-zinc(ii) octahydrate)"
_symmetry_cell_setting           monoclinic
_symmetry_space_group_name_H-M   'C 2/c'
_symmetry_Int_Tables_number      15
_space_group_name_Hall           '-C 2yc'
loop_
_symmetry_equiv_pos_site_id
_symmetry_equiv_pos_as_xyz
1 x,y,z
2 -x,y,1/2-z
3 1/2+x,1/2+y,z
4 1/2-x,1/2+y,1/2-z
5 -x,-y,-z
6 x,-y,1/2+z
7 1/2-x,1/2-y,-z
8 1/2+x,1/2-y,1/2+z
_cell_length_a                   20.6609(11)
_cell_length_b                   9.4792(5)
_cell_length_c                   22.1265(12)
_cell_angle_alpha                90
_cell_angle_beta                 103.703(1)
_cell_angle_gamma                90
_cell_volume                     4210.1
_exptl_crystal_colour            colorless
_exptl_crystal_description       block
_cell_formula_units_Z            4
loop_
_atom_site_label
_atom_site_type_symbol
_atom_site_fract_x
_atom_site_fract_y
_atom_site_fract_z
_atom_site_U_iso_or_equiv
_atom_site_thermal_displace_type
Zn1 Zn 0.166748(11) 0.24569(2) 0.379895(10) 0.0312 Uani
O1 O 0.21501(8) 0.07456(15) 0.41350(7) 0.0405 Uani
O2 O 0.11890(8) -0.03689(17) 0.40459(8) 0.0472 Uani
O3 O 0.11917(8) 0.30154(17) 0.43997(7) 0.0415 Uani
O4 O 0.08418(8) 0.47482(19) 0.37671(7) 0.0470 Uani
N1 N 0.24517(8) 0.38156(18) 0.39095(8) 0.0342 Uani
N2 N 0.38076(9) 0.71053(19) 0.20562(8) 0.0365 Uani
C1 C 0.30049(11) 0.3507(2) 0.43262(10) 0.0388 Uani
H1 H 0.3025 0.2659 0.4541 0.0470 Uiso
C2 C 0.35501(11) 0.4373(2) 0.44579(10) 0.0409 Uani
H2 H 0.3926 0.4101 0.4758 0.0490 Uiso
C3 C 0.35521(11) 0.5632(2) 0.41563(9) 0.0379 Uani
C4 C 0.29759(12) 0.5966(2) 0.37347(11) 0.0449 Uani
H3 H 0.2942 0.6817 0.3520 0.0540 Uiso
C5 C 0.24458(12) 0.5050(2) 0.36253(11) 0.0443 Uani
H4 H 0.2060 0.5310 0.3335 0.0530 Uiso
C6 C 0.41538(13) 0.6577(3) 0.42830(11) 0.0472 Uani
H5 H 0.4374 0.6524 0.4721 0.0570 Uiso
H6 H 0.4010 0.7545 0.4192 0.0570 Uiso
C7 C 0.46448(11) 0.6194(3) 0.39042(10) 0.0455 Uani
H7 H 0.5054 0.6719 0.4054 0.0550 Uiso
H8 H 0.4748 0.5196 0.3952 0.0550 Uiso
C8 C 0.38458(18) 0.5797(3) 0.22676(12) 0.0664 Uani
H9 H 0.3670 0.5075 0.1993 0.0800 Uiso
C9 C 0.41234(18) 0.5470(3) 0.28537(12) 0.0672 Uani
H10 H 0.4145 0.4537 0.2986 0.0810 Uiso
C10 C 0.43727(10) 0.6510(2) 0.32543(10) 0.0385 Uani
C11 C 0.43376(15) 0.7857(3) 0.30301(12) 0.0573 Uani
H11 H 0.4513 0.8597 0.3295 0.0690 Uiso
C12 C 0.40570(14) 0.8117(3) 0.24396(11) 0.0525 Uani
H12 H 0.4037 0.9041 0.2295 0.0630 Uiso
C13 C 0.18334(11) -0.2651(2) 0.47344(10) 0.0365 Uani
H13 H 0.1381 -0.2748 0.4553 0.0440 Uiso
C14 C 0.21648(10) -0.1438(2) 0.46308(9) 0.0308 Uani
C15 C 0.28344(11) -0.1296(2) 0.49002(9) 0.0358 Uani
H14 H 0.3060 -0.0484 0.4833 0.0430 Uiso
C16 C 0.17936(11) -0.0289(2) 0.42404(9) 0.0336 Uani
C17 C -0.01158(12) 0.5491(3) 0.44230(11) 0.0440 Uani
H15 H -0.0193 0.5833 0.4018 0.0530 Uiso
C18 C 0.04133(10) 0.4595(2) 0.46353(10) 0.0346 Uani
C19 C 0.05282(12) 0.4110(3) 0.52131(11) 0.0437 Uani
H16 H 0.0885 0.3507 0.5366 0.0530 Uiso
C20 C 0.08462(10) 0.4112(2) 0.42363(10) 0.0353 Uani
Zn1F Zn 0.333252(11) -0.74569(2) 0.620105(10) 0.0312 Uani
Zn1C Zn 0.333252(11) 0.74569(2) 0.120105(10) 0.0312 Uani
Zn1D Zn -0.166748(11) 0.75431(2) 0.620105(10) 0.0312 Uani
Zn1G Zn -0.333252(11) 0.25431(2) 0.879895(10) 0.0312 Uani
O1F O 0.28499(8) -0.57456(15) 0.58650(7) 0.0405 Uani
O1D O -0.21501(8) 0.92544(15) 0.58650(7) 0.0405 Uani
O2F O 0.38110(8) -0.46311(17) 0.59541(8) 0.0472 Uani
O3D O -0.11917(8) 0.69846(17) 0.56003(7) 0.0415 Uani
O4D O -0.08418(8) 0.52518(19) 0.62329(7) 0.0470 Uani
N1D N -0.24517(8) 0.61844(18) 0.60905(8) 0.0342 Uani
N2C N 0.11924(9) 0.21053(19) 0.29438(8) 0.0365 Uani
N2G N -0.11924(9) 0.78947(19) 0.70562(8) 0.0365 Uani
N2D N -0.38076(9) 0.28947(19) 0.79438(8) 0.0365 Uani
C1D C -0.30049(11) 0.6493(2) 0.56738(10) 0.0388 Uani
H1D H -0.3025 0.7341 0.5459 0.0470 Uiso
C2D C -0.35501(11) 0.5627(2) 0.55421(10) 0.0409 Uani
H2D H -0.3926 0.5899 0.5242 0.0490 Uiso
C3D C -0.35521(11) 0.4368(2) 0.58437(9) 0.0379 Uani
C4D C -0.29759(12) 0.4034(2) 0.62653(11) 0.0449 Uani
H3D H -0.2942 0.3183 0.6480 0.0540 Uiso
C5D C -0.24458(12) 0.4950(2) 0.63747(11) 0.0443 Uani
H4D H -0.2060 0.4690 0.6665 0.0530 Uiso
C6D C -0.41538(13) 0.3423(3) 0.57170(11) 0.0472 Uani
H5D H -0.4374 0.3476 0.5279 0.0570 Uiso
H6D H -0.4010 0.2455 0.5808 0.0570 Uiso
C7D C -0.46448(11) 0.3806(3) 0.60958(10) 0.0455 Uani
H7D H -0.5054 0.3281 0.5946 0.0550 Uiso
H8D H -0.4748 0.4804 0.6048 0.0550 Uiso
C8D C -0.38458(18) 0.4203(3) 0.77324(12) 0.0664 Uani
H9D H -0.3670 0.4925 0.8007 0.0800 Uiso
C9D C -0.41234(18) 0.4530(3) 0.71463(12) 0.0672 Uani
H10D H -0.4145 0.5463 0.7014 0.0810 Uiso
C10D C -0.43727(10) 0.3490(2) 0.67457(10) 0.0385 Uani
C11D C -0.43376(15) 0.2143(3) 0.69699(12) 0.0573 Uani
H11D H -0.4513 0.1403 0.6705 0.0690 Uiso
C12D C -0.40570(14) 0.1883(3) 0.75604(11) 0.0525 Uani
H12D H -0.4037 0.0959 0.7705 0.0630 Uiso
C13F C 0.31666(11) -0.2349(2) 0.52656(10) 0.0365 Uani
H13F H 0.3619 -0.2252 0.5447 0.0440 Uiso
C14F C 0.28352(10) -0.3562(2) 0.53692(9) 0.0308 Uani
C15F C 0.21656(11) -0.3704(2) 0.50998(9) 0.0358 Uani
H14F H 0.1940 -0.4516 0.5167 0.0430 Uiso
C16F C 0.32064(11) -0.4711(2) 0.57596(9) 0.0336 Uani
C17D C 0.01158(12) 0.4509(3) 0.55770(11) 0.0440 Uani
H15D H 0.0193 0.4167 0.5982 0.0530 Uiso
C18D C -0.04133(10) 0.5405(2) 0.53647(10) 0.0346 Uani
C19D C -0.05282(12) 0.5890(3) 0.47869(11) 0.0437 Uani
H16D H -0.0885 0.6493 0.4634 0.0530 Uiso
C20D C -0.08462(10) 0.5888(2) 0.57637(10) 0.0353 Uani
O5 O 0.2074(4) 0.7313(7) 0.2365(3) 0.2450 Uani
H17 H 0.1683 0.7252 0.2385 0.3680 Uiso
H18 H 0.2243 0.8024 0.2539 0.3680 Uiso
O6 O 0.0803(2) 0.6837(4) 0.2256(2) 0.1765 Uani
H19 H 0.0479 0.7086 0.2003 0.2650 Uiso
H20 H 0.0749 0.6974 0.2597 0.2650 Uiso
O7 O 0.0528(2) 0.7419(3) 0.33555(15) 0.1284 Uani
H21 H 0.0743 0.8066 0.3539 0.1930 Uiso
H22 H 0.0668 0.6646 0.3481 0.1930 Uiso
O8 O 0.2177(3) 0.4683(6) 0.1815(3) 0.2194 Uani
H23 H 0.2229 0.5378 0.2032 0.3290 Uiso
H24 H 0.1922 0.4869 0.1492 0.3290 Uiso
loop_
_atom_site_aniso_label
_atom_site_aniso_U_11
_atom_site_aniso_U_22
_atom_site_aniso_U_33
_atom_site_aniso_U_23
_atom_site_aniso_U_13
_atom_site_aniso_U_12
Zn1 0.03269(15) 0.02878(14) 0.03318(14) 0.00412(9) 0.00989(10) 0.00247(9)
O1 0.0447(8) 0.0292(7) 0.0484(9) 0.0119(6) 0.0125(7) 0.0054(6)
O2 0.0411(9) 0.0448(9) 0.0506(9) 0.0127(7) 0.0008(7) 0.0039(7)
O3 0.0424(8) 0.0401(8) 0.0471(9) -0.0003(7) 0.0207(7) 0.0058(7)
O4 0.0549(10) 0.0493(10) 0.0407(9) 0.0017(7) 0.0193(8) 0.0048(7)
N1 0.0348(9) 0.0333(8) 0.0358(9) 0.0049(7) 0.0112(7) 0.0000(7)
N2 0.0425(10) 0.0356(8) 0.0315(9) -0.0028(7) 0.0091(7) -0.0042(8)
C1 0.0411(12) 0.0356(10) 0.0391(11) 0.0086(8) 0.0083(9) 0.0016(9)
C2 0.0382(11) 0.0448(12) 0.0374(11) 0.0037(9) 0.0044(9) -0.0017(9)
C3 0.0422(11) 0.0415(11) 0.0322(10) -0.0035(8) 0.0132(9) -0.0082(9)
C4 0.0489(13) 0.0381(11) 0.0469(12) 0.0124(10) 0.0099(10) -0.0069(10)
C5 0.0404(12) 0.0431(12) 0.0465(12) 0.0147(10) 0.0046(10) -0.0012(9)
C6 0.0540(14) 0.0509(13) 0.0353(11) -0.0048(10) 0.0080(10) -0.0197(11)
C7 0.0376(11) 0.0575(14) 0.0388(11) 0.0033(10) 0.0040(9) -0.0139(10)
C8 0.121(3) 0.0350(12) 0.0370(12) -0.0063(10) 0.0063(14) -0.0082(14)
C9 0.118(3) 0.0361(12) 0.0421(13) 0.0023(10) 0.0081(15) -0.0027(14)
C10 0.0320(10) 0.0466(12) 0.0375(11) 0.0000(9) 0.0097(8) -0.0074(9)
C11 0.0762(19) 0.0447(13) 0.0423(13) -0.0057(10) -0.0035(12) -0.0225(13)
C12 0.0716(17) 0.0357(12) 0.0436(13) 0.0010(10) 0.0004(12) -0.0148(12)
C13 0.0355(11) 0.0339(10) 0.0382(11) 0.0044(8) 0.0047(9) -0.0019(8)
C14 0.0371(10) 0.0267(9) 0.0284(9) 0.0014(7) 0.0073(8) 0.0026(8)
C15 0.0404(11) 0.0276(9) 0.0388(11) 0.0047(8) 0.0080(9) -0.0043(8)
C16 0.0418(12) 0.0285(9) 0.0310(9) 0.0035(7) 0.0099(8) 0.0042(8)
C17 0.0479(13) 0.0471(12) 0.0386(11) 0.0030(9) 0.0132(10) 0.0094(10)
C18 0.0321(10) 0.0317(10) 0.0407(11) -0.0062(8) 0.0100(8) -0.0017(8)
C19 0.0406(12) 0.0470(12) 0.0443(12) 0.0013(10) 0.0114(10) 0.0136(10)
C20 0.0318(10) 0.0351(10) 0.0399(11) -0.0074(8) 0.0102(8) -0.0059(8)
Zn1F 0.03269 0.02878 0.03318 0.00412 0.00989 0.00247
Zn1C 0.03269 0.02878 0.03318 -0.00412 0.00989 -0.00247
Zn1D 0.03269 0.02878 0.03318 0.00412 0.00989 0.00247
Zn1G 0.03269 0.02878 0.03318 -0.00412 0.00989 -0.00247
O1F 0.0447 0.0292 0.0484 0.0119 0.0125 0.0054
O1D 0.0447 0.0292 0.0484 0.0119 0.0125 0.0054
O2F 0.0411 0.0448 0.0506 0.0127 0.0008 0.0039
O3D 0.0424 0.0401 0.0471 -0.0003 0.0207 0.0058
O4D 0.0549 0.0493 0.0407 0.0017 0.0193 0.0048
N1D 0.0348 0.0333 0.0358 0.0049 0.0112 0
N2C 0.0425 0.0356 0.0315 0.0028 0.0091 0.0042
N2G 0.0425 0.0356 0.0315 0.0028 0.0091 0.0042
N2D 0.0425 0.0356 0.0315 -0.0028 0.0091 -0.0042
C1D 0.0411 0.0356 0.0391 0.0086 0.0083 0.0016
C2D 0.0382 0.0448 0.0374 0.0037 0.0044 -0.0017
C3D 0.0422 0.0415 0.0322 -0.0035 0.0132 -0.0082
C4D 0.0489 0.0381 0.0469 0.0124 0.0099 -0.0069
C5D 0.0404 0.0431 0.0465 0.0147 0.0046 -0.0012
C6D 0.054 0.0509 0.0353 -0.0048 0.008 -0.0197
C7D 0.0376 0.0575 0.0388 0.0033 0.004 -0.0139
C8D 0.121 0.035 0.037 -0.0063 0.0063 -0.0082
C9D 0.118 0.0361 0.0421 0.0023 0.0081 -0.0027
C10D 0.032 0.0466 0.0375 0 0.0097 -0.0074
C11D 0.0762 0.0447 0.0423 -0.0057 -0.0035 -0.0225
C12D 0.0716 0.0357 0.0436 0.001 0.0004 -0.0148
C13F 0.0355 0.0339 0.0382 0.0044 0.0047 -0.0019
C14F 0.0371 0.0267 0.0284 0.0014 0.0073 0.0026
C15F 0.0404 0.0276 0.0388 0.0047 0.008 -0.0043
C16F 0.0418 0.0285 0.031 0.0035 0.0099 0.0042
C17D 0.0479 0.0471 0.0386 0.003 0.0132 0.0094
C18D 0.0321 0.0317 0.0407 -0.0062 0.01 -0.0017
C19D 0.0406 0.047 0.0443 0.0013 0.0114 0.0136
C20D 0.0318 0.0351 0.0399 -0.0074 0.0102 -0.0059
O5 0.306(9) 0.245(7) 0.185(6) 0.059(4) 0.060(6) 0.110(6)
O6 0.213(5) 0.114(3) 0.171(4) 0.019(3) -0.017(3) -0.019(3)
O7 0.189(4) 0.0640(17) 0.092(2) 0.0171(13) -0.047(2) -0.0195(17)
O8 0.288(7) 0.183(5) 0.244(6) -0.033(4) 0.176(5) -0.083(5)
loop_
_geom_bond_atom_site_label_1
_geom_bond_atom_site_label_2
_geom_bond_site_symmetry_1
_geom_bond_site_symmetry_2
Zn1 O1 1_555 1_555
O1 C16 1_555 1_555
O2 C16 1_555 1_555
O3 Zn1 1_555 1_555
O4 C20 1_555 1_555
N1 Zn1 1_555 1_555
N2 C8 1_555 1_555
C1 N1 1_555 1_555
H1 C1 1_555 1_555
C2 C1 1_555 1_555
H2 C2 1_555 1_555
C3 C2 1_555 1_555
C4 C3 1_555 1_555
H3 C4 1_555 1_555
C5 N1 1_555 1_555
H4 C5 1_555 1_555
C6 C3 1_555 1_555
H5 C6 1_555 1_555
H6 C6 1_555 1_555
C7 C6 1_555 1_555
H7 C7 1_555 1_555
H8 C7 1_555 1_555
C8 H9 1_555 1_555
C9 C8 1_555 1_555
H10 C9 1_555 1_555
C10 C7 1_555 1_555
C11 C10 1_555 1_555
H11 C11 1_555 1_555
C12 N2 1_555 1_555
H12 C12 1_555 1_555
C13 H13 1_555 1_555
C14 C13 1_555 1_555
C15 C14 1_555 1_555
H14 C15 1_555 1_555
C16 C14 1_555 1_555
C17 H15 1_555 1_555
C18 C17 1_555 1_555
C19 C18 1_555 1_555
H16 C19 1_555 1_555
C20 O3 1_555 1_555
O5 H17 1_555 1_555
H18 O5 1_555 1_555
O6 H19 1_555 1_555
H20 O6 1_555 1_555
O7 H21 1_555 1_555
H22 O7 1_555 1_555
O8 H23 1_555 1_555
H24 O8 1_555 1_555
Zn1F O1F 1_555 1_555
Zn1C N2 1_555 1_555
Zn1D O1D 1_555 1_555
Zn1G N2D 1_555 1_555
O1F C16F 1_555 1_555
O2F C16F 1_555 1_555
O3D Zn1D 1_555 1_555
O4D C20D 1_555 1_555
N1D Zn1D 1_555 1_555
N2C Zn1 1_555 1_555
N2G Zn1D 1_555 1_555
N2D C8D 1_555 1_555
C1D N1D 1_555 1_555
H1D C1D 1_555 1_555
C2D C1D 1_555 1_555
H2D C2D 1_555 1_555
C3D C2D 1_555 1_555
C4D C3D 1_555 1_555
H3D C4D 1_555 1_555
C5D N1D 1_555 1_555
H4D C5D 1_555 1_555
C6D C3D 1_555 1_555
H5D C6D 1_555 1_555
H6D C6D 1_555 1_555
C7D C6D 1_555 1_555
H7D C7D 1_555 1_555
H8D C7D 1_555 1_555
C8D H9D 1_555 1_555
C9D C8D 1_555 1_555
H10D C9D 1_555 1_555
C10D C7D 1_555 1_555
C11D C10D 1_555 1_555
H11D C11D 1_555 1_555
C12D N2D 1_555 1_555
H12D C12D 1_555 1_555
C13F C15 1_555 1_555
H13F C13F 1_555 1_555
C14F C13F 1_555 1_555
C15F C13 1_555 1_555
H14F C15F 1_555 1_555
C16F C14F 1_555 1_555
C17D C19 1_555 1_555
H15D C17D 1_555 1_555
C18D C17D 1_555 1_555
C19D C17 1_555 1_555
H16D C19D 1_555 1_555
C20D O3D 1_555 1_555
C4 C5 1_555 1_555
C9 C10 1_555 1_555
C11 C12 1_555 1_555
C18 C20 1_555 1_555
C4D C5D 1_555 1_555
C9D C10D 1_555 1_555
C11D C12D 1_555 1_555
C14F C15F 1_555 1_555
C18D C19D 1_555 1_555
C18D C20D 1_555 1_555

#END
