
#######################################################################
#
#                 Cambridge Crystallographic Data Centre
#                                CCDC 
#
#######################################################################
#
# If this CIF has been generated from an entry in the Cambridge 
# Structural Database, then it will include bibliographic, chemical, 
# crystal, experimental, refinement or atomic coordinate data resulting 
# from the CCDC's data processing and validation procedures.
#
#######################################################################

data_XUVPOV
_chemical_formula_moiety         '(C24 H21 Co2 N11 O5)n'
_chemical_name_systematic        
'catena-(bis(\m~3~-5-(4-Pyridyl)tetrazolato)-(\m~2~-N,N-dimethylacetamide)-(\m~2~-benzene-1,4-dicarboxylato)-di-cobalt unknown solvate)'
_symmetry_cell_setting           tetragonal
_symmetry_space_group_name_H-M   'P 42/n c m'
_symmetry_Int_Tables_number      138
_space_group_name_Hall           '-P 4ac 2ac'
loop_
_symmetry_equiv_pos_site_id
_symmetry_equiv_pos_as_xyz
1 x,y,z
2 1/2-y,x,1/2+z
3 1/2-x,1/2-y,z
4 y,1/2-x,1/2+z
5 1/2+x,-y,1/2-z
6 1/2+y,1/2+x,-z
7 -x,1/2+y,1/2-z
8 -y,-x,-z
9 -x,-y,-z
10 1/2+y,-x,1/2-z
11 1/2+x,1/2+y,-z
12 -y,1/2+x,1/2-z
13 1/2-x,y,1/2+z
14 1/2-y,1/2-x,z
15 x,1/2-y,1/2+z
16 y,x,z
_cell_length_a                   14.126(3)
_cell_length_b                   14.126(3)
_cell_length_c                   28.683(6)
_cell_angle_alpha                90
_cell_angle_beta                 90
_cell_angle_gamma                90
_cell_volume                     5723.52
_exptl_crystal_colour            red
_exptl_crystal_description       square
_cell_formula_units_Z            4
loop_
_atom_site_label
_atom_site_type_symbol
_atom_site_fract_x
_atom_site_fract_y
_atom_site_fract_z
Co1 Co 0.33693(3) 0.16307(3) 0.14717(2)
O1 O 0.4472(2) 0.16336(19) 0.09661(8)
O2 O 0.2500 0.2500 0.10058(13)
N1 N 0.6797(2) -0.0680(2) 0.29350(9)
N2 N 0.7075(2) -0.14146(19) 0.31880(9)
N3 N 0.42060(19) 0.07940(19) 0.19151(13)
C1 C 0.3921(3) -0.0065(3) 0.20510(15)
H1 H 0.3331 -0.0279 0.1953
C2 C 0.4464(3) -0.0649(3) 0.23305(14)
H2 H 0.4239 -0.1242 0.2417
C3 C 0.5345(2) -0.0345(2) 0.24799(16)
C4 C 0.5939(2) -0.0939(2) 0.27875(16)
C5 C 0.4107(2) 0.0893(2) 0.07896(16)
C6 C 0.4571(3) 0.0429(3) 0.03779(16)
C7 C 0.4199(3) -0.0376(4) 0.01908(15)
H3 H 0.3656 -0.0641 0.0320
N4 N 0.2500 0.2500 0.0233(3)
C8 C 0.2264(8) 0.2264(8) 0.0590(4)
C9 C 0.2500 0.2500 -0.0263(5)
C10 C 0.156(2) 0.156(2) 0.0358(11)
O1E O 0.66336(19) -0.0528(2) -0.09661(8)
C5E C 0.5893(2) -0.0893(2) -0.07896(16)
C6E C 0.5429(3) -0.0429(3) -0.03779(16)
C7E C 0.4624(4) -0.0801(3) -0.01908(15)
H3E H 0.4359 -0.1344 -0.0320
O1H O 0.5528(2) -0.16336(19) -0.09661(8)
C7H C 0.5801(3) 0.0376(4) -0.01908(15)
H3H H 0.6344 0.0641 -0.0320
O1M O 0.33664(19) 0.0528(2) 0.09661(8)
C7M C 0.5376(4) 0.0801(3) 0.01908(15)
H3M H 0.5641 0.1344 0.0320
C8B C 0.2736(8) 0.2736(8) 0.0590(4)
C10B C 0.344(2) 0.344(2) 0.0358(11)
N1M N 0.5680(2) -0.1797(2) 0.29350(9)
N2M N 0.64146(19) -0.2075(2) 0.31880(9)
C1M C 0.5065(3) 0.1079(3) 0.20510(15)
H1M H 0.5279 0.1669 0.1953
C2M C 0.5649(3) 0.0536(3) 0.23305(14)
H2M H 0.6242 0.0761 0.2417
Co1B Co 0.16307(3) 0.33693(3) 0.14717(2)
N1B N -0.1797(2) 0.5680(2) 0.29350(9)
N2B N -0.2075(2) 0.64146(19) 0.31880(9)
N3B N 0.07940(19) 0.42060(19) 0.19151(13)
C1B C 0.1079(3) 0.5065(3) 0.20510(15)
H1B H 0.1669 0.5279 0.1953
C2B C 0.0536(3) 0.5649(3) 0.23305(14)
H2B H 0.0761 0.6242 0.2417
C3B C -0.0345(2) 0.5345(2) 0.24799(16)
C4B C -0.0939(2) 0.5939(2) 0.27875(16)
N1O N -0.0680(2) 0.6797(2) 0.29350(9)
N2O N -0.14146(19) 0.7075(2) 0.31880(9)
C1O C -0.0065(3) 0.3921(3) 0.20510(15)
H1O H -0.0279 0.3331 0.1953
C2O C -0.0649(3) 0.4464(3) 0.23305(14)
H2O H -0.1242 0.4239 0.2417
Co1D Co -0.16307(3) 0.83693(3) 0.35283(2)
Co1D_2 Co 0.83693(3) -0.16307(3) 0.35283(2)
Co1E Co 0.66307(3) -0.16307(3) -0.14717(2)
Co1F Co -0.33693(3) 0.66307(3) 0.35283(2)
Co1F_2 Co 0.66307(3) -0.33693(3) 0.35283(2)
O1B O 0.0528(2) 0.33664(19) 0.09661(8)
O1O O 0.16336(19) 0.4472(2) 0.09661(8)
N2D N 0.2075(2) 0.14146(19) 0.18120(9)
N2F N 0.2925(2) 0.35854(19) 0.18120(9)
N2I N 0.35854(19) 0.2925(2) 0.18120(9)
N2K N 0.14146(19) 0.2075(2) 0.18120(9)
C11? C 0.1505(13) 0.1505(13) 0.0558(9)
loop_
_geom_bond_atom_site_label_1
_geom_bond_atom_site_label_2
_geom_bond_site_symmetry_1
_geom_bond_site_symmetry_2
Co1 O1 1_555 1_555
O1 C5 1_555 1_555
O2 Co1 1_555 1_555
N1 N2 1_555 1_555
N2 N2M 1_555 1_555
N3 Co1 1_555 1_555
C1 N3 1_555 1_555
H1 C1 1_555 1_555
C2 C1 1_555 1_555
H2 C2 1_555 1_555
C3 C2 1_555 1_555
C4 N1 1_555 1_555
C5 C6 1_555 1_555
C6 C7 1_555 1_555
C7 H3 1_555 1_555
N4 C8 1_555 1_555
C8 O2 1_555 1_555
C9 N4 1_555 1_555
C10 C8 1_555 1_555
O1E C5E 1_555 1_555
C5E C6E 1_555 1_555
C6E C7E 1_555 1_555
C7E C7 1_555 1_555
H3E C7E 1_555 1_555
O1H C5E 1_555 1_555
C7H C6E 1_555 1_555
H3H C7H 1_555 1_555
O1M Co1 1_555 1_555
C7M C6 1_555 1_555
H3M C7M 1_555 1_555
C8B O2 1_555 1_555
C10B C8B 1_555 1_555
N1M C4 1_555 1_555
N2M N1M 1_555 1_555
C1M N3 1_555 1_555
H1M C1M 1_555 1_555
C2M C3 1_555 1_555
H2M C2M 1_555 1_555
Co1B O2 1_555 1_555
N1B N2B 1_555 1_555
N2B N2O 1_555 1_555
N3B Co1B 1_555 1_555
C1B N3B 1_555 1_555
H1B C1B 1_555 1_555
C2B C1B 1_555 1_555
H2B C2B 1_555 1_555
C3B C2B 1_555 1_555
C4B N1B 1_555 1_555
N1O C4B 1_555 1_555
N2O N1O 1_555 1_555
C1O N3B 1_555 1_555
H1O C1O 1_555 1_555
C2O C3B 1_555 1_555
H2O C2O 1_555 1_555
Co1D N2O 1_555 1_555
Co1D_2 N2 1_555 1_555
Co1E O1E 1_555 1_555
Co1F N2B 1_555 1_555
Co1F_2 N2M 1_555 1_555
O1B Co1B 1_555 1_555
O1O Co1B 1_555 1_555
N2D Co1 1_555 1_555
N2F Co1B 1_555 1_555
N2I Co1 1_555 1_555
N2K Co1B 1_555 1_555
C3 C4 1_555 1_555
C5 O1M 1_555 1_555
N4 C8B 1_555 1_555
C8 C8B 1_555 1_555
O1H Co1E 1_555 1_555
C7H C7M 1_555 1_555
C1M C2M 1_555 1_555
C3B C4B 1_555 1_555
C1O C2O 1_555 1_555
N2D N2K 1_555 1_555
N2F N2I 1_555 1_555

#END
