
#######################################################################
#
#                 Cambridge Crystallographic Data Centre
#                                CCDC 
#
#######################################################################
#
# If this CIF has been generated from an entry in the Cambridge 
# Structural Database, then it will include bibliographic, chemical, 
# crystal, experimental, refinement or atomic coordinate data resulting 
# from the CCDC's data processing and validation procedures.
#
#######################################################################

data_XUVPIP
_chemical_formula_moiety         '(C24 H23 Co2 N12 O5)n'
_chemical_name_systematic        
'catena-[bis(\m-5-(4-Pyridyl)tetrazolato)-(\m-2-aminoterephthalato)-(\m-N,N-dimethylacetamide)-di-cobalt unknown solvate]'
_symmetry_cell_setting           tetragonal
_symmetry_space_group_name_H-M   'P 42/n c m'
_symmetry_Int_Tables_number      138
_space_group_name_Hall           '-P 4ac 2ac'
loop_
_symmetry_equiv_pos_site_id
_symmetry_equiv_pos_as_xyz
1 x,y,z
2 1/2-y,x,1/2+z
3 1/2-x,1/2-y,z
4 y,1/2-x,1/2+z
5 1/2+x,-y,1/2-z
6 1/2+y,1/2+x,-z
7 -x,1/2+y,1/2-z
8 -y,-x,-z
9 -x,-y,-z
10 1/2+y,-x,1/2-z
11 1/2+x,1/2+y,-z
12 -y,1/2+x,1/2-z
13 1/2-x,y,1/2+z
14 1/2-y,1/2-x,z
15 x,1/2-y,1/2+z
16 y,x,z
_cell_length_a                   14.2323(9)
_cell_length_b                   14.2323(9)
_cell_length_c                   28.235(3)
_cell_angle_alpha                90
_cell_angle_beta                 90
_cell_angle_gamma                90
_cell_volume                     5719.24
_exptl_crystal_colour            red
_exptl_crystal_description       square
_cell_formula_units_Z            4
loop_
_atom_site_label
_atom_site_type_symbol
_atom_site_fract_x
_atom_site_fract_y
_atom_site_fract_z
Co1 Co 0.16359(3) 0.16359(3) 0.14828(2)
O1 O 0.05406(19) 0.16318(18) 0.09719(9)
O2 O 0.2500 0.2500 0.10006(18)
N1 N -0.1787(2) -0.06848(19) 0.29342(10)
N2 N -0.20829(18) -0.14178(18) 0.31804(9)
N3 N 0.08126(19) 0.08126(19) 0.19357(15)
N4 N -0.0906(12) 0.1623(12) 0.0366(5)
C1 C 0.0544(3) -0.0626(3) 0.23513(14)
H1 H 0.0768 -0.1215 0.2439
C2 C 0.1095(3) -0.0034(3) 0.20741(14)
H2 H 0.1687 -0.0240 0.1982
C3 C -0.0336(2) -0.0336(2) 0.24956(19)
C4 C -0.0925(2) -0.0925(2) 0.27911(18)
C5 C 0.0899(3) 0.0899(3) 0.0788(2)
C6 C 0.0437(3) 0.0437(3) 0.0379(2)
C7 C -0.0376(4) 0.0821(3) 0.01931(15)
C8 C 0.1531(5) 0.3469(5) 0.0455(5)
C9 C 0.224(2) 0.276(2) 0.0565(5)
N5 N 0.2500 0.2500 0.0258(4)
C10 C 0.2805(16) 0.2805(16) -0.0248(6)
O1G O -0.16318(18) -0.05406(19) -0.09719(9)
N4G N -0.1623(12) 0.0906(12) -0.0366(5)
C5G C -0.0899(3) -0.0899(3) -0.0788(2)
C6G C -0.0437(3) -0.0437(3) -0.0379(2)
C7G C -0.0821(3) 0.0376(4) -0.01931(15)
O1H O -0.05406(19) -0.16318(18) -0.09719(9)
N4H N 0.0906(12) -0.1623(12) -0.0366(5)
C7H C 0.0376(4) -0.0821(3) -0.01931(15)
O1O O 0.16318(18) 0.05406(19) 0.09719(9)
N4O N 0.1623(12) -0.0906(12) 0.0366(5)
C7O C 0.0821(3) -0.0376(4) 0.01931(15)
C8B C 0.3469(5) 0.1531(5) 0.0455(5)
C9B C 0.276(2) 0.224(2) 0.0565(5)
C10B C 0.2195(16) 0.2195(16) -0.0248(6)
N1O N -0.06848(19) -0.1787(2) 0.29342(10)
N2O N -0.14178(18) -0.20829(18) 0.31804(9)
C1O C -0.0626(3) 0.0544(3) 0.23513(14)
H1O H -0.1215 0.0768 0.2439
C2O C -0.0034(3) 0.1095(3) 0.20741(14)
H2O H -0.0240 0.1687 0.1982
Co1B Co 0.33641(3) 0.33641(3) 0.14828(2)
N1B N 0.6787(2) 0.56848(19) 0.29342(10)
N2B N 0.70829(18) 0.64178(18) 0.31804(9)
N3B N 0.41874(19) 0.41874(19) 0.19357(15)
C1B C 0.4456(3) 0.5626(3) 0.23513(14)
H1B H 0.4232 0.6215 0.2439
C2B C 0.3905(3) 0.5034(3) 0.20741(14)
H2B H 0.3313 0.5240 0.1982
C3B C 0.5336(2) 0.5336(2) 0.24956(19)
C4B C 0.5925(2) 0.5925(2) 0.27911(18)
N1M N 0.56848(19) 0.6787(2) 0.29342(10)
N2M N 0.64178(18) 0.70829(18) 0.31804(9)
C1M C 0.5626(3) 0.4456(3) 0.23513(14)
H1M H 0.6215 0.4232 0.2439
C2M C 0.5034(3) 0.3905(3) 0.20741(14)
H2M H 0.5240 0.3313 0.1982
Co1D Co -0.33641(3) -0.16359(3) 0.35172(2)
Co1D_2 Co 0.66359(3) 0.83641(3) 0.35172(2)
Co1F Co -0.16359(3) -0.33641(3) 0.35172(2)
Co1F_2 Co 0.83641(3) 0.66359(3) 0.35172(2)
Co1G Co -0.16359(3) -0.16359(3) -0.14828(2)
O1B O 0.44594(19) 0.33682(18) 0.09719(9)
O1M O 0.33682(18) 0.44594(19) 0.09719(9)
N2D N 0.29171(18) 0.14178(18) 0.18196(9)
N2F N 0.20829(18) 0.35822(18) 0.18196(9)
N2I N 0.35822(18) 0.20829(18) 0.18196(9)
N2K N 0.14178(18) 0.29171(18) 0.18196(9)
loop_
_geom_bond_atom_site_label_1
_geom_bond_atom_site_label_2
_geom_bond_site_symmetry_1
_geom_bond_site_symmetry_2
Co1 O1 1_555 1_555
O1 C5 1_555 1_555
O2 Co1 1_555 1_555
N1 N2 1_555 1_555
N2 N2O 1_555 1_555
N3 Co1 1_555 1_555
N4 C7 1_555 1_555
C1 H1 1_555 1_555
C2 N3 1_555 1_555
H2 C2 1_555 1_555
C3 C1 1_555 1_555
C4 N1 1_555 1_555
C5 C6 1_555 1_555
C6 C7 1_555 1_555
C7 C7G 1_555 1_555
C8 C9 1_555 1_555
C9 O2 1_555 1_555
N5 C9 1_555 1_555
C10 N5 1_555 1_555
O1G C5G 1_555 1_555
N4G C7G 1_555 1_555
C5G C6G 1_555 1_555
C6G C7G 1_555 1_555
O1H C5G 1_555 1_555
N4H C7H 1_555 1_555
C7H C6G 1_555 1_555
O1O Co1 1_555 1_555
N4O C7O 1_555 1_555
C7O C6 1_555 1_555
C8B C9B 1_555 1_555
C9B O2 1_555 1_555
C10B N5 1_555 1_555
N1O C4 1_555 1_555
N2O N1O 1_555 1_555
C1O C3 1_555 1_555
H1O C1O 1_555 1_555
C2O N3 1_555 1_555
H2O C2O 1_555 1_555
Co1B O2 1_555 1_555
N1B N2B 1_555 1_555
N2B N2M 1_555 1_555
N3B Co1B 1_555 1_555
C1B H1B 1_555 1_555
C2B N3B 1_555 1_555
H2B C2B 1_555 1_555
C3B C1B 1_555 1_555
C4B N1B 1_555 1_555
N1M C4B 1_555 1_555
N2M N1M 1_555 1_555
C1M C3B 1_555 1_555
H1M C1M 1_555 1_555
C2M N3B 1_555 1_555
H2M C2M 1_555 1_555
Co1D N2 1_555 1_555
Co1D_2 N2M 1_555 1_555
Co1F N2O 1_555 1_555
Co1F_2 N2B 1_555 1_555
Co1G O1G 1_555 1_555
O1B Co1B 1_555 1_555
O1M Co1B 1_555 1_555
N2D Co1 1_555 1_555
N2F Co1B 1_555 1_555
N2I Co1B 1_555 1_555
N2K Co1 1_555 1_555
C1 C2 1_555 1_555
C3 C4 1_555 1_555
C5 O1O 1_555 1_555
C9 C9B 1_555 1_555
N5 C9B 1_555 1_555
C10 C10B 1_555 1_555
O1H Co1G 1_555 1_555
C7H C7O 1_555 1_555
C1O C2O 1_555 1_555
C1B C2B 1_555 1_555
C3B C4B 1_555 1_555
C1M C2M 1_555 1_555
N2D N2I 1_555 1_555
N2F N2K 1_555 1_555

#END
