
#######################################################################
#
#                 Cambridge Crystallographic Data Centre
#                                CCDC 
#
#######################################################################
#
# If this CIF has been generated from an entry in the Cambridge 
# Structural Database, then it will include bibliographic, chemical, 
# crystal, experimental, refinement or atomic coordinate data resulting 
# from the CCDC's data processing and validation procedures.
#
#######################################################################

data_NINBOD
_chemical_formula_moiety         
'(C30 H35 Cu1 F3 N5 O4 S1 1+)n,n(C1 F3 O3 S1 1-),n(C7 H8)'
_chemical_name_systematic        
"catena-[bis(\m~2~-4,4'-Propane-1,3-diyldipyridine)-(trifluoromethanesulfonato)-(N,N-dimethylformamide-O)-copper trifluoromethanesulfonate toluene solvate]"
_symmetry_cell_setting           monoclinic
_symmetry_space_group_name_H-M   'P 21/n'
_symmetry_Int_Tables_number      14
_space_group_name_Hall           '-P 2yn'
loop_
_symmetry_equiv_pos_site_id
_symmetry_equiv_pos_as_xyz
1 x,y,z
2 1/2-x,1/2+y,1/2-z
3 -x,-y,-z
4 1/2+x,1/2-y,1/2+z
_cell_length_a                   13.3195(8)
_cell_length_b                   23.2763(14)
_cell_length_c                   13.8909(10)
_cell_angle_alpha                90
_cell_angle_beta                 102.493(2)
_cell_angle_gamma                90
_cell_volume                     4204.61
_exptl_crystal_colour            blue
_exptl_crystal_description       platelet
_cell_formula_units_Z            4
loop_
_atom_site_label
_atom_site_type_symbol
_atom_site_fract_x
_atom_site_fract_y
_atom_site_fract_z
Cu1 Cu 0.72768(5) 0.12137(3) 0.29345(5)
S1 S 0.96001(12) 0.13629(6) 0.53553(11)
F1 F 1.1233(4) 0.1302(2) 0.4631(4)
F2 F 1.0605(3) 0.04821(16) 0.4872(4)
F3 F 1.1450(3) 0.09637(17) 0.6080(3)
O1 O 0.8945(3) 0.13410(18) 0.4379(3)
O2 O 0.9918(4) 0.1920(2) 0.5697(4)
O3 O 0.9235(4) 0.0994(2) 0.6035(4)
O4 O 0.5940(3) 0.12236(15) 0.1435(3)
N1 N 0.7048(3) -0.31109(17) 0.2621(3)
N2 N 0.6683(3) 0.05529(17) 0.3570(3)
N3 N 0.6913(3) 0.56472(17) 0.2701(3)
N4 N 0.6496(3) 0.17780(17) 0.3613(3)
N5 N 0.4716(4) 0.1324(2) 0.0028(3)
C1 C 1.0781(5) 0.1012(3) 0.5213(5)
C2 C 0.7586(4) -0.2627(2) 0.2925(4)
H1 H 0.8302 -0.2621 0.2939
C3 C 0.7145(4) -0.2149(2) 0.3212(4)
H2 H 0.7555 -0.1818 0.3409
C4 C 0.6091(4) -0.2135(2) 0.3221(4)
C5 C 0.5559(4) -0.2634(2) 0.2939(4)
H3 H 0.4850 -0.2657 0.2952
C6 C 0.6048(4) -0.3106(2) 0.2635(4)
H4 H 0.5653 -0.3441 0.2427
C7 C 0.5577(5) -0.1598(2) 0.3490(4)
H5 H 0.5760 -0.1270 0.3107
H6 H 0.4821 -0.1648 0.3306
C8 C 0.5888(4) -0.1461(2) 0.4574(4)
H7 H 0.6646 -0.1430 0.4766
H8 H 0.5672 -0.1780 0.4956
C9 C 0.5400(5) -0.0892(2) 0.4835(4)
H9 H 0.4646 -0.0908 0.4583
H10 H 0.5533 -0.0851 0.5561
C10 C 0.5819(4) 0.0295(2) 0.3103(4)
H11 H 0.5498 0.0434 0.2467
C11 C 0.5369(4) -0.0153(2) 0.3479(4)
H12 H 0.4746 -0.0313 0.3114
C12 C 0.5828(4) -0.0378(2) 0.4402(4)
C13 C 0.6714(4) -0.0111(2) 0.4896(4)
H13 H 0.7052 -0.0245 0.5529
C14 C 0.7119(4) 0.0355(2) 0.4476(4)
H14 H 0.7721 0.0538 0.4839
C15 C 0.7071(4) 0.5580(2) 0.3695(4)
H15 H 0.7577 0.5811 0.4104
C16 C 0.6546(4) 0.5201(2) 0.4124(4)
H16 H 0.6706 0.5164 0.4821
C17 C 0.5768(4) 0.4860(2) 0.3564(4)
C18 C 0.5600(4) 0.4933(2) 0.2546(4)
H17 H 0.5084 0.4715 0.2122
C19 C 0.6183(4) 0.5320(2) 0.2155(4)
H18 H 0.6060 0.5356 0.1459
C20 C 0.5195(4) 0.4418(2) 0.4015(4)
H19 H 0.4448 0.4464 0.3748
H20 H 0.5328 0.4478 0.4736
C21 C 0.5519(4) 0.3799(2) 0.3801(4)
H21 H 0.5314 0.3727 0.3083
H22 H 0.6278 0.3770 0.3992
C22 C 0.5062(4) 0.3339(2) 0.4330(4)
H23 H 0.4306 0.3329 0.4088
H24 H 0.5213 0.3420 0.5046
C23 C 0.7005(4) 0.2153(2) 0.4296(4)
H25 H 0.7708 0.2082 0.4583
C24 C 0.6540(4) 0.2634(2) 0.4591(4)
H26 H 0.6910 0.2874 0.5099
C25 C 0.5524(4) 0.2764(2) 0.4139(4)
C26 C 0.4994(4) 0.2360(2) 0.3492(4)
H27 H 0.4286 0.2415 0.3204
C27 C 0.5499(4) 0.1875(2) 0.3266(4)
H28 H 0.5114 0.1596 0.2840
C28 C 0.5340(5) 0.1521(3) 0.0858(5)
H29 H 0.5311 0.1919 0.1003
C29 C 0.4687(7) 0.0739(4) -0.0221(6)
H30 H 0.4190 0.0679 -0.0845
H31 H 0.4480 0.0514 0.0300
H32 H 0.5370 0.0615 -0.0293
C30 C 0.4059(6) 0.1726(3) -0.0595(6)
H33 H 0.3652 0.1523 -0.1167
H34 H 0.4480 0.2021 -0.0821
H35 H 0.3597 0.1907 -0.0224
Cu1A Cu 0.77232(5) -0.37863(3) 0.20655(5)
Cu1A_2 Cu 0.77232(5) 0.62137(3) 0.20655(5)
N1A N 0.7952(3) 0.18891(17) 0.2379(3)
N3A N 0.8087(3) 0.06472(17) 0.2299(3)
S2 S 0.29144(13) 0.10663(8) 0.16175(14)
F4 F 0.2373(8) 0.1169(4) 0.3251(5)
F5 F 0.1146(4) 0.1301(3) 0.2036(5)
F6 F 0.1712(4) 0.0460(3) 0.2458(7)
O5 O 0.3135(6) 0.1655(3) 0.1614(5)
O6 O 0.3699(4) 0.0684(3) 0.2064(6)
O7 O 0.2378(5) 0.0913(4) 0.0643(5)
C31 C 0.1946(7) 0.0972(4) 0.2302(7)
C32 C 0.6806(8) 0.2404(4) -0.0874(8)
H36 H 0.6600 0.2256 -0.0285
H37 H 0.6260 0.2652 -0.1242
H38 H 0.7441 0.2627 -0.0676
C33 C 0.6983(5) 0.1913(3) -0.1513(6)
C34 C 0.6871(6) 0.1342(3) -0.1227(6)
H39 H 0.6665 0.1266 -0.0626
C35 C 0.7053(6) 0.0900(4) -0.1795(8)
H40 H 0.6959 0.0515 -0.1607
C36 C 0.7386(7) 0.1020(5) -0.2671(7)
H41 H 0.7540 0.0715 -0.3071
C37 C 0.7486(6) 0.1599(5) -0.2947(6)
H42 H 0.7700 0.1691 -0.3538
C38 C 0.7279(5) 0.2003(4) -0.2373(7)
H43 H 0.7341 0.2389 -0.2572
loop_
_geom_bond_atom_site_label_1
_geom_bond_atom_site_label_2
_geom_bond_site_symmetry_1
_geom_bond_site_symmetry_2
Cu1 O1 1_555 1_555
S1 O1 1_555 1_555
F1 C1 1_555 1_555
F2 C1 1_555 1_555
F3 C1 1_555 1_555
O2 S1 1_555 1_555
O3 S1 1_555 1_555
O4 Cu1 1_555 1_555
N1 C2 1_555 1_555
N2 Cu1 1_555 1_555
N3 C15 1_555 1_555
N4 Cu1 1_555 1_555
N5 C28 1_555 1_555
C1 S1 1_555 1_555
C2 H1 1_555 1_555
C3 C2 1_555 1_555
H2 C3 1_555 1_555
C4 C3 1_555 1_555
C5 C4 1_555 1_555
H3 C5 1_555 1_555
C6 N1 1_555 1_555
H4 C6 1_555 1_555
C7 C4 1_555 1_555
H5 C7 1_555 1_555
H6 C7 1_555 1_555
C8 C7 1_555 1_555
H7 C8 1_555 1_555
H8 C8 1_555 1_555
C9 C8 1_555 1_555
H9 C9 1_555 1_555
H10 C9 1_555 1_555
C10 N2 1_555 1_555
H11 C10 1_555 1_555
C11 C10 1_555 1_555
H12 C11 1_555 1_555
C12 C9 1_555 1_555
C13 C12 1_555 1_555
H13 C13 1_555 1_555
C14 N2 1_555 1_555
H14 C14 1_555 1_555
C15 H15 1_555 1_555
C16 C15 1_555 1_555
H16 C16 1_555 1_555
C17 C16 1_555 1_555
C18 C17 1_555 1_555
H17 C18 1_555 1_555
C19 N3 1_555 1_555
H18 C19 1_555 1_555
C20 C17 1_555 1_555
H19 C20 1_555 1_555
H20 C20 1_555 1_555
C21 C20 1_555 1_555
H21 C21 1_555 1_555
H22 C21 1_555 1_555
C22 C21 1_555 1_555
H23 C22 1_555 1_555
H24 C22 1_555 1_555
C23 N4 1_555 1_555
H25 C23 1_555 1_555
C24 C23 1_555 1_555
H26 C24 1_555 1_555
C25 C22 1_555 1_555
C26 C25 1_555 1_555
H27 C26 1_555 1_555
C27 N4 1_555 1_555
H28 C27 1_555 1_555
C28 O4 1_555 1_555
H29 C28 1_555 1_555
C29 N5 1_555 1_555
H30 C29 1_555 1_555
H31 C29 1_555 1_555
H32 C29 1_555 1_555
C30 N5 1_555 1_555
H33 C30 1_555 1_555
H34 C30 1_555 1_555
H35 C30 1_555 1_555
S2 O5 1_555 1_555
F4 C31 1_555 1_555
F5 C31 1_555 1_555
F6 C31 1_555 1_555
O6 S2 1_555 1_555
O7 S2 1_555 1_555
C31 S2 1_555 1_555
C32 H36 1_555 1_555
H37 C32 1_555 1_555
H38 C32 1_555 1_555
C33 C32 1_555 1_555
C34 C33 1_555 1_555
H39 C34 1_555 1_555
C35 C34 1_555 1_555
H40 C35 1_555 1_555
C36 C35 1_555 1_555
H41 C36 1_555 1_555
C37 C36 1_555 1_555
H42 C37 1_555 1_555
C38 C33 1_555 1_555
H43 C38 1_555 1_555
Cu1A N1 1_555 1_555
Cu1A_2 N3 1_555 1_555
N1A Cu1 1_555 1_555
N3A Cu1 1_555 1_555
C5 C6 1_555 1_555
C11 C12 1_555 1_555
C13 C14 1_555 1_555
C18 C19 1_555 1_555
C24 C25 1_555 1_555
C26 C27 1_555 1_555
C37 C38 1_555 1_555

#END
