
#######################################################################
#
#                 Cambridge Crystallographic Data Centre
#                                CCDC 
#
#######################################################################
#
# If this CIF has been generated from an entry in the Cambridge 
# Structural Database, then it will include bibliographic, chemical, 
# crystal, experimental, refinement or atomic coordinate data resulting 
# from the CCDC's data processing and validation procedures.
#
#######################################################################

data_PIBPEW
_chemical_formula_moiety         
'(C2 H8 N1 1+)n,n(C50 H27 Cd3 N6 O14 1-),n(C2 H7 N1),3n(C3 H7 N1 O1),4n(H2 O1)'
_chemical_name_systematic        
'catena-(Dimethylammonium bis(\m~6~-2,4,6-tris(4-carboxyphenyl)-s-triazine)-(\m~2~-acetato)-tri-cadmium dimethylamine dimethylformamide solvate tetrahydrate)'
_symmetry_cell_setting           tetragonal
_symmetry_space_group_name_H-M   'P 43 2 2'
_symmetry_Int_Tables_number      95
_space_group_name_Hall           'P 4cw 2c'
loop_
_symmetry_equiv_pos_site_id
_symmetry_equiv_pos_as_xyz
1 x,y,z
2 -x,-y,1/2+z
3 -y,x,3/4+z
4 y,-x,1/4+z
5 -x,y,-z
6 x,-y,1/2-z
7 y,x,1/4-z
8 -y,-x,3/4-z
_cell_length_a                   18.0373(4)
_cell_length_b                   18.0373(4)
_cell_length_c                   27.2604(14)
_cell_angle_alpha                90
_cell_angle_beta                 90
_cell_angle_gamma                90
_cell_volume                     8869.01
_exptl_crystal_colour            colorless
_exptl_crystal_description       rod
_cell_formula_units_Z            4
loop_
_atom_site_label
_atom_site_type_symbol
_atom_site_fract_x
_atom_site_fract_y
_atom_site_fract_z
Cd1 Cd 0.5000 0.25694(4) 0.0000
Cd2 Cd 0.66303(3) 0.25959(3) -0.070021(19)
O1 O 0.5914(5) 0.2972(5) -0.1295(2)
O2 O 0.7542(3) 0.2458(3) -0.1250
O3 O 0.7874(16) 0.1968(12) -0.1898(7)
O4 O 0.5016(5) 0.2539(4) -0.0826(2)
O5 O 0.4118(4) 0.6534(3) -0.5017(2)
O6 O 0.2925(4) 0.6797(4) -0.5080(2)
O7 O -0.1707(4) 0.4096(3) -0.2542(3)
O8 O -0.1385(5) 0.3529(4) -0.1840(4)
C1 C 0.5256(7) 0.2863(6) -0.1197(3)
C2 C 0.7828(11) 0.1957(12) -0.1449(11)
C3 C 0.4684(6) 0.3115(6) -0.1571(3)
C4 C 0.876(2) 0.192(2) -0.1407(16)
C5 C 0.3948(7) 0.2869(6) -0.1535(3)
H1 H 0.3814 0.2523 -0.1292
C6 C 0.3434(7) 0.3131(7) -0.1850(4)
H2 H 0.2940 0.2970 -0.1825
C7 C 0.3636(6) 0.3655(8) -0.2224(4)
C8 C 0.4371(5) 0.3876(9) -0.2263(4)
H3 H 0.4514 0.4207 -0.2511
C9 C 0.4891(6) 0.3607(8) -0.1935(3)
H4 H 0.5388 0.3759 -0.1960
C10 C 0.3058(5) 0.3953(8) -0.2565(4)
C11 C 0.3464(6) 0.6476(5) -0.4866(3)
C12 C 0.3295(5) 0.5973(5) -0.4444(3)
C13 C 0.2549(5) 0.5921(7) -0.4298(4)
H5 H 0.2178 0.6167 -0.4477
C14 C 0.2366(5) 0.5506(8) -0.3889(4)
H6 H 0.1874 0.5493 -0.3776
C15 C 0.2919(5) 0.5104(7) -0.3644(4)
C16 C 0.3676(5) 0.5182(7) -0.3794(4)
H7 H 0.4059 0.4942 -0.3622
C17 C 0.3832(5) 0.5623(6) -0.4204(3)
H8 H 0.4325 0.5673 -0.4311
C18 C 0.2735(6) 0.4614(8) -0.3220(4)
C19 C -0.1248(6) 0.3856(6) -0.2267(5)
C20 C -0.0429(6) 0.3898(5) -0.2390(4)
C21 C -0.0205(7) 0.4191(6) -0.2812(4)
H9 H -0.0570 0.4364 -0.3030
C22 C 0.0527(8) 0.4259(6) -0.2949(5)
H10 H 0.0658 0.4464 -0.3254
C23 C 0.1062(8) 0.4017(5) -0.2626(4)
C24 C 0.0838(9) 0.3715(6) -0.2201(5)
H11 H 0.1203 0.3538 -0.1985
C25 C 0.0099(8) 0.3647(6) -0.2060(5)
H12 H -0.0035 0.3441 -0.1756
C26 C 0.1839(6) 0.4128(9) -0.2733(4)
N1 N 0.2355(5) 0.3806(7) -0.2445(3)
N2 N 0.2012(4) 0.4515(7) -0.3149(3)
N3 N 0.3288(5) 0.4348(6) -0.2944(3)
Cd1A Cd 0.5000 0.74306(4) -0.5000
Cd1B Cd -0.25694(4) 0.5000 -0.2500
Cd1A_2 Cd 0.5000 0.74306(4) 0.5000
Cd1C Cd 1.25694(4) 0.5000 0.2500
Cd2D Cd 0.33697(3) 0.25959(3) 0.070021(19)
Cd2G Cd 0.74041(3) 0.33697(3) -0.179979(19)
Cd2A Cd 0.33697(3) 0.74041(3) -0.570021(19)
Cd2G_2 Cd -0.25959(3) 0.33697(3) -0.179979(19)
Cd2E Cd 0.66303(3) 0.74041(3) 0.570021(19)
Cd2C Cd 1.25959(3) 0.33697(3) 0.179979(19)
O1D O 0.4086(5) 0.2972(5) 0.1295(2)
O2C O 0.2458(3) 0.2458(3) 0.1250
O3G O 0.8032(12) 0.2126(16) -0.0602(7)
O4D O 0.4984(5) 0.2539(4) 0.0826(2)
O5D O 0.5882(4) 0.6534(3) 0.5017(2)
O5A O 0.5882(4) 0.3466(3) -0.0017(2)
O5E O 0.4118(4) 0.3466(3) 0.0017(2)
O6D O 0.7075(4) 0.6797(4) 0.5080(2)
O6A O 0.7075(4) 0.3203(4) -0.0080(2)
O6E O 0.2925(4) 0.3203(4) 0.0080(2)
O7D O 1.1707(4) 0.4096(3) 0.2542(3)
O7C O 0.4096(3) 0.1707(4) -0.0042(3)
O7G O 0.5904(3) 0.1707(4) 0.0042(3)
O8D O 1.1385(5) 0.3529(4) 0.1840(4)
O8G O 0.6471(4) 0.1385(5) -0.0660(4)
O8C O 0.3529(4) 0.1385(5) 0.0660(4)
C1D C 0.4744(7) 0.2863(6) 0.1197(3)
C2G C 0.8043(12) 0.2172(11) -0.1051(11)
C3D C 0.5316(6) 0.3115(6) 0.1571(3)
C4G C 0.808(2) 0.124(2) -0.1093(16)
C5D C 0.6052(7) 0.2869(6) 0.1535(3)
H1D H 0.6186 0.2523 0.1292
C6D C 0.6566(7) 0.3131(7) 0.1850(4)
H2D H 0.7060 0.2970 0.1825
C7D C 0.6364(6) 0.3655(8) 0.2224(4)
C8D C 0.5629(5) 0.3876(9) 0.2263(4)
H3D H 0.5486 0.4207 0.2511
C9D C 0.5109(6) 0.3607(8) 0.1935(3)
H4D H 0.4612 0.3759 0.1960
C10D C 0.6942(5) 0.3953(8) 0.2565(4)
C11D C 0.6536(6) 0.6476(5) 0.4866(3)
C12D C 0.6705(5) 0.5973(5) 0.4444(3)
C13D C 0.7451(5) 0.5921(7) 0.4298(4)
H5D H 0.7822 0.6167 0.4477
C14D C 0.7634(5) 0.5506(8) 0.3889(4)
H6D H 0.8126 0.5493 0.3776
C15D C 0.7081(5) 0.5104(7) 0.3644(4)
C16D C 0.6324(5) 0.5182(7) 0.3794(4)
H7D H 0.5941 0.4942 0.3622
C17D C 0.6168(5) 0.5623(6) 0.4204(3)
H8D H 0.5675 0.5673 0.4311
C18D C 0.7265(6) 0.4614(8) 0.3220(4)
C19D C 1.1248(6) 0.3856(6) 0.2267(5)
C20D C 1.0429(6) 0.3898(5) 0.2390(4)
C21D C 1.0205(7) 0.4191(6) 0.2812(4)
H9D H 1.0570 0.4364 0.3030
C22D C 0.9473(8) 0.4259(6) 0.2949(5)
H10D H 0.9342 0.4464 0.3254
C23D C 0.8938(8) 0.4017(5) 0.2626(4)
C24D C 0.9162(9) 0.3715(6) 0.2201(5)
H11D H 0.8797 0.3538 0.1985
C25D C 0.9901(8) 0.3647(6) 0.2060(5)
H12D H 1.0035 0.3441 0.1756
C26D C 0.8161(6) 0.4128(9) 0.2733(4)
N1D N 0.7645(5) 0.3806(7) 0.2445(3)
N2D N 0.7988(4) 0.4515(7) 0.3149(3)
N3D N 0.6712(5) 0.4348(6) 0.2944(3)
loop_
_geom_bond_atom_site_label_1
_geom_bond_atom_site_label_2
_geom_bond_site_symmetry_1
_geom_bond_site_symmetry_2
Cd1 O4 1_555 1_555
Cd2 O1 1_555 1_555
O1 C1 1_555 1_555
O2 Cd2 1_555 1_555
O3 C2 1_555 1_555
O4 C1 1_555 1_555
O5 C11 1_555 1_555
O6 C11 1_555 1_555
O7 C19 1_555 1_555
O8 C19 1_555 1_555
C1 C3 1_555 1_555
C2 O2 1_555 1_555
C3 C5 1_555 1_555
C4 C2 1_555 1_555
C5 H1 1_555 1_555
C6 C5 1_555 1_555
H2 C6 1_555 1_555
C7 C6 1_555 1_555
C8 C7 1_555 1_555
H3 C8 1_555 1_555
C9 C3 1_555 1_555
H4 C9 1_555 1_555
C10 C7 1_555 1_555
C11 C12 1_555 1_555
C12 C13 1_555 1_555
C13 H5 1_555 1_555
C14 C13 1_555 1_555
H6 C14 1_555 1_555
C15 C14 1_555 1_555
C16 C15 1_555 1_555
H7 C16 1_555 1_555
C17 C12 1_555 1_555
H8 C17 1_555 1_555
C18 C15 1_555 1_555
C19 C20 1_555 1_555
C20 C21 1_555 1_555
C21 H9 1_555 1_555
C22 C21 1_555 1_555
H10 C22 1_555 1_555
C23 C22 1_555 1_555
C24 C23 1_555 1_555
H11 C24 1_555 1_555
C25 C20 1_555 1_555
H12 C25 1_555 1_555
C26 C23 1_555 1_555
N1 C10 1_555 1_555
N2 C18 1_555 1_555
N3 C10 1_555 1_555
Cd1A O5 1_555 1_555
Cd1B O7 1_555 1_555
Cd1A_2 O5D 1_555 1_555
Cd1C O7D 1_555 1_555
Cd2D O1D 1_555 1_555
Cd2G O2 1_555 1_555
Cd2A O6 1_555 1_555
Cd2G_2 O8 1_555 1_555
Cd2E O6D 1_555 1_555
Cd2C O8D 1_555 1_555
O1D C1D 1_555 1_555
O2C Cd2D 1_555 1_555
O3G C2G 1_555 1_555
O4D Cd1 1_555 1_555
O5D C11D 1_555 1_555
O5A Cd1 1_555 1_555
O5E Cd1 1_555 1_555
O6D C11D 1_555 1_555
O6A Cd2 1_555 1_555
O6E Cd2D 1_555 1_555
O7D C19D 1_555 1_555
O7C Cd1 1_555 1_555
O7G Cd1 1_555 1_555
O8D C19D 1_555 1_555
O8G Cd2 1_555 1_555
O8C Cd2D 1_555 1_555
C1D O4D 1_555 1_555
C2G O2 1_555 1_555
C3D C1D 1_555 1_555
C4G C2 1_555 1_555
C5D C3D 1_555 1_555
H1D C5D 1_555 1_555
C6D C5D 1_555 1_555
H2D C6D 1_555 1_555
C7D C6D 1_555 1_555
C8D C7D 1_555 1_555
H3D C8D 1_555 1_555
C9D C3D 1_555 1_555
H4D C9D 1_555 1_555
C10D C7D 1_555 1_555
C11D C12D 1_555 1_555
C12D C13D 1_555 1_555
C13D H5D 1_555 1_555
C14D C13D 1_555 1_555
H6D C14D 1_555 1_555
C15D C14D 1_555 1_555
C16D C15D 1_555 1_555
H7D C16D 1_555 1_555
C17D C12D 1_555 1_555
H8D C17D 1_555 1_555
C18D C15D 1_555 1_555
C19D C20D 1_555 1_555
C20D C21D 1_555 1_555
C21D H9D 1_555 1_555
C22D C21D 1_555 1_555
H10D C22D 1_555 1_555
C23D C22D 1_555 1_555
C24D C23D 1_555 1_555
H11D C24D 1_555 1_555
C25D C20D 1_555 1_555
H12D C25D 1_555 1_555
C26D C23D 1_555 1_555
N1D C10D 1_555 1_555
N2D C18D 1_555 1_555
N3D C10D 1_555 1_555
C2 C2G 1_555 1_555
C4 C2G 1_555 1_555
C8 C9 1_555 1_555
C16 C17 1_555 1_555
C18 N3 1_555 1_555
C24 C25 1_555 1_555
C26 N1 1_555 1_555
C26 N2 1_555 1_555
C2G C4G 1_555 1_555
C8D C9D 1_555 1_555
C16D C17D 1_555 1_555
C18D N3D 1_555 1_555
C24D C25D 1_555 1_555
C26D N1D 1_555 1_555
C26D N2D 1_555 1_555

#END
