
#######################################################################
#
#                 Cambridge Crystallographic Data Centre
#                                CCDC 
#
#######################################################################
#
# If this CIF has been generated from an entry in the Cambridge 
# Structural Database, then it will include bibliographic, chemical, 
# crystal, experimental, refinement or atomic coordinate data resulting 
# from the CCDC's data processing and validation procedures.
#
#######################################################################

data_NINBUJ
_chemical_formula_moiety         
'(C27 H28 Cu1 F3 N4 O3 S1 1+)n,n(C1 F3 O3 S1 1-),2n(C3 H6 O1)'
_chemical_name_systematic        
"catena-[bis(\m~2~-4,4'-Propane-1,3-diyldipyridine)-trifluoromethanesulfonato-copper(ii) trifluoromethanesulfonate acetone solvate]"
_symmetry_cell_setting           orthorhombic
_symmetry_space_group_name_H-M   'C m c 21'
_symmetry_Int_Tables_number      36
_space_group_name_Hall           'C 2c -2'
loop_
_symmetry_equiv_pos_site_id
_symmetry_equiv_pos_as_xyz
1 x,y,z
2 -x,y,z
3 x,-y,1/2+z
4 -x,-y,1/2+z
5 1/2+x,1/2+y,z
6 1/2-x,1/2+y,z
7 1/2+x,1/2-y,1/2+z
8 1/2-x,1/2-y,1/2+z
_cell_length_a                   12.3248(6)
_cell_length_b                   17.1869(6)
_cell_length_c                   19.2754(7)
_cell_angle_alpha                90
_cell_angle_beta                 90
_cell_angle_gamma                90
_cell_volume                     4083.01
_exptl_crystal_colour            violet
_exptl_crystal_description       prism
_cell_formula_units_Z            4
loop_
_atom_site_label
_atom_site_type_symbol
_atom_site_fract_x
_atom_site_fract_y
_atom_site_fract_z
Cu1 Cu 0.5000 0.29150(2) 0.07160(2)
S1 S 0.5000 0.50727(6) 0.10911(7)
F1 F 0.5000 0.6454(2) 0.0581(2)
F2 F 0.4142(7) 0.5588(3) -0.0021(3)
O1 O 0.5000 0.43049(16) 0.0778(2)
O2 O 0.5955(5) 0.5267(2) 0.1462(3)
N1 N 0.3823(2) 0.27526(15) 0.14315(13)
N2 N 0.3826(2) 0.28781(13) -0.00160(14)
C1 C 0.5000 0.5719(4) 0.0380(3)
C2 C 0.3394(3) 0.20517(18) 0.1513(2)
H1 H 0.3708 0.1627 0.1269
C3 C 0.2505(3) 0.19076(19) 0.1938(2)
H2 H 0.2229 0.1394 0.1985
C4 C 0.2026(2) 0.25186(17) 0.22903(14)
C5 C 0.2487(3) 0.3247(2) 0.22124(18)
H3 H 0.2194 0.3680 0.2455
C6 C 0.3375(3) 0.33459(19) 0.17817(18)
H4 H 0.3678 0.3851 0.1733
C7 C 0.1016(2) 0.24017(19) 0.27269(15)
H5 H 0.0973 0.2815 0.3083
H6 H 0.1059 0.1894 0.2968
C8 C 0.0000 0.2424(3) 0.2275(2)
H7 H 0.0000 0.2905 0.1992
H8 H 0.0000 0.1973 0.1955
C9 C 0.3499(3) 0.21922(18) -0.02810(17)
H9 H 0.3893 0.1735 -0.0165
C10 C 0.2611(3) 0.21276(16) -0.07157(17)
H10 H 0.2402 0.1632 -0.0889
C11 C 0.2027(2) 0.27814(17) -0.08979(14)
C12 C 0.2386(3) 0.34918(17) -0.06382(16)
H11 H 0.2021 0.3959 -0.0762
C13 C 0.3271(3) 0.35169(17) -0.02013(17)
H12 H 0.3498 0.4007 -0.0024
C14 C 0.1026(2) 0.27448(18) -0.13472(15)
H13 H 0.1054 0.2274 -0.1642
H14 H 0.1002 0.3206 -0.1655
C15 C 0.0000 0.2723(2) -0.0896(2)
H15 H 0.0000 0.2243 -0.0612
H16 H 0.0000 0.3174 -0.0576
F2A F 0.5858(7) 0.5588(3) -0.0021(3)
O2A O 0.4045(5) 0.5267(2) 0.1462(3)
N1A N -0.3823(2) 0.27526(15) 0.14315(13)
C2A C -0.3394(3) 0.20517(18) 0.1513(2)
H1A H -0.3708 0.1627 0.1269
C3A C -0.2505(3) 0.19076(19) 0.1938(2)
H2A H -0.2229 0.1394 0.1985
C4A C -0.2026(2) 0.25186(17) 0.22903(14)
C5A C -0.2487(3) 0.3247(2) 0.22124(18)
H3A H -0.2194 0.3680 0.2455
C6A C -0.3375(3) 0.33459(19) 0.17817(18)
H4A H -0.3678 0.3851 0.1733
C7A C -0.1016(2) 0.24017(19) 0.27269(15)
H5A H -0.0973 0.2815 0.3083
H6A H -0.1059 0.1894 0.2968
N2A N -0.3826(2) 0.28781(13) -0.00160(14)
C9A C -0.3499(3) 0.21922(18) -0.02810(17)
H9A H -0.3893 0.1735 -0.0165
C10A C -0.2611(3) 0.21276(16) -0.07157(17)
H10A H -0.2402 0.1632 -0.0889
C11A C -0.2027(2) 0.27814(17) -0.08979(14)
C12A C -0.2386(3) 0.34918(17) -0.06382(16)
H11A H -0.2021 0.3959 -0.0762
C13A C -0.3271(3) 0.35169(17) -0.02013(17)
H12A H -0.3498 0.4007 -0.0024
C14A C -0.1026(2) 0.27448(18) -0.13472(15)
H13A H -0.1054 0.2274 -0.1642
H14A H -0.1002 0.3206 -0.1655
Cu1_2 Cu -0.5000 0.29150(2) 0.07160(2)
N1A_2 N 0.6177(2) 0.27526(15) 0.14315(13)
N2A_2 N 0.6174(2) 0.28781(13) -0.00160(14)
S2 S 0.0000 0.47022(6) 0.36288(7)
F3 F -0.0792(7) 0.5433(4) 0.2601(2)
F4 F 0.0000 0.4435(3) 0.2302(2)
O3 O 0.0000 0.5396(2) 0.4034(2)
O4 O 0.0923(8) 0.4273(5) 0.3672(3)
C16 C 0.0000 0.5016(3) 0.2743(3)
F3A F 0.0792(7) 0.5433(4) 0.2601(2)
O4A O -0.0923(8) 0.4273(5) 0.3672(3)
O5 O 0.5000 0.08916(19) 0.0640(2)
C17 C 0.5000 0.0190(3) 0.0666(3)
C18 C 0.6037(5) -0.0250(3) 0.0685(3)
H17 H 0.6599 0.0045 0.0440
H18 H 0.5938 -0.0756 0.0460
H19 H 0.6259 -0.0328 0.1169
C18A C 0.3963(5) -0.0250(3) 0.0685(3)
H17A H 0.3401 0.0045 0.0440
H18A H 0.4062 -0.0756 0.0460
H19A H 0.3741 -0.0328 0.1169
O6 O 0.5000 0.3948(3) 0.3062(4)
C19 C 0.5000 0.4629(3) 0.3181(3)
C20 C 0.6049(7) 0.5046(5) 0.3234(5)
H20 H 0.6635 0.4706 0.3072
H21 H 0.6181 0.5191 0.3718
H22 H 0.6025 0.5516 0.2947
C20A C 0.3951(7) 0.5046(5) 0.3234(5)
H20A H 0.3365 0.4706 0.3072
H21A H 0.3819 0.5191 0.3718
H22A H 0.3975 0.5516 0.2947
loop_
_geom_bond_atom_site_label_1
_geom_bond_atom_site_label_2
_geom_bond_site_symmetry_1
_geom_bond_site_symmetry_2
Cu1 O1 1_555 1_555
S1 O1 1_555 1_555
F1 C1 1_555 1_555
F2 C1 1_555 1_555
O2 S1 1_555 1_555
N1 Cu1 1_555 1_555
N2 Cu1 1_555 1_555
C1 S1 1_555 1_555
C2 N1 1_555 1_555
H1 C2 1_555 1_555
C3 C2 1_555 1_555
H2 C3 1_555 1_555
C4 C3 1_555 1_555
C5 C4 1_555 1_555
H3 C5 1_555 1_555
C6 N1 1_555 1_555
H4 C6 1_555 1_555
C7 C4 1_555 1_555
H5 C7 1_555 1_555
H6 C7 1_555 1_555
C8 C7 1_555 1_555
H7 C8 1_555 1_555
H8 C8 1_555 1_555
C9 N2 1_555 1_555
H9 C9 1_555 1_555
C10 C9 1_555 1_555
H10 C10 1_555 1_555
C11 C10 1_555 1_555
C12 C11 1_555 1_555
H11 C12 1_555 1_555
C13 N2 1_555 1_555
H12 C13 1_555 1_555
C14 C11 1_555 1_555
H13 C14 1_555 1_555
H14 C14 1_555 1_555
C15 C14 1_555 1_555
H15 C15 1_555 1_555
H16 C15 1_555 1_555
S2 O3 1_555 1_555
F3 C16 1_555 1_555
F4 C16 1_555 1_555
O4 S2 1_555 1_555
C16 S2 1_555 1_555
O5 C17 1_555 1_555
C17 C18 1_555 1_555
C18 H17 1_555 1_555
H18 C18 1_555 1_555
H19 C18 1_555 1_555
O6 C19 1_555 1_555
C19 C20 1_555 1_555
C20 H20 1_555 1_555
H21 C20 1_555 1_555
H22 C20 1_555 1_555
F2A C1 1_555 1_555
O2A S1 1_555 1_555
N1A C2A 1_555 1_555
C2A H1A 1_555 1_555
C3A C2A 1_555 1_555
H2A C3A 1_555 1_555
C4A C3A 1_555 1_555
C5A C4A 1_555 1_555
H3A C5A 1_555 1_555
C6A N1A 1_555 1_555
H4A C6A 1_555 1_555
C7A C8 1_555 1_555
H5A C7A 1_555 1_555
H6A C7A 1_555 1_555
N2A C9A 1_555 1_555
C9A H9A 1_555 1_555
C10A C9A 1_555 1_555
H10A C10A 1_555 1_555
C11A C10A 1_555 1_555
C12A C11A 1_555 1_555
H11A C12A 1_555 1_555
C13A N2A 1_555 1_555
H12A C13A 1_555 1_555
C14A C15 1_555 1_555
H13A C14A 1_555 1_555
H14A C14A 1_555 1_555
Cu1_2 N1A 1_555 1_555
N1A_2 Cu1 1_555 1_555
N2A_2 Cu1 1_555 1_555
F3A C16 1_555 1_555
O4A S2 1_555 1_555
C18A C17 1_555 1_555
H17A C18A 1_555 1_555
H18A C18A 1_555 1_555
H19A C18A 1_555 1_555
C20A C19 1_555 1_555
H20A C20A 1_555 1_555
H21A C20A 1_555 1_555
H22A C20A 1_555 1_555
C5 C6 1_555 1_555
C12 C13 1_555 1_555
C4A C7A 1_555 1_555
C5A C6A 1_555 1_555
N2A Cu1_2 1_555 1_555
C11A C14A 1_555 1_555
C12A C13A 1_555 1_555

#END
