
#######################################################################
#
#                 Cambridge Crystallographic Data Centre
#                                CCDC 
#
#######################################################################
#
# If this CIF has been generated from an entry in the Cambridge 
# Structural Database, then it will include bibliographic, chemical, 
# crystal, experimental, refinement or atomic coordinate data resulting 
# from the CCDC's data processing and validation procedures.
#
#######################################################################

data_MIDTEA
_chemical_name_common            CPF-13
_chemical_formula_moiety         '(C2 H8 N1 1+)n,n(C26 H16 N5 O12 Zn3 1-)'
_chemical_name_systematic        
'catena-[Dimethylammonium bis(\m~4~-terephthalato)-(\m~3~-3,5-diamino-1,2,4-triazolyl)-(\m~2~-terephthalato)-tri-zinc(ii) unknown solvate]'
_symmetry_cell_setting           tetragonal
_symmetry_space_group_name_H-M   'P 42/m n m'
_symmetry_Int_Tables_number      136
_space_group_name_Hall           '-P 4n 2n'
loop_
_symmetry_equiv_pos_site_id
_symmetry_equiv_pos_as_xyz
1 x,y,z
2 -x,-y,z
3 1/2-y,1/2+x,1/2+z
4 1/2+y,1/2-x,1/2+z
5 1/2-x,1/2+y,1/2-z
6 1/2+x,1/2-y,1/2-z
7 y,x,-z
8 -y,-x,-z
9 -x,-y,-z
10 x,y,-z
11 1/2+y,1/2-x,1/2-z
12 1/2-y,1/2+x,1/2-z
13 1/2+x,1/2-y,1/2+z
14 1/2-x,1/2+y,1/2+z
15 -y,-x,z
16 y,x,z
_cell_length_a                   20.1749(2)
_cell_length_b                   20.1749(2)
_cell_length_c                   16.3257(3)
_cell_angle_alpha                90
_cell_angle_beta                 90
_cell_angle_gamma                90
_cell_volume                     6644.99
_exptl_crystal_colour            colorless
_exptl_crystal_description       octahedron
_cell_formula_units_Z            4
loop_
_atom_site_label
_atom_site_type_symbol
_atom_site_fract_x
_atom_site_fract_y
_atom_site_fract_z
Zn1 Zn 0.05178(2) 0.94822(2) 0.0000
Zn2 Zn 0.31390(2) 0.80437(2) 0.0000
C1 C 0.1873(2) 0.8857(2) 0.0000
C2 C -0.06315(15) 0.93685(15) -0.1117(3)
C3 C -0.09863(16) 0.90137(16) -0.1798(3)
C4 C -0.0734(2) 0.8434(2) -0.2124(3)
H1 H -0.0349 0.8252 -0.1906
C5 C -0.1041(2) 0.81264(19) -0.2755(3)
H2 H -0.0861 0.7740 -0.2972
C6 C -0.16200(17) 0.83800(17) -0.3079(3)
C7 C -0.19506(18) 0.80494(18) -0.3784(3)
C8 C 0.3907(3) 0.9103(3) 0.0000
C9 C 0.4477(3) 0.9565(3) 0.0000
C10 C 0.4943(4) 0.9469(4) 0.0559(6)
C11 C 0.4540(5) 1.0066(5) -0.0594(5)
N1 N 0.21961(17) 0.82951(16) 0.0000
N2 N 0.12107(15) 0.87893(15) 0.0000
N3 N 0.2171(2) 0.9458(2) 0.0000
H3 H 0.2597 0.9485 0.0000
H4 H 0.1935 0.9813 0.0000
O1 O -0.01151(12) 0.91185(15) -0.08529(18)
O2 O -0.16918(16) 0.75277(13) -0.40578(17)
O3 O 0.3834(3) 0.8606(3) 0.0352(4)
O4 O 0.3529(3) 0.9136(4) -0.0620(4)
C1G C 0.1143(2) 0.8127(2) 0.0000
N1G N 0.17049(16) 0.78039(17) 0.0000
N3G N 0.0542(2) 0.7829(2) 0.0000
H3G H 0.0515 0.7403 0.0000
H4G H 0.0187 0.8065 0.0000
C4O C -0.1566(2) 0.9266(2) -0.2124(3)
H1O H -0.1748 0.9651 -0.1906
C5O C -0.18736(19) 0.8959(2) -0.2755(3)
H2O H -0.2260 0.9139 -0.2972
O1O O -0.08815(15) 0.98849(12) -0.08529(18)
O2O O -0.24723(13) 0.83082(16) -0.40578(17)
C8A C 0.6093(3) 1.0897(3) 0.0000
C9A C 0.5523(3) 1.0435(3) 0.0000
C10H C 0.5057(4) 1.0531(4) -0.0559(6)
C11H C 0.5460(5) 0.9934(5) 0.0594(5)
O3H O 0.6166(3) 1.1394(3) -0.0352(4)
O4H O 0.6471(3) 1.0864(4) 0.0620(4)
C10I C 0.4943(4) 0.9469(4) -0.0559(6)
C11I C 0.4540(5) 1.0066(5) 0.0594(5)
O3I O 0.3834(3) 0.8606(3) -0.0352(4)
O4I O 0.3529(3) 0.9136(4) 0.0620(4)
C10A C 0.5057(4) 1.0531(4) 0.0559(6)
C11A C 0.5460(5) 0.9934(5) -0.0594(5)
O3A O 0.6166(3) 1.1394(3) 0.0352(4)
O4A O 0.6471(3) 1.0864(4) -0.0620(4)
C2A C 0.06315(15) 1.06315(15) -0.1117(3)
C3A C 0.09863(16) 1.09863(16) -0.1798(3)
C4A C 0.0734(2) 1.1566(2) -0.2124(3)
H1A H 0.0349 1.1748 -0.1906
C5A C 0.1041(2) 1.18736(19) -0.2755(3)
H2A H 0.0861 1.2260 -0.2972
C6A C 0.16200(17) 1.16200(17) -0.3079(3)
C7A C 0.19506(18) 1.19506(18) -0.3784(3)
O1A O 0.01151(12) 1.08815(15) -0.08529(18)
O2A O 0.16918(16) 1.24723(13) -0.40578(17)
C4N C 0.1566(2) 1.0734(2) -0.2124(3)
H1N H 0.1748 1.0349 -0.1906
C5N C 0.18736(19) 1.1041(2) -0.2755(3)
H2N H 0.2260 1.0861 -0.2972
O1N O 0.08815(15) 1.01151(12) -0.08529(18)
O2N O 0.24723(13) 1.16918(16) -0.40578(17)
Zn2E Zn -0.18610(2) 0.69563(2) -0.5000
Zn1A Zn -0.05178(2) 1.05178(2) 0.0000
Zn2A Zn 0.68610(2) 1.19563(2) 0.0000
Zn2B Zn -0.30437(2) 0.81390(2) -0.5000
Zn2C Zn 0.30437(2) 1.18610(2) -0.5000
Zn2D Zn 0.18610(2) 1.30437(2) -0.5000
Zn2G Zn 0.19563(2) 0.68610(2) 0.0000
N1E N -0.28039(17) 0.67049(16) -0.5000
O1G O 0.08815(15) 1.01151(12) 0.08529(18)
O1I O -0.01151(12) 0.91185(15) 0.08529(18)
O2E O 0.33082(16) 0.74723(13) -0.09422(17)
O2I O -0.16918(16) 0.75277(13) -0.59422(17)
O2L O 0.33082(16) 0.74723(13) 0.09422(17)
O3E O -0.1166(3) 0.6394(3) -0.5352(4)
O3L O -0.1166(3) 0.6394(3) -0.4648(4)
O4E O -0.1471(3) 0.5864(4) -0.4380(4)
O4L O -0.1471(3) 0.5864(4) -0.5620(4)
loop_
_geom_bond_atom_site_label_1
_geom_bond_atom_site_label_2
_geom_bond_site_symmetry_1
_geom_bond_site_symmetry_2
Zn1 N2 1_555 1_555
Zn2 N1 1_555 1_555
C1 N1 1_555 1_555
C2 C3 1_555 1_555
C3 C4 1_555 1_555
C4 H1 1_555 1_555
C5 C4 1_555 1_555
H2 C5 1_555 1_555
C6 C5 1_555 1_555
C7 C6 1_555 1_555
C8 C9 1_555 1_555
C9 C10 1_555 1_555
C10 C11H 1_555 1_555
C11 C9 1_555 1_555
N1 N1G 1_555 1_555
N2 C1 1_555 1_555
N3 C1 1_555 1_555
H3 N3 1_555 1_555
H4 N3 1_555 1_555
O1 Zn1 1_555 1_555
O2 C7 1_555 1_555
O3 Zn2 1_555 1_555
O4 Zn2 1_555 1_555
C1G N2 1_555 1_555
N1G C1G 1_555 1_555
N3G C1G 1_555 1_555
H3G N3G 1_555 1_555
H4G N3G 1_555 1_555
C4O C3 1_555 1_555
H1O C4O 1_555 1_555
C5O C6 1_555 1_555
H2O C5O 1_555 1_555
O1O C2 1_555 1_555
O2O C7 1_555 1_555
C8A C9A 1_555 1_555
C9A C10H 1_555 1_555
C10H C11 1_555 1_555
C11H C9A 1_555 1_555
O3H C8A 1_555 1_555
O4H C8A 1_555 1_555
C10I C9 1_555 1_555
C11I C9 1_555 1_555
O3I Zn2 1_555 1_555
O4I Zn2 1_555 1_555
C10A C9A 1_555 1_555
C11A C9A 1_555 1_555
O3A C8A 1_555 1_555
O4A C8A 1_555 1_555
C2A C3A 1_555 1_555
C3A C4A 1_555 1_555
C4A H1A 1_555 1_555
C5A C4A 1_555 1_555
H2A C5A 1_555 1_555
C6A C5A 1_555 1_555
C7A C6A 1_555 1_555
O1A C2A 1_555 1_555
O2A C7A 1_555 1_555
C4N C3A 1_555 1_555
H1N C4N 1_555 1_555
C5N C6A 1_555 1_555
H2N C5N 1_555 1_555
O1N Zn1 1_555 1_555
O2N C7A 1_555 1_555
Zn2E O2 1_555 1_555
Zn1A O1O 1_555 1_555
Zn2A O3H 1_555 1_555
Zn2B O2O 1_555 1_555
Zn2C O2N 1_555 1_555
Zn2D O2A 1_555 1_555
Zn2G N1G 1_555 1_555
N1E Zn2E 1_555 1_555
O1G Zn1 1_555 1_555
O1I Zn1 1_555 1_555
O2E Zn2 1_555 1_555
O2I Zn2E 1_555 1_555
O2L Zn2 1_555 1_555
O3E Zn2E 1_555 1_555
O3L Zn2E 1_555 1_555
O4E Zn2E 1_555 1_555
O4L Zn2E 1_555 1_555
C2 O1 1_555 1_555
C8 O3 1_555 1_555
C8 O4 1_555 1_555
C8 O3I 1_555 1_555
C8 O4I 1_555 1_555
C10 C11I 1_555 1_555
C11 C10I 1_555 1_555
O3 O3I 1_555 1_555
O3 O4I 1_555 1_555
O4 O3I 1_555 1_555
C4O C5O 1_555 1_555
C10H C11A 1_555 1_555
C11H C10A 1_555 1_555
O3H O3A 1_555 1_555
O3H O4A 1_555 1_555
O4H O3A 1_555 1_555
O4H Zn2A 1_555 1_555
C10I C11A 1_555 1_555
C11I C10A 1_555 1_555
O3A Zn2A 1_555 1_555
O4A Zn2A 1_555 1_555
C2A O1N 1_555 1_555
O1A Zn1A 1_555 1_555
C4N C5N 1_555 1_555
O3E O3L 1_555 1_555
O3E O4L 1_555 1_555
O3L O4E 1_555 1_555

#END
