
#######################################################################
#
#                 Cambridge Crystallographic Data Centre
#                                CCDC 
#
#######################################################################
#
# If this CIF has been generated from an entry in the Cambridge 
# Structural Database, then it will include bibliographic, chemical, 
# crystal, experimental, refinement or atomic coordinate data resulting 
# from the CCDC's data processing and validation procedures.
#
#######################################################################

data_YUWDIF
_chemical_formula_moiety         '(C18 H12 Cu1 N6 O4)n'
_chemical_name_systematic        
'catena-[bis(\m-4-(1H-1,2,4-triazol-1-yl)benzoato)-copper unknown solvate]'
_symmetry_cell_setting           orthorhombic
_symmetry_space_group_name_H-M   'P n n a'
_symmetry_Int_Tables_number      52
_space_group_name_Hall           '-P 2a 2bc'
loop_
_symmetry_equiv_pos_site_id
_symmetry_equiv_pos_as_xyz
1 x,y,z
2 1/2-x,-y,z
3 x,1/2-y,1/2-z
4 1/2-x,1/2+y,1/2-z
5 -x,-y,-z
6 1/2+x,y,-z
7 -x,1/2+y,1/2+z
8 1/2+x,1/2-y,1/2+z
_cell_length_a                   13.0574(5)
_cell_length_b                   9.9328(4)
_cell_length_c                   17.5051(6)
_cell_angle_alpha                90
_cell_angle_beta                 90
_cell_angle_gamma                90
_cell_volume                     2270.35
_exptl_crystal_colour            blue
_exptl_crystal_description       block
_cell_formula_units_Z            4
loop_
_atom_site_label
_atom_site_type_symbol
_atom_site_fract_x
_atom_site_fract_y
_atom_site_fract_z
Cu1 Cu 0.7500 0.0000 0.66204(3)
O1 O 0.65010(16) 0.0520(2) 0.58227(11)
N1 N 0.3612(2) 0.5046(2) 0.23988(15)
N2 N 0.4632(2) 0.4522(3) 0.33307(15)
O2 O 0.72560(18) 0.2398(2) 0.61854(13)
C1 C 0.3735(2) 0.4281(3) 0.30088(17)
H1 H 0.3258 0.3660 0.3187
C2 C 0.6658(2) 0.1778(3) 0.57577(16)
C3 C 0.6085(2) 0.2521(3) 0.51423(17)
C4 C 0.5120(3) 0.3850(3) 0.39616(18)
C5 C 0.4761(3) 0.2633(3) 0.4198(2)
H2 H 0.4194 0.2250 0.3962
C6 C 0.5246(3) 0.1968(4) 0.4794(2)
H3 H 0.4999 0.1139 0.4958
C7 C 0.6419(3) 0.3758(3) 0.4901(2)
H4 H 0.6978 0.4154 0.5142
C8 C 0.5947(3) 0.4430(4) 0.4308(2)
H5 H 0.6187 0.5264 0.4147
N3 N 0.5131(3) 0.5490(4) 0.2928(2)
C9 C 0.4490(3) 0.5765(5) 0.2379(3)
H6 H 0.4625 0.6404 0.2004
O1A O 0.84990(16) -0.0520(2) 0.58227(11)
N1A N 1.1388(2) -0.5046(2) 0.23988(15)
N2A N 1.0368(2) -0.4522(3) 0.33307(15)
O2A O 0.77440(18) -0.2398(2) 0.61854(13)
C1A C 1.1265(2) -0.4281(3) 0.30088(17)
H1A H 1.1742 -0.3660 0.3187
C2A C 0.8342(2) -0.1778(3) 0.57577(16)
C3A C 0.8915(2) -0.2521(3) 0.51423(17)
C4A C 0.9880(3) -0.3850(3) 0.39616(18)
C5A C 1.0239(3) -0.2633(3) 0.4198(2)
H2A H 1.0806 -0.2250 0.3962
C6A C 0.9754(3) -0.1968(4) 0.4794(2)
H3A H 1.0001 -0.1139 0.4958
C7A C 0.8581(3) -0.3758(3) 0.4901(2)
H4A H 0.8022 -0.4154 0.5142
C8A C 0.9053(3) -0.4430(4) 0.4308(2)
H5A H 0.8813 -0.5264 0.4147
N3A N 0.9869(3) -0.5490(4) 0.2928(2)
C9A C 1.0510(3) -0.5765(5) 0.2379(3)
H6A H 1.0375 -0.6404 0.2004
Cu1F Cu 0.2500 0.5000 0.16204(3)
Cu1F_2 Cu 1.2500 -0.5000 0.16204(3)
N1F N 0.6388(2) 0.0046(2) 0.73988(15)
N1G N 0.8612(2) -0.0046(2) 0.73988(15)
loop_
_geom_bond_atom_site_label_1
_geom_bond_atom_site_label_2
_geom_bond_site_symmetry_1
_geom_bond_site_symmetry_2
Cu1 O1 1_555 1_555
O1 C2 1_555 1_555
N1 C1 1_555 1_555
N2 C1 1_555 1_555
O2 Cu1 1_555 1_555
C1 H1 1_555 1_555
C2 O2 1_555 1_555
C3 C2 1_555 1_555
C4 N2 1_555 1_555
C5 C4 1_555 1_555
H2 C5 1_555 1_555
C6 C3 1_555 1_555
H3 C6 1_555 1_555
C7 C3 1_555 1_555
H4 C7 1_555 1_555
C8 C4 1_555 1_555
H5 C8 1_555 1_555
N3 N2 1_555 1_555
C9 N1 1_555 1_555
H6 C9 1_555 1_555
O1A Cu1 1_555 1_555
N1A C1A 1_555 1_555
N2A C1A 1_555 1_555
O2A Cu1 1_555 1_555
C1A H1A 1_555 1_555
C2A O1A 1_555 1_555
C3A C2A 1_555 1_555
C4A N2A 1_555 1_555
C5A C4A 1_555 1_555
H2A C5A 1_555 1_555
C6A C3A 1_555 1_555
H3A C6A 1_555 1_555
C7A C3A 1_555 1_555
H4A C7A 1_555 1_555
C8A C4A 1_555 1_555
H5A C8A 1_555 1_555
N3A N2A 1_555 1_555
C9A N1A 1_555 1_555
H6A C9A 1_555 1_555
Cu1F N1 1_555 1_555
Cu1F_2 N1A 1_555 1_555
N1F Cu1 1_555 1_555
N1G Cu1 1_555 1_555
C5 C6 1_555 1_555
C7 C8 1_555 1_555
N3 C9 1_555 1_555
O2A C2A 1_555 1_555
C5A C6A 1_555 1_555
C7A C8A 1_555 1_555
N3A C9A 1_555 1_555

#END
