
#######################################################################
#
#                 Cambridge Crystallographic Data Centre
#                                CCDC 
#
#######################################################################
#
# If this CIF has been generated from an entry in the Cambridge 
# Structural Database, then it will include bibliographic, chemical, 
# crystal, experimental, refinement or atomic coordinate data resulting 
# from the CCDC's data processing and validation procedures.
#
#######################################################################

data_MOMJIJ
_chemical_formula_moiety         '(C18 H14 La2 N6 O16)n,4n(H2 O1)'
_chemical_name_systematic        
'catena-[(\m~4~-Pyrazine-2,5-dicarboxylato)-bis(\m~3~-pyrazine-2,5-dicarboxylato)-tetra-aqua-di-lanthanum tetrahydrate]'
_symmetry_cell_setting           triclinic
_symmetry_space_group_name_H-M   'P -1'
_symmetry_Int_Tables_number      2
_space_group_name_Hall           '-P 1'
loop_
_symmetry_equiv_pos_site_id
_symmetry_equiv_pos_as_xyz
1 x,y,z
2 -x,-y,-z
_cell_length_a                   6.3773(3)
_cell_length_b                   6.9719(2)
_cell_length_c                   15.5118(10)
_cell_angle_alpha                78.963(6)
_cell_angle_beta                 87.657(6)
_cell_angle_gamma                71.990(5)
_cell_volume                     643.636
_exptl_crystal_colour            colorless
_exptl_crystal_description       prism
_cell_formula_units_Z            1
loop_
_atom_site_label
_atom_site_type_symbol
_atom_site_fract_x
_atom_site_fract_y
_atom_site_fract_z
La1 La 0.29202(2) 0.93712(2) 0.258223(9)
O1 O 0.6613(4) 0.9903(4) 0.27630(14)
O2 O 0.9532(4) 0.9864(4) 0.35296(14)
O3 O 0.5183(4) 0.7962(4) 0.13646(15)
O4 O 0.7108(5) 0.4668(4) 0.18490(16)
O5 O 0.8464(4) 0.3616(4) -0.24856(15)
O6 O 0.5552(6) 0.5890(5) 0.3368(2)
O7 O 0.8071(4) 0.6969(4) -0.28428(14)
O8 O -0.0377(4) 1.0424(4) 0.14931(16)
N1 N 0.4283(4) 0.9583(4) 0.42366(16)
N2 N 0.7847(5) 0.4062(4) 0.01686(17)
N3 N 0.7077(5) 0.7473(4) -0.11883(17)
C1 C 0.7568(5) 0.9919(5) 0.34523(19)
C2 C 0.6187(5) 0.9986(5) 0.42729(19)
C3 C 0.3105(5) 0.9582(5) 0.4972(2)
C4 C 0.6421(5) 0.6207(5) 0.1267(2)
C5 C 0.7021(5) 0.5973(5) 0.03238(19)
C6 C 0.8219(5) 0.3864(5) -0.0668(2)
C7 C 0.8139(5) 0.5352(5) -0.2304(2)
C8 C 0.7779(5) 0.5559(5) -0.13514(19)
C9 C 0.6703(5) 0.7670(5) -0.0354(2)
H1 H 0.182(7) 0.918(6) 0.496(3)
H2 H 0.8789 0.2556 -0.0799
H3 H 0.6214 0.8980 -0.0221
H4 H -0.132(9) 1.025(8) 0.175(4)
H5 H -0.095(9) 1.159(9) 0.125(4)
H6 H 0.636(10) 0.566(9) 0.368(4)
H7 H 0.620(10) 0.501(9) 0.299(4)
O1A O 0.3387(4) 1.0097(4) 0.72370(14)
O2A O 0.0468(4) 1.0136(4) 0.64704(14)
N1A N 0.5717(4) 1.0417(4) 0.57634(16)
C1A C 0.2432(5) 1.0081(5) 0.65477(19)
C2A C 0.3813(5) 1.0014(5) 0.57271(19)
C3A C 0.6895(5) 1.0418(5) 0.5028(2)
H1A H 0.818(7) 1.082(6) 0.504(3)
La1A La -0.29202(2) 1.06288(2) 0.741777(9)
O3A O -0.5183(4) 1.2038(4) 0.86354(15)
O4A O -0.7108(5) 1.5332(4) 0.81510(16)
O5A O -0.8464(4) 1.6384(4) 1.24856(15)
O6A O -0.5552(6) 1.4110(5) 0.6632(2)
O7A O -0.8071(4) 1.3031(4) 1.28428(14)
O8A O 0.0377(4) 0.9576(4) 0.85069(16)
N2A N -0.7847(5) 1.5938(4) 0.98314(17)
N3A N -0.7077(5) 1.2527(4) 1.11883(17)
C4A C -0.6421(5) 1.3793(5) 0.8733(2)
C5A C -0.7021(5) 1.4027(5) 0.96762(19)
C6A C -0.8219(5) 1.6136(5) 1.0668(2)
C7A C -0.8139(5) 1.4648(5) 1.2304(2)
C8A C -0.7779(5) 1.4441(5) 1.13514(19)
C9A C -0.6703(5) 1.2330(5) 1.0354(2)
H2A H -0.8789 1.7444 1.0799
H3A H -0.6214 1.1020 1.0221
H4A H 0.132(9) 0.975(8) 0.825(4)
H5A H 0.095(9) 0.841(9) 0.875(4)
H6A H -0.636(10) 1.434(9) 0.632(4)
H7A H -0.620(10) 1.499(9) 0.701(4)
La1_2 La -0.70798(2) 0.93712(2) 1.258223(9)
La1_3 La -0.70798(2) 1.93712(2) 1.258223(9)
La1_4 La 1.29202(2) 0.93712(2) 0.258223(9)
La1A_2 La 0.70798(2) 0.06288(2) -0.258223(9)
La1A_3 La 0.70798(2) 1.06288(2) -0.258223(9)
La1A_4 La 0.70798(2) 1.06288(2) 0.741777(9)
O1A_2 O -0.6613(4) 1.0097(4) 0.72370(14)
O2_2 O -0.0468(4) 0.9864(4) 0.35296(14)
O5_2 O -0.1536(4) 1.3616(4) 0.75144(15)
O5A_2 O 0.1536(4) 0.6384(4) 0.24856(15)
O7_2 O -0.1929(4) 0.6969(4) 0.71572(14)
O7A_2 O 0.1929(4) 1.3031(4) 0.28428(14)
N1A_2 N -0.4283(4) 1.0417(4) 0.57634(16)
N3_2 N -0.2923(5) 0.7473(4) 0.88117(17)
N3A_2 N 0.2923(5) 1.2527(4) 0.11883(17)
O9 O 0.9508(9) 0.4407(11) 0.4246(4)
O10 O 0.726(3) 0.527(3) 0.5389(13)
loop_
_geom_bond_atom_site_label_1
_geom_bond_atom_site_label_2
_geom_bond_site_symmetry_1
_geom_bond_site_symmetry_2
La1 O1 1_555 1_555
O1 C1 1_555 1_555
O2 C1 1_555 1_555
O3 La1 1_555 1_555
O4 C4 1_555 1_555
O5 C7 1_555 1_555
O6 La1 1_555 1_555
O7 C7 1_555 1_555
O8 La1 1_555 1_555
N1 La1 1_555 1_555
N2 C5 1_555 1_555
N3 C8 1_555 1_555
C1 C2 1_555 1_555
C2 N1 1_555 1_555
C3 N1 1_555 1_555
C4 O3 1_555 1_555
C5 C4 1_555 1_555
C6 N2 1_555 1_555
C7 C8 1_555 1_555
C8 C6 1_555 1_555
C9 N3 1_555 1_555
H1 C3 1_555 1_555
H2 C6 1_555 1_555
H3 C9 1_555 1_555
H4 O8 1_555 1_555
H5 O8 1_555 1_555
H6 O6 1_555 1_555
H7 O6 1_555 1_555
O1A C1A 1_555 1_555
O2A C1A 1_555 1_555
N1A C2A 1_555 1_555
C1A C2A 1_555 1_555
C2A C3 1_555 1_555
C3A C2 1_555 1_555
H1A C3A 1_555 1_555
La1A O2A 1_555 1_555
O3A La1A 1_555 1_555
O4A C4A 1_555 1_555
O5A C7A 1_555 1_555
O6A La1A 1_555 1_555
O7A C7A 1_555 1_555
O8A La1A 1_555 1_555
N2A C5A 1_555 1_555
N3A C8A 1_555 1_555
C4A O3A 1_555 1_555
C5A C4A 1_555 1_555
C6A N2A 1_555 1_555
C7A C8A 1_555 1_555
C8A C6A 1_555 1_555
C9A N3A 1_555 1_555
H2A C6A 1_555 1_555
H3A C9A 1_555 1_555
H4A O8A 1_555 1_555
H5A O8A 1_555 1_555
H6A O6A 1_555 1_555
H7A O6A 1_555 1_555
La1_2 O7A 1_555 1_555
La1_3 O5A 1_555 1_555
La1_4 O2 1_555 1_555
La1A_2 O5 1_555 1_555
La1A_3 O7 1_555 1_555
La1A_4 O1A 1_555 1_555
O1A_2 La1A 1_555 1_555
O2_2 La1 1_555 1_555
O5_2 La1A 1_555 1_555
O5A_2 La1 1_555 1_555
O7_2 La1A 1_555 1_555
O7A_2 La1 1_555 1_555
N1A_2 La1A 1_555 1_555
N3_2 La1A 1_555 1_555
N3A_2 La1 1_555 1_555
N3 La1A_3 1_555 1_555
C5 C9 1_555 1_555
N1A C3A 1_555 1_555
N1A La1A_4 1_555 1_555
N3A La1_2 1_555 1_555
C5A C9A 1_555 1_555

#END
