
#######################################################################
#
#                 Cambridge Crystallographic Data Centre
#                                CCDC 
#
#######################################################################
#
# If this CIF has been generated from an entry in the Cambridge 
# Structural Database, then it will include bibliographic, chemical, 
# crystal, experimental, refinement or atomic coordinate data resulting 
# from the CCDC's data processing and validation procedures.
#
#######################################################################

data_REDYEG
_chemical_formula_moiety         '(C12 H8 F4 N2 O4 Zn3)n,n(C1 H4 O1),n(H2 O1)'
_chemical_name_systematic        
'catena-(tetrakis(\m~3~-Fluoro)-bis(\m~3~-pyridine-4-carboxylato)-tri-zinc methanol solvate monohydrate)'
_symmetry_cell_setting           monoclinic
_symmetry_space_group_name_H-M   'C 2/c'
_symmetry_Int_Tables_number      15
_space_group_name_Hall           '-C 2yc'
loop_
_symmetry_equiv_pos_site_id
_symmetry_equiv_pos_as_xyz
1 x,y,z
2 -x,y,1/2-z
3 1/2+x,1/2+y,z
4 1/2-x,1/2+y,1/2-z
5 -x,-y,-z
6 x,-y,1/2+z
7 1/2-x,1/2-y,-z
8 1/2+x,1/2-y,1/2+z
_cell_length_a                   19.1119(17)
_cell_length_b                   13.4938(12)
_cell_length_c                   8.1471(13)
_cell_angle_alpha                90
_cell_angle_beta                 108.14
_cell_angle_gamma                90
_cell_volume                     1996.65
_cell_formula_units_Z            4
loop_
_atom_site_label
_atom_site_type_symbol
_atom_site_fract_x
_atom_site_fract_y
_atom_site_fract_z
O3 O 1.0000 0.7726(3) 0.2500
Zn1 Zn -0.5000 0.63198(3) 0.2500
Zn2 Zn -0.410800(16) 0.48943(2) 0.56313(4)
C1 C -0.17915(17) 0.8373(2) 0.2693(4)
H1 H -0.1379 0.8270 0.2340
C2 C -0.24135(17) 0.9310(2) 0.4124(5)
H2 H -0.2434 0.9862 0.4791
C3 C -0.30037(17) 0.8666(2) 0.3680(5)
H3 H -0.3413 0.8788 0.4035
C4 C -0.23548(17) 0.7692(2) 0.2222(4)
H4 H -0.2315 0.7136 0.1582
C5 C -0.29788(15) 0.7838(2) 0.2703(4)
C6 C -0.36047(15) 0.7093(2) 0.2195(4)
F1 F -0.49084(9) 0.59968(14) 0.4950(2)
F2 F -0.42013(9) 0.50543(12) 0.3086(2)
N1 N -0.18121(13) 0.91753(18) 0.3635(3)
O1 O -0.41314(11) 0.72419(15) 0.2780(3)
O2 O -0.35262(11) 0.63951(15) 0.1247(3)
Zn2A Zn -0.589200(16) 0.48943(2) -0.06313(4)
Zn2D Zn -0.589200(16) 0.51057(2) 0.43687(4)
Zn2E Zn -0.410800(16) 0.51057(2) 0.06313(4)
Zn2F Zn -0.089200(16) 1.01057(2) 0.43687(4)
Zn2G Zn -0.910800(16) 1.01057(2) 0.06313(4)
C1A C -0.82085(17) 0.8373(2) 0.2307(4)
H1A H -0.8621 0.8270 0.2660
C2A C -0.75865(17) 0.9310(2) 0.0876(5)
H2A H -0.7566 0.9862 0.0209
C3A C -0.69963(17) 0.8666(2) 0.1320(5)
H3A H -0.6587 0.8788 0.0965
C4A C -0.76452(17) 0.7692(2) 0.2778(4)
H4A H -0.7685 0.7136 0.3418
C5A C -0.70212(15) 0.7838(2) 0.2297(4)
C6A C -0.63953(15) 0.7093(2) 0.2805(4)
F1A F -0.50916(9) 0.59968(14) 0.0050(2)
F1D F -0.50916(9) 0.40032(14) 0.5050(2)
F1E F -0.49084(9) 0.40032(14) -0.0050(2)
F2A F -0.57987(9) 0.50543(12) 0.1914(2)
F2E F -0.42013(9) 0.49457(12) 0.8086(2)
F2D F -0.57987(9) 0.49457(12) -0.3086(2)
N1A N -0.81879(13) 0.91753(18) 0.1365(3)
N1F N -0.31879(13) 0.58247(18) 0.6365(3)
N1G N -0.68121(13) 0.58247(18) -0.1365(3)
O1A O -0.58686(11) 0.72419(15) 0.2220(3)
O2A O -0.64738(11) 0.63951(15) 0.3753(3)
O2E O -0.35262(11) 0.36049(15) 0.6247(3)
O2D O -0.64738(11) 0.36049(15) -0.1247(3)
H5? H 0.9902 0.8024 0.1535
H6? H 0.9596 0.7526 0.2614
O4? O 1.0000 0.630(2) 0.2500
H7? H 0.9809 0.6652 0.3119
C7? C 1.0744(7) 0.6036(18) 0.288(7)
H8? H 1.0898 0.5828 0.4068
H9? H 1.1032 0.6596 0.2754
H10? H 1.0812 0.5503 0.2168
loop_
_geom_bond_atom_site_label_1
_geom_bond_atom_site_label_2
_geom_bond_site_symmetry_1
_geom_bond_site_symmetry_2
Zn1 F1 1_555 1_555
Zn2 F1 1_555 1_555
C1 H1 1_555 1_555
C2 H2 1_555 1_555
C3 C2 1_555 1_555
H3 C3 1_555 1_555
C4 C1 1_555 1_555
H4 C4 1_555 1_555
C5 C3 1_555 1_555
C6 C5 1_555 1_555
F1 Zn2D 1_555 1_555
F2 Zn1 1_555 1_555
N1 C1 1_555 1_555
O1 Zn1 1_555 1_555
O2 C6 1_555 1_555
Zn2A F1A 1_555 1_555
Zn2D F1D 1_555 1_555
Zn2E F2 1_555 1_555
Zn2F N1 1_555 1_555
Zn2G N1A 1_555 1_555
C1A H1A 1_555 1_555
C2A H2A 1_555 1_555
C3A C2A 1_555 1_555
H3A C3A 1_555 1_555
C4A C1A 1_555 1_555
H4A C4A 1_555 1_555
C5A C3A 1_555 1_555
C6A C5A 1_555 1_555
F1A Zn1 1_555 1_555
F1D Zn2 1_555 1_555
F1E Zn2A 1_555 1_555
F2A Zn1 1_555 1_555
F2E Zn2 1_555 1_555
F2D Zn2A 1_555 1_555
N1A C1A 1_555 1_555
N1F Zn2 1_555 1_555
N1G Zn2A 1_555 1_555
O1A Zn1 1_555 1_555
O2A Zn2D 1_555 1_555
O2E Zn2 1_555 1_555
O2D Zn2A 1_555 1_555
Zn2 F2 1_555 1_555
C2 N1 1_555 1_555
C4 C5 1_555 1_555
C6 O1 1_555 1_555
O2 Zn2E 1_555 1_555
Zn2A F2A 1_555 1_555
Zn2D F2A 1_555 1_555
Zn2E F1A 1_555 1_555
Zn2E F1E 1_555 1_555
C2A N1A 1_555 1_555
C4A C5A 1_555 1_555
C6A O1A 1_555 1_555
C6A O2A 1_555 1_555

#END
