
#######################################################################
#
#                 Cambridge Crystallographic Data Centre
#                                CCDC 
#
#######################################################################
#
# If this CIF has been generated from an entry in the Cambridge 
# Structural Database, then it will include bibliographic, chemical, 
# crystal, experimental, refinement or atomic coordinate data resulting 
# from the CCDC's data processing and validation procedures.
#
#######################################################################

data_YEGKOM
_chemical_formula_moiety         '(C4 H6 N8 Zn1)n,0.19n(C1 H4 O1),3.61n(H2 O1)'
_chemical_name_systematic        
'catena-(bis(\m~2~-3-amino-1,2,4-triazole)-zinc methanol clathrate hydrate)'
_symmetry_cell_setting           tetragonal
_symmetry_space_group_name_H-M   'P 43 21 2'
_symmetry_Int_Tables_number      96
_space_group_name_Hall           'P 4nw 2abw'
loop_
_symmetry_equiv_pos_site_id
_symmetry_equiv_pos_as_xyz
1 x,y,z
2 -x,-y,1/2+z
3 1/2-y,1/2+x,3/4+z
4 1/2+y,1/2-x,1/4+z
5 1/2-x,1/2+y,3/4-z
6 1/2+x,1/2-y,1/4-z
7 y,x,-z
8 -y,-x,1/2-z
_cell_length_a                   10.2040(15)
_cell_length_b                   10.2040(15)
_cell_length_c                   13.0998(18)
_cell_angle_alpha                90
_cell_angle_beta                 90
_cell_angle_gamma                90
_cell_volume                     1363.97
_exptl_crystal_colour            colorless
_exptl_crystal_description       block
_cell_formula_units_Z            4
loop_
_atom_site_label
_atom_site_type_symbol
_atom_site_fract_x
_atom_site_fract_y
_atom_site_fract_z
_atom_site_U_iso_or_equiv
_atom_site_thermal_displace_type
O1 O 0.347(5) -0.477(4) 0.764(3) 0.1533 Uani
C3 C 0.225(5) -0.434(4) 0.777(5) 0.1060 Uiso
H5 H 0.1955 -0.4560 0.8453 0.1270 Uiso
H6 H 0.1678 -0.4769 0.7285 0.1270 Uiso
C4 C 0.220(4) -0.291(4) 0.762(5) 0.1050 Uiso
H7 H 0.1294 -0.2717 0.7764 0.1580 Uiso
O1G O 0.477(4) -0.347(5) 0.736(3) 0.1533 Uani
C3G C 0.434(4) -0.225(5) 0.723(5) 0.1060 Uiso
H5G H 0.4560 -0.1955 0.6547 0.1270 Uiso
H6G H 0.4769 -0.1678 0.7715 0.1270 Uiso
C4G C 0.291(4) -0.220(4) 0.738(5) 0.1050 Uiso
H7G H 0.2717 -0.1294 0.7236 0.1580 Uiso
Zn1 Zn 0.26969(16) 0.26969(16) 0.5000 0.0427 Uani
N1 N 0.2741(17) 0.452(2) 0.4423(11) 0.0903 Uani
C1 C 0.2287(13) 0.509(2) 0.3598(10) 0.0823 Uani
N2 N 0.2526(19) 0.6333(16) 0.3496(10) 0.0930 Uani
N3 N 0.3257(19) 0.663(3) 0.4391(14) 0.1427 Uani
C2 C 0.3351(19) 0.554(2) 0.4902(19) 0.1220 Uani
H1 H 0.3785 0.5468 0.5524 0.1460 Uiso
N4 N 0.1586(19) 0.446(3) 0.2859(17) 0.1567 Uani
H2 H 0.1309 0.4885 0.2335 0.1880 Uiso
H3 H 0.1421 0.3638 0.2919 0.1880 Uiso
Zn1B Zn 0.23031(16) 0.76969(16) 0.2500 0.0427 Uani
Zn1C Zn -0.23031(16) 0.23031(16) 0.7500 0.0427 Uani
N1C N -0.048(2) 0.2259(17) 0.6923(11) 0.0903 Uani
N1F N 0.452(2) 0.2741(17) 0.5577(11) 0.0903 Uani
C1C C 0.009(2) 0.2713(13) 0.6098(10) 0.0823 Uani
N2C N 0.1333(16) 0.2474(19) 0.5996(10) 0.0930 Uani
N2D N 0.2474(19) 0.1333(16) 0.4004(10) 0.0930 Uani
N3C N 0.163(3) 0.1743(19) 0.6891(14) 0.1427 Uani
C2C C 0.054(2) 0.1649(19) 0.7402(19) 0.1220 Uani
H1C H 0.0468 0.1215 0.8024 0.1460 Uiso
N4C N -0.054(3) 0.3414(19) 0.5359(17) 0.1567 Uani
H2C H -0.0115 0.3691 0.4835 0.1880 Uiso
H3C H -0.1362 0.3579 0.5419 0.1880 Uiso
H4? H 0.4196 -0.4044 0.7502 0.2330 Uiso
H8? H 0.2745 -0.2438 0.8091 0.1580 Uiso
H9? H 0.2403 -0.2656 0.6937 0.1580 Uiso
loop_
_atom_site_aniso_label
_atom_site_aniso_U_11
_atom_site_aniso_U_22
_atom_site_aniso_U_33
_atom_site_aniso_U_23
_atom_site_aniso_U_13
_atom_site_aniso_U_12
O1 0.29 0.12 0.05 -0.02 0 -0.02
O1G 0.12(3) 0.29(6) 0.05(2) 0.00(3) -0.02(2) -0.02(3)
Zn1 0.0491(9) 0.0491(9) 0.0298(10) 0.0043(8) -0.0043(8) -0.0130(10)
N1 0.061 0.164 0.046 0.015 -0.011 0.006
C1 0.056 0.154 0.037 0.016 -0.016 0.011
N2 0.079 0.153 0.047 0.06 -0.001 0.008
N3 0.15 0.2 0.078 0.006 -0.048 -0.015
C2 0.14 0.16 0.066 -0.024 -0.04 0.005
N4 0.12 0.23 0.12 -0.055 -0.073 -0.044
Zn1B 0.0491 0.0491 0.0298 -0.0043 -0.0043 0.013
Zn1C 0.0491 0.0491 0.0298 0.0043 0.0043 0.013
N1C 0.164 0.061 0.046 0.011 0.015 -0.006
N1F 0.164(17) 0.061(10) 0.046(8) 0.011(8) -0.015(10) 0.006(12)
C1C 0.154 0.056 0.037 0.016 0.016 -0.011
N2C 0.153 0.079 0.047 0.001 0.06 -0.008
N2D 0.079 0.153 0.047 -0.06 -0.001 -0.008
N3C 0.2 0.15 0.078 0.048 0.006 0.015
C2C 0.16 0.14 0.066 0.04 -0.024 -0.005
N4C 0.23 0.12 0.12 0.073 -0.055 0.044
loop_
_geom_bond_atom_site_label_1
_geom_bond_atom_site_label_2
_geom_bond_site_symmetry_1
_geom_bond_site_symmetry_2
Zn1 N1 1_555 1_555
N1 C1 1_555 1_555
C1 N2 1_555 1_555
N2 N3 1_555 1_555
N3 C2 1_555 1_555
C2 N1 1_555 1_555
H1 C2 1_555 1_555
N4 C1 1_555 1_555
H2 N4 1_555 1_555
H3 N4 1_555 1_555
O1 C3 1_555 1_555
C3 H5 1_555 1_555
H6 C3 1_555 1_555
C4 C3 1_555 1_555
H7 C4 1_555 1_555
Zn1B N2 1_555 1_555
Zn1C N1C 1_555 1_555
N1C C1C 1_555 1_555
N1F Zn1 1_555 1_555
C1C N2C 1_555 1_555
N2C Zn1 1_555 1_555
N2D Zn1 1_555 1_555
N3C N2C 1_555 1_555
C2C N1C 1_555 1_555
H1C C2C 1_555 1_555
N4C C1C 1_555 1_555
H2C N4C 1_555 1_555
H3C N4C 1_555 1_555
O1G C3G 1_555 1_555
C3G H5G 1_555 1_555
H6G C3G 1_555 1_555
C4G C4 1_555 1_555
H7G C4G 1_555 1_555
N3C C2C 1_555 1_555
C3G C4G 1_555 1_555

#END
