
#######################################################################
#
#                 Cambridge Crystallographic Data Centre
#                                CCDC 
#
#######################################################################
#
# If this CIF has been generated from an entry in the Cambridge 
# Structural Database, then it will include bibliographic, chemical, 
# crystal, experimental, refinement or atomic coordinate data resulting 
# from the CCDC's data processing and validation procedures.
#
#######################################################################

data_PEVTUG
_chemical_formula_moiety         
'(C24 H28 Cu1 N4 O2 2+)n,2n(F6 P1 1-),3n(C4 H8 O1),2n(H2 O1)'
_chemical_name_systematic        
'catena-(bis((\m~2~-1,2,-bis(4-Pyridyl)ethane)-(aqua))-copper(ii) bis(hexafluorophosphate) tetrahydrofuran solvate dihydrate)'
_symmetry_cell_setting           monoclinic
_symmetry_space_group_name_H-M   'C c'
_symmetry_Int_Tables_number      9
_space_group_name_Hall           'C -2yc'
loop_
_symmetry_equiv_pos_site_id
_symmetry_equiv_pos_as_xyz
1 x,y,z
2 x,-y,1/2+z
3 1/2+x,1/2+y,z
4 1/2+x,1/2-y,1/2+z
_cell_length_a                   28.5558(15)
_cell_length_b                   9.5987(7)
_cell_length_c                   16.9060(9)
_cell_angle_alpha                90
_cell_angle_beta                 107.974(3)
_cell_angle_gamma                90
_cell_volume                     4407.76
_exptl_crystal_colour            'sky blue'
_exptl_crystal_description       prism
_cell_formula_units_Z            4
loop_
_atom_site_label
_atom_site_type_symbol
_atom_site_fract_x
_atom_site_fract_y
_atom_site_fract_z
Cu1 Cu 0.12694(11) 0.44416(8) 0.27263(12)
O1 O 0.1331(3) 0.4393(7) 0.1229(5)
O2 O 0.1163(2) 0.4534(5) 0.4039(4)
N1 N 0.1797(2) 0.2907(8) 0.3059(4)
N2 N 0.1811(2) -0.4115(10) 0.3042(5)
N3 N 0.0760(2) 0.5988(5) 0.2289(4)
N4 N 0.0737(2) 1.2968(7) 0.2376(4)
C1 C 0.2146(3) 0.2920(13) 0.3800(6)
C2 C 0.2526(4) 0.2047(13) 0.4001(11)
C3 C 0.2562(3) 0.1054(12) 0.3400(13)
C4 C 0.2204(4) 0.0945(10) 0.2707(11)
C5 C 0.1815(3) 0.1904(8) 0.2529(5)
C6 C 0.3024(6) 0.0100(16) 0.3395(11)
C8 C 0.1802(3) -0.3082(9) 0.3600(5)
C9 C 0.2169(3) -0.2077(9) 0.3864(6)
C10 C 0.2572(2) -0.2175(10) 0.3564(8)
C11 C 0.2579(2) -0.3220(10) 0.2985(6)
C12 C 0.2186(3) -0.4150(10) 0.2742(6)
C13 C 0.3030(6) -0.1153(17) 0.3936(10)
C14 C 0.0835(3) 0.7015(9) 0.1807(5)
C15 C 0.0481(3) 0.7956(8) 0.1407(5)
C16 C 0.0028(3) 0.7894(7) 0.1503(5)
C17 C -0.0060(2) 0.6866(6) 0.2023(5)
C18 C 0.0319(3) 0.5909(7) 0.2397(5)
C19 C -0.0393(3) 0.8910(7) 0.1083(6)
C20 C 0.0396(3) 1.3038(7) 0.1605(5)
C21 C 0.0021(3) 1.2084(8) 0.1366(5)
C22 C -0.0031(2) 1.1046(6) 0.1893(5)
C23 C 0.0335(3) 1.0924(9) 0.2668(5)
C24 C 0.0701(3) 1.1935(8) 0.2874(5)
C25 C -0.0447(2) 1.0061(7) 0.1638(6)
H1 H 0.2121 0.3590 0.4199
H2 H 0.2766 0.2086 0.4535
H3 H 0.2203 0.0224 0.2322
H4 H 0.1558 0.1844 0.2015
H5 H 0.2984 -0.0198 0.2842
H6 H 0.3326 0.0593 0.3602
H7 H 0.1532 -0.3051 0.3814
H8 H 0.2142 -0.1350 0.4229
H9 H 0.2845 -0.3281 0.2762
H10 H 0.2190 -0.4845 0.2344
H11 H 0.3036 -0.0835 0.4471
H12 H 0.3322 -0.1667 0.3981
H13 H 0.1152 0.7102 0.1741
H14 H 0.0549 0.8649 0.1057
H15 H -0.0369 0.6810 0.2123
H16 H 0.0258 0.5191 0.2739
H17 H -0.0316 0.9328 0.0628
H18 H -0.0693 0.8407 0.0883
H19 H 0.0422 1.3747 0.1228
H20 H -0.0209 1.2147 0.0825
H21 H 0.0329 1.0178 0.3034
H22 H 0.0942 1.1875 0.3406
H23 H -0.0480 0.9640 0.2127
H24 H -0.0739 1.0564 0.1365
Cu1_2 Cu 0.12694(11) -0.55584(8) 0.27263(12)
Cu1_3 Cu 0.12694(11) 1.44416(8) 0.27263(12)
N2_2 N 0.1811(2) 0.5885(10) 0.3042(5)
N4_2 N 0.0737(2) 0.2968(7) 0.2376(4)
P1 P 0.37235(12) 0.9272(2) 0.1539(2)
F1 F 0.3693(4) 0.8055(9) 0.0869(6)
F2 F 0.3766(3) 1.0484(9) 0.2205(5)
F3 F 0.3152(2) 0.9530(9) 0.1071(6)
F4 F 0.4293(2) 0.8943(10) 0.1966(6)
F5 F 0.3569(3) 0.8182(9) 0.2161(6)
F6 F 0.3854(2) 1.0351(9) 0.0933(4)
P2 P 0.11134(13) 0.9307(2) 0.4978(2)
F7 F 0.1687(7) 0.888(2) 0.5298(14)
F9 F 0.0999(7) 0.7609(16) 0.5010(14)
F13 F 0.0752(5) 1.0574(10) 0.4709(8)
F14 F 0.1412(7) 1.015(2) 0.5819(9)
F16 F 0.1138(5) 1.0928(10) 0.4949(8)
F18 F 0.0485(5) 0.9489(18) 0.4712(12)
O3 O 0.0218(3) 0.4480(10) 0.4115(6)
C26 C -0.0015(5) 0.5670(15) 0.4348(9)
C27 C -0.0392(7) 0.5118(18) 0.4801(10)
C28 C -0.0544(3) 0.3766(8) 0.4271(6)
C29 C -0.0095(4) 0.3286(11) 0.4045(8)
H25 H 0.0226 0.6254 0.4710
H26 H -0.0192 0.6181 0.3868
H27 H -0.0230 0.4913 0.5370
H28 H -0.0656 0.5744 0.4759
H29 H -0.0644 0.3068 0.4584
H30 H -0.0809 0.3971 0.3785
H31 H -0.0191 0.2941 0.3491
H32 H 0.0074 0.2575 0.4415
O4 O 0.2697(6) 0.4763(19) 0.1263(10)
C30 C 0.3082(7) 0.5504(19) 0.1048(14)
C31 C 0.3170(16) 0.453(4) 0.052(2)
C32 C 0.3198(11) 0.324(3) 0.085(2)
C33 C 0.2715(10) 0.311(3) 0.1109(19)
H33 H 0.2971 0.6363 0.0776
H34 H 0.3362 0.5664 0.1518
H35 H 0.2909 0.4556 0.0006
H36 H 0.3472 0.4734 0.0417
H37 H 0.3196 0.2555 0.0441
H38 H 0.3486 0.3131 0.1312
H39 H 0.2759 0.2573 0.1600
H40 H 0.2436 0.2772 0.0683
O5 O 0.4305(2) 0.3599(6) 0.4446(4)
C34 C 0.3832(3) 0.3197(9) 0.4029(5)
C35 C 0.3566(3) 0.3947(9) 0.3390(6)
C36 C 0.3953(3) 0.5450(8) 0.3507(6)
C37 C 0.4395(3) 0.4430(8) 0.3839(6)
H41 H 0.3848 0.2275 0.3835
H42 H 0.3660 0.3193 0.4428
H43 H 0.3528 0.3484 0.2877
H44 H 0.3251 0.4167 0.3435
H45 H 0.3938 0.5914 0.3003
H46 H 0.3915 0.6111 0.3901
H47 H 0.4688 0.4951 0.4069
H48 H 0.4426 0.3871 0.3395
O6 O 0.1746(7) 0.648(2) 0.0549(12)
O7 O 0.2245(6) 0.864(2) 0.1123(11)
F8? F 0.1507(6) 0.8010(17) 0.5199(9)
F10? F 0.0865(8) 0.8454(15) 0.4157(10)
F11? F 0.1083(9) 0.918(2) 0.4063(8)
F12? F 0.1108(12) 0.935(3) 0.5934(13)
F15? F 0.0812(5) 0.869(2) 0.5494(10)
F17? F 0.1470(5) 1.0102(14) 0.4481(8)
C7? C 0.2950(8) 0.003(2) 0.4023(15)
loop_
_geom_bond_atom_site_label_1
_geom_bond_atom_site_label_2
_geom_bond_site_symmetry_1
_geom_bond_site_symmetry_2
Cu1 O1 1_555 1_555
P1 F1 1_555 1_555
P2 F7 1_555 1_555
F2 P1 1_555 1_555
F3 P1 1_555 1_555
F4 P1 1_555 1_555
F5 P1 1_555 1_555
F6 P1 1_555 1_555
F9 P2 1_555 1_555
F13 P2 1_555 1_555
F14 P2 1_555 1_555
F16 P2 1_555 1_555
F18 P2 1_555 1_555
O2 Cu1 1_555 1_555
O3 C26 1_555 1_555
O4 C30 1_555 1_555
O5 C34 1_555 1_555
N1 Cu1 1_555 1_555
N2 C8 1_555 1_555
N3 Cu1 1_555 1_555
N4 C20 1_555 1_555
C1 N1 1_555 1_555
C2 C1 1_555 1_555
C3 C2 1_555 1_555
C4 C3 1_555 1_555
C5 N1 1_555 1_555
C6 C3 1_555 1_555
C8 C9 1_555 1_555
C9 C10 1_555 1_555
C10 C11 1_555 1_555
C11 C12 1_555 1_555
C12 N2 1_555 1_555
C13 C6 1_555 1_555
C14 N3 1_555 1_555
C15 C14 1_555 1_555
C16 C15 1_555 1_555
C17 C16 1_555 1_555
C18 N3 1_555 1_555
C19 C16 1_555 1_555
C20 C21 1_555 1_555
C21 C22 1_555 1_555
C22 C23 1_555 1_555
C23 C24 1_555 1_555
C24 N4 1_555 1_555
C25 C19 1_555 1_555
C26 C27 1_555 1_555
C27 C28 1_555 1_555
C28 C29 1_555 1_555
C29 O3 1_555 1_555
C30 C31 1_555 1_555
C31 C32 1_555 1_555
C32 C33 1_555 1_555
C33 O4 1_555 1_555
C34 C35 1_555 1_555
C35 C36 1_555 1_555
C36 C37 1_555 1_555
C37 O5 1_555 1_555
H1 C1 1_555 1_555
H2 C2 1_555 1_555
H3 C4 1_555 1_555
H4 C5 1_555 1_555
H5 C6 1_555 1_555
H6 C6 1_555 1_555
H7 C8 1_555 1_555
H8 C9 1_555 1_555
H9 C11 1_555 1_555
H10 C12 1_555 1_555
H11 C13 1_555 1_555
H12 C13 1_555 1_555
H13 C14 1_555 1_555
H14 C15 1_555 1_555
H15 C17 1_555 1_555
H16 C18 1_555 1_555
H17 C19 1_555 1_555
H18 C19 1_555 1_555
H19 C20 1_555 1_555
H20 C21 1_555 1_555
H21 C23 1_555 1_555
H22 C24 1_555 1_555
H23 C25 1_555 1_555
H24 C25 1_555 1_555
H25 C26 1_555 1_555
H26 C26 1_555 1_555
H27 C27 1_555 1_555
H28 C27 1_555 1_555
H29 C28 1_555 1_555
H30 C28 1_555 1_555
H31 C29 1_555 1_555
H32 C29 1_555 1_555
H33 C30 1_555 1_555
H34 C30 1_555 1_555
H35 C31 1_555 1_555
H36 C31 1_555 1_555
H37 C32 1_555 1_555
H38 C32 1_555 1_555
H39 C33 1_555 1_555
H40 C33 1_555 1_555
H41 C34 1_555 1_555
H42 C34 1_555 1_555
H43 C35 1_555 1_555
H44 C35 1_555 1_555
H45 C36 1_555 1_555
H46 C36 1_555 1_555
H47 C37 1_555 1_555
H48 C37 1_555 1_555
Cu1_2 N2 1_555 1_555
Cu1_3 N4 1_555 1_555
N2_2 Cu1 1_555 1_555
N4_2 Cu1 1_555 1_555
C4 C5 1_555 1_555
C10 C13 1_555 1_555
C17 C18 1_555 1_555
C22 C25 1_555 1_555

#END
