
#######################################################################
#
#                 Cambridge Crystallographic Data Centre
#                                CCDC 
#
#######################################################################
#
# If this CIF has been generated from an entry in the Cambridge 
# Structural Database, then it will include bibliographic, chemical, 
# crystal, experimental, refinement or atomic coordinate data resulting 
# from the CCDC's data processing and validation procedures.
#
#######################################################################

data_NAFWEY
_chemical_formula_moiety         '(C26 H24 N2 O4 Zn1)n,n(C3 H7 N1 O1),2n(H2 O1)'
_chemical_name_systematic        
"catena-[(\m~4~-1,1':4',1''-Terphenyl-3,3''-dicarboxylato)-(1,4-diazabicyclo[2.2.2]octane-N)-zinc(ii) dimethylformamide solvate dihydrate]"
_symmetry_cell_setting           monoclinic
_symmetry_space_group_name_H-M   'C 2/m'
_symmetry_Int_Tables_number      12
_space_group_name_Hall           '-C 2y'
loop_
_symmetry_equiv_pos_site_id
_symmetry_equiv_pos_as_xyz
1 x,y,z
2 -x,y,-z
3 1/2+x,1/2+y,z
4 1/2-x,1/2+y,-z
5 -x,-y,-z
6 x,-y,z
7 1/2-x,1/2-y,-z
8 1/2+x,1/2-y,z
_cell_length_a                   9.8933(12)
_cell_length_b                   18.1647(15)
_cell_length_c                   13.4537(16)
_cell_angle_alpha                90
_cell_angle_beta                 94.792(4)
_cell_angle_gamma                90
_cell_volume                     2409.3
_exptl_crystal_colour            colorless
_exptl_crystal_description       plate
_cell_formula_units_Z            4
loop_
_atom_site_label
_atom_site_type_symbol
_atom_site_fract_x
_atom_site_fract_y
_atom_site_fract_z
_atom_site_U_iso_or_equiv
_atom_site_thermal_displace_type
Zn1 Zn 0.10207(13) 0.5000 0.58904(10) 0.0396 Uani
O1 O 0.1588(7) 0.5792(3) 0.4925(5) 0.0545 Uani
O2 O 0.0190(6) 0.5764(3) 0.3509(5) 0.0503 Uani
N1 N 0.2818(15) 0.5000 0.6762(9) 0.0678 Uani
N2 N 0.5138(19) 0.5000 0.7851(16) 0.1098 Uani
C1 C 0.1267(8) 0.5984(4) 0.4032(7) 0.0428 Uani
C2 C 0.2133(8) 0.6527(5) 0.3572(6) 0.0446 Uani
C3 C 0.3143(10) 0.6894(5) 0.4173(7) 0.0539 Uani
H1 H 0.3287 0.6781 0.4864 0.0650 Uiso
C4 C 0.3932(10) 0.7422(6) 0.3754(7) 0.0629 Uani
H2 H 0.4584 0.7689 0.4169 0.0750 Uiso
C5 C 0.3785(10) 0.7565(5) 0.2739(7) 0.0559 Uani
H3 H 0.4349 0.7921 0.2461 0.0670 Uiso
C6 C 0.2805(8) 0.7187(4) 0.2121(6) 0.0459 Uani
C7 C 0.1984(8) 0.6660(5) 0.2548(6) 0.0452 Uani
H4 H 0.1326 0.6395 0.2136 0.0540 Uiso
C8 C 0.2644(8) 0.7347(5) 0.1032(6) 0.0438 Uani
C9 C 0.3025(13) 0.4339(6) 0.7370(11) 0.0889 Uani
H5 H 0.2987 0.3903 0.6927 0.1070 Uiso
H6 H 0.2277 0.4296 0.7811 0.1070 Uiso
C10 C 0.4428(14) 0.4337(9) 0.8033(12) 0.1076 Uani
H7 H 0.4265 0.4303 0.8748 0.1290 Uiso
H8 H 0.4976 0.3906 0.7862 0.1290 Uiso
C11 C 0.4016(19) 0.5000 0.6122(15) 0.0910 Uani
H9 H 0.3955 0.5440 0.5687 0.1100 Uiso
C12 C 0.5455(19) 0.5000 0.675(2) 0.1120 Uani
H10 H 0.5983 0.4557 0.6602 0.1360 Uiso
C13 C 0.2398(18) 0.6784(10) 0.0333(12) 0.0490 Uiso
H11 H 0.2323 0.6290 0.0550 0.0590 Uiso
C14 C 0.2736(17) 0.8057(9) 0.0662(12) 0.0450 Uiso
H12 H 0.2901 0.8449 0.1123 0.0550 Uiso
Zn1A Zn -0.10207(13) 0.5000 0.41096(10) 0.0396 Uani
Zn1C Zn 0.39793(13) 1.0000 -0.58904(10) 0.0396 Uani
Zn1B Zn 0.60207(13) 1.0000 -0.41096(10) 0.0396 Uani
O1F O 0.3412(7) 0.9208(3) -0.4925(5) 0.0545 Uani
O1E O 0.1588(7) 0.4208(3) 0.4925(5) 0.0545 Uani
O2F O 0.4810(6) 0.9236(3) -0.3509(5) 0.0503 Uani
O2A O -0.0190(6) 0.5764(3) 0.6491(5) 0.0503 Uani
O2D O -0.0190(6) 0.4236(3) 0.6491(5) 0.0503 Uani
C1F C 0.3733(8) 0.9016(4) -0.4032(7) 0.0428 Uani
C2F C 0.2867(8) 0.8473(5) -0.3572(6) 0.0446 Uani
C3F C 0.1857(10) 0.8106(5) -0.4173(7) 0.0539 Uani
H1F H 0.1713 0.8219 -0.4864 0.0650 Uiso
C4F C 0.1068(10) 0.7578(6) -0.3754(7) 0.0629 Uani
H2F H 0.0416 0.7311 -0.4169 0.0750 Uiso
C5F C 0.1215(10) 0.7435(5) -0.2739(7) 0.0559 Uani
H3F H 0.0651 0.7079 -0.2461 0.0670 Uiso
C6F C 0.2195(8) 0.7813(4) -0.2121(6) 0.0459 Uani
C7F C 0.3016(8) 0.8340(5) -0.2548(6) 0.0452 Uani
H4F H 0.3674 0.8605 -0.2136 0.0540 Uiso
C8F C 0.2356(8) 0.7653(5) -0.1032(6) 0.0438 Uani
C9E C 0.3025(13) 0.5661(6) 0.7370(11) 0.0889 Uani
H5E H 0.2987 0.6097 0.6927 0.1070 Uiso
H6E H 0.2277 0.5704 0.7811 0.1070 Uiso
C10E C 0.4428(14) 0.5663(9) 0.8033(12) 0.1076 Uani
H7E H 0.4265 0.5697 0.8748 0.1290 Uiso
H8E H 0.4976 0.6094 0.7862 0.1290 Uiso
H9E H 0.3955 0.4560 0.5687 0.1100 Uiso
H10E H 0.5983 0.5443 0.6602 0.1360 Uiso
C13F C 0.2602(18) 0.8216(10) -0.0333(12) 0.0490 Uiso
H11F H 0.2677 0.8710 -0.0550 0.0590 Uiso
C14F C 0.2264(17) 0.6943(9) -0.0662(12) 0.0450 Uiso
H12F H 0.2099 0.6551 -0.1123 0.0550 Uiso
C15? C 0.378(2) 0.7485(10) 0.0497(13) 0.0500 Uiso
C16? C 0.139(2) 0.7368(10) 0.0489(14) 0.0570 Uiso
H13? H 0.4661 0.7474 0.0831 0.0600 Uiso
H14? H 0.0603 0.7273 0.0829 0.0680 Uiso
loop_
_atom_site_aniso_label
_atom_site_aniso_U_11
_atom_site_aniso_U_22
_atom_site_aniso_U_33
_atom_site_aniso_U_23
_atom_site_aniso_U_13
_atom_site_aniso_U_12
Zn1 0.0354(7) 0.0357(7) 0.0478(8) 0.000 0.0033(5) 0.000
O1 0.052(4) 0.054(3) 0.059(4) 0.009(3) 0.014(3) -0.003(3)
O2 0.042(3) 0.039(3) 0.071(4) 0.004(3) 0.012(3) -0.002(3)
N1 0.085(9) 0.045(6) 0.071(8) 0.000 -0.007(7) 0.000
N2 0.079(11) 0.116(14) 0.135(16) 0.000 0.012(11) 0.000
C1 0.040(4) 0.024(3) 0.066(6) 0.003(3) 0.014(4) 0.004(3)
C2 0.038(4) 0.045(4) 0.051(5) -0.001(3) 0.005(4) 0.005(4)
C3 0.064(6) 0.047(5) 0.051(5) 0.008(4) 0.006(4) -0.011(4)
C4 0.039(5) 0.082(7) 0.066(6) -0.002(5) -0.006(4) -0.012(5)
C5 0.053(6) 0.056(5) 0.059(5) 0.007(4) 0.006(4) -0.022(4)
C6 0.036(4) 0.045(4) 0.056(5) 0.007(4) 0.000(4) -0.009(4)
C7 0.032(4) 0.046(4) 0.057(5) -0.006(4) 0.001(3) 0.006(3)
C8 0.037(4) 0.047(5) 0.047(5) 0.000(3) 0.001(4) -0.005(4)
C9 0.066(8) 0.065(7) 0.132(11) 0.016(7) -0.013(7) -0.006(6)
C10 0.071(8) 0.118(11) 0.129(12) 0.040(9) -0.020(8) -0.006(8)
C11 0.078(12) 0.097(13) 0.105(14) 0.000 0.049(11) 0.000
C12 0.050(10) 0.097(14) 0.19(3) 0.000 0.016(13) 0.000
Zn1A 0.0354 0.0357 0.0478 0 0.0033 0
Zn1C 0.0354 0.0357 0.0478 0 0.0033 0
Zn1B 0.0354 0.0357 0.0478 0 0.0033 0
O1F 0.052 0.054 0.059 0.009 0.014 -0.003
O1E 0.052 0.054 0.059 -0.009 0.014 0.003
O2F 0.042 0.039 0.071 0.004 0.012 -0.002
O2A 0.042 0.039 0.071 -0.004 0.012 0.002
O2D 0.042 0.039 0.071 0.004 0.012 -0.002
C1F 0.04 0.024 0.066 0.003 0.014 0.004
C2F 0.038 0.045 0.051 -0.001 0.005 0.005
C3F 0.064 0.047 0.051 0.008 0.006 -0.011
C4F 0.039 0.082 0.066 -0.002 -0.006 -0.012
C5F 0.053 0.056 0.059 0.007 0.006 -0.022
C6F 0.036 0.045 0.056 0.007 0 -0.009
C7F 0.032 0.046 0.057 -0.006 0.001 0.006
C8F 0.037 0.047 0.047 0 0.001 -0.005
C9E 0.066 0.065 0.132 -0.016 -0.013 0.006
C10E 0.071 0.118 0.129 -0.04 -0.02 0.006
loop_
_geom_bond_atom_site_label_1
_geom_bond_atom_site_label_2
_geom_bond_site_symmetry_1
_geom_bond_site_symmetry_2
Zn1 O1 1_555 1_555
O1 C1 1_555 1_555
O2 C1 1_555 1_555
N1 Zn1 1_555 1_555
N2 C10 1_555 1_555
C1 C2 1_555 1_555
C2 C3 1_555 1_555
C3 H1 1_555 1_555
C4 C3 1_555 1_555
H2 C4 1_555 1_555
C5 C4 1_555 1_555
H3 C5 1_555 1_555
C6 C5 1_555 1_555
C7 C2 1_555 1_555
H4 C7 1_555 1_555
C8 C6 1_555 1_555
C9 N1 1_555 1_555
H5 C9 1_555 1_555
H6 C9 1_555 1_555
C10 C9 1_555 1_555
H7 C10 1_555 1_555
H8 C10 1_555 1_555
C11 N1 1_555 1_555
H9 C11 1_555 1_555
C12 N2 1_555 1_555
H10 C12 1_555 1_555
C13 C8 1_555 1_555
H11 C13 1_555 1_555
C14 C8 1_555 1_555
H12 C14 1_555 1_555
Zn1A O2 1_555 1_555
Zn1C O1F 1_555 1_555
Zn1B O2F 1_555 1_555
O1F C1F 1_555 1_555
O1E Zn1 1_555 1_555
O2F C1F 1_555 1_555
O2A Zn1 1_555 1_555
O2D Zn1 1_555 1_555
C1F C2F 1_555 1_555
C2F C3F 1_555 1_555
C3F H1F 1_555 1_555
C4F C3F 1_555 1_555
H2F C4F 1_555 1_555
C5F C4F 1_555 1_555
H3F C5F 1_555 1_555
C6F C5F 1_555 1_555
C7F C2F 1_555 1_555
H4F C7F 1_555 1_555
C8F C6F 1_555 1_555
C9E N1 1_555 1_555
H5E C9E 1_555 1_555
H6E C9E 1_555 1_555
C10E N2 1_555 1_555
H7E C10E 1_555 1_555
H8E C10E 1_555 1_555
H9E C11 1_555 1_555
H10E C12 1_555 1_555
C13F C14 1_555 1_555
H11F C13F 1_555 1_555
C14F C13 1_555 1_555
H12F C14F 1_555 1_555
C6 C7 1_555 1_555
C11 C12 1_555 1_555
C6F C7F 1_555 1_555
C8F C13F 1_555 1_555
C8F C14F 1_555 1_555
C9E C10E 1_555 1_555

#END
