
#######################################################################
#
#                 Cambridge Crystallographic Data Centre
#                                CCDC 
#
#######################################################################
#
# If this CIF has been generated from an entry in the Cambridge 
# Structural Database, then it will include bibliographic, chemical, 
# crystal, experimental, refinement or atomic coordinate data resulting 
# from the CCDC's data processing and validation procedures.
#
#######################################################################

data_MIJBAK02
_chemical_formula_moiety         '(C23 H26 Cu2 N2 O8)n'
_chemical_name_systematic        
"catena-[bis(\m~4~-Glutarato)-(\m~2~-4,4'-propane-1,3-diyldipyridine)-di-copper unknown solvate]"
_symmetry_cell_setting           monoclinic
_symmetry_space_group_name_H-M   'C 2/c'
_symmetry_Int_Tables_number      15
_space_group_name_Hall           '-C 2yc'
loop_
_symmetry_equiv_pos_site_id
_symmetry_equiv_pos_as_xyz
1 x,y,z
2 -x,y,1/2-z
3 1/2+x,1/2+y,z
4 1/2-x,1/2+y,1/2-z
5 -x,-y,-z
6 x,-y,1/2+z
7 1/2-x,1/2-y,-z
8 1/2+x,1/2-y,1/2+z
_cell_length_a                   26.834(18)
_cell_length_b                   12.9913(14)
_cell_length_c                   8.4037(10)
_cell_angle_alpha                90
_cell_angle_beta                 103.52(3)
_cell_angle_gamma                90
_cell_volume                     2848.42
_exptl_crystal_colour            green
_exptl_crystal_description       prism
_cell_formula_units_Z            4
loop_
_atom_site_label
_atom_site_type_symbol
_atom_site_fract_x
_atom_site_fract_y
_atom_site_fract_z
Cu1 Cu 0.79120(12) 0.20446(9) 0.08321(17)
N1 N 0.8494(4) 0.1296(5) 0.2564(8)
C1 C 0.8469(4) 0.0237(5) 0.2765(9)
H1 H 0.8217 -0.0145 0.2066
C2 C 0.8823(5) -0.0252(4) 0.4010(10)
H2 H 0.8806 -0.0961 0.4144
C3 C 0.9201(4) 0.0318(5) 0.5054(9)
C4 C 0.9226(4) 0.1378(5) 0.4854(9)
H3 H 0.9478 0.1759 0.5552
C5 C 0.8872(5) 0.1867(4) 0.3609(9)
H4 H 0.8889 0.2575 0.3474
C6 C 0.9616(4) -0.0245(6) 0.6326(11)
H5 H 0.9448 -0.0686 0.6972
H6 H 0.9806 -0.0686 0.5748
C7 C 1.0000 0.0443(9) 0.7500
H7 H 0.9820 0.0880 0.8116
O1 O 0.8192(7) 0.2193(7) -0.1124(11)
O2 O 0.7474(6) 0.2908(7) -0.2557(12)
C8 C 0.7927(6) 0.2618(8) -0.2375(11)
C9 C 0.8190(8) 0.2833(7) -0.3781(14)
H8 H 0.8113 0.2284 -0.4583
H9 H 0.8559 0.2858 -0.3359
C10 C 0.7999(8) 0.3867(7) -0.4593(12)
H10 H 0.7630 0.3845 -0.4993
H11 H 0.8150 0.3984 -0.5520
C11 C 0.8146(8) 0.4753(7) -0.3357(12)
H12 H 0.8044 0.4577 -0.2357
H13 H 0.8515 0.4840 -0.3092
C12 C 0.7890(6) 0.5773(7) -0.4030(14)
O3 O 0.7453(6) 0.5790(6) -0.4955(12)
O4 O 0.8160(7) 0.6554(7) -0.3599(12)
H7A H 1.0180 0.0880 0.6884
N1A N 1.1506(4) 0.1296(5) 1.2436(8)
C1A C 1.1531(4) 0.0237(5) 1.2235(9)
H1A H 1.1783 -0.0145 1.2934
C2A C 1.1177(5) -0.0252(4) 1.0990(10)
H2A H 1.1194 -0.0961 1.0856
C3A C 1.0799(4) 0.0318(5) 0.9946(9)
C4A C 1.0774(4) 0.1378(5) 1.0146(9)
H3A H 1.0522 0.1759 0.9448
C5A C 1.1128(5) 0.1867(4) 1.1391(9)
H4A H 1.1111 0.2575 1.1526
C6A C 1.0384(4) -0.0245(6) 0.8674(11)
H5A H 1.0552 -0.0686 0.8028
H6A H 1.0194 -0.0686 0.9252
Cu1A Cu 1.20880(12) 0.20446(9) 1.41679(17)
O1A O 1.1808(7) 0.2193(7) 1.6124(11)
O2A O 1.2526(6) 0.2908(7) 1.7557(12)
C8A C 1.2073(6) 0.2618(8) 1.7375(11)
C9A C 1.1810(8) 0.2833(7) 1.8781(14)
H8A H 1.1887 0.2284 1.9583
H9A H 1.1441 0.2858 1.8359
C10A C 1.2001(8) 0.3867(7) 1.9593(12)
H10A H 1.2370 0.3845 1.9993
H11A H 1.1850 0.3984 2.0520
C11A C 1.1854(8) 0.4753(7) 1.8357(12)
H12A H 1.1956 0.4577 1.7357
H13A H 1.1485 0.4840 1.8092
C12A C 1.2110(6) 0.5773(7) 1.9030(14)
O3A O 1.2547(6) 0.5790(6) 1.9955(12)
O4A O 1.1840(7) 0.6554(7) 1.8599(12)
Cu1B Cu 1.29120(12) 0.70446(9) 2.08321(17)
Cu1C Cu 0.70880(12) 0.70446(9) -0.58321(17)
Cu1D Cu 1.20880(12) 0.79554(9) 1.91679(17)
Cu1E Cu 0.79120(12) 0.79554(9) -0.41679(17)
Cu1F Cu 0.70880(12) 0.29554(9) -0.08321(17)
Cu1G Cu 1.29120(12) 0.29554(9) 1.58321(17)
O2F O 0.7526(6) 0.2092(7) 0.2557(12)
O2G O 1.2474(6) 0.2092(7) 1.2443(12)
O3B O 1.2453(6) 0.0790(6) 1.5045(12)
O3C O 0.7547(6) 0.0790(6) -0.0045(12)
O4D O 1.1840(7) 0.3446(7) 1.3599(12)
O4E O 0.8160(7) 0.3446(7) 0.1401(12)
H14? H 0.9820 0.0880 0.8116
loop_
_geom_bond_atom_site_label_1
_geom_bond_atom_site_label_2
_geom_bond_site_symmetry_1
_geom_bond_site_symmetry_2
Cu1 N1 1_555 1_555
N1 C1 1_555 1_555
C1 H1 1_555 1_555
C2 C1 1_555 1_555
H2 C2 1_555 1_555
C3 C2 1_555 1_555
C4 C3 1_555 1_555
H3 C4 1_555 1_555
C5 N1 1_555 1_555
H4 C5 1_555 1_555
C6 C3 1_555 1_555
H5 C6 1_555 1_555
H6 C6 1_555 1_555
C7 C6 1_555 1_555
H7 C7 1_555 1_555
O1 Cu1 1_555 1_555
O2 C8 1_555 1_555
C8 O1 1_555 1_555
C9 C8 1_555 1_555
H8 C9 1_555 1_555
H9 C9 1_555 1_555
C10 C9 1_555 1_555
H10 C10 1_555 1_555
H11 C10 1_555 1_555
C11 C10 1_555 1_555
H12 C11 1_555 1_555
H13 C11 1_555 1_555
C12 C11 1_555 1_555
O3 C12 1_555 1_555
O4 C12 1_555 1_555
H7A C7 1_555 1_555
N1A C1A 1_555 1_555
C1A H1A 1_555 1_555
C2A C1A 1_555 1_555
H2A C2A 1_555 1_555
C3A C2A 1_555 1_555
C4A C3A 1_555 1_555
H3A C4A 1_555 1_555
C5A N1A 1_555 1_555
H4A C5A 1_555 1_555
C6A C7 1_555 1_555
H5A C6A 1_555 1_555
H6A C6A 1_555 1_555
Cu1A N1A 1_555 1_555
O1A Cu1A 1_555 1_555
O2A C8A 1_555 1_555
C8A O1A 1_555 1_555
C9A C8A 1_555 1_555
H8A C9A 1_555 1_555
H9A C9A 1_555 1_555
C10A C9A 1_555 1_555
H10A C10A 1_555 1_555
H11A C10A 1_555 1_555
C11A C10A 1_555 1_555
H12A C11A 1_555 1_555
H13A C11A 1_555 1_555
C12A C11A 1_555 1_555
O3A C12A 1_555 1_555
O4A C12A 1_555 1_555
Cu1B O3A 1_555 1_555
Cu1C O3 1_555 1_555
Cu1D O4A 1_555 1_555
Cu1E O4 1_555 1_555
Cu1F Cu1 1_555 1_555
Cu1G Cu1A 1_555 1_555
O2F Cu1 1_555 1_555
O2G Cu1A 1_555 1_555
O3B Cu1A 1_555 1_555
O3C Cu1 1_555 1_555
O4D Cu1A 1_555 1_555
O4E Cu1 1_555 1_555
C4 C5 1_555 1_555
O2 Cu1F 1_555 1_555
C3A C6A 1_555 1_555
C4A C5A 1_555 1_555
O2A Cu1G 1_555 1_555
Cu1B Cu1D 1_555 1_555
Cu1C Cu1E 1_555 1_555

#END
