
#######################################################################
#
#                 Cambridge Crystallographic Data Centre
#                                CCDC 
#
#######################################################################
#
# If this CIF has been generated from an entry in the Cambridge 
# Structural Database, then it will include bibliographic, chemical, 
# crystal, experimental, refinement or atomic coordinate data resulting 
# from the CCDC's data processing and validation procedures.
#
#######################################################################

data_MIJBAK04
_chemical_formula_moiety         '(C23 H26 Cu2 N2 O8)n'
_chemical_name_systematic        
"catena-[bis(\m~4~-Glutarato)-(\m~2~-4,4'-propane-1,3-diyldipyridine)-di-copper unknown solvate]"
_symmetry_cell_setting           monoclinic
_symmetry_space_group_name_H-M   'C 2/c'
_symmetry_Int_Tables_number      15
_space_group_name_Hall           '-C 2yc'
loop_
_symmetry_equiv_pos_site_id
_symmetry_equiv_pos_as_xyz
1 x,y,z
2 -x,y,1/2-z
3 1/2+x,1/2+y,z
4 1/2-x,1/2+y,1/2-z
5 -x,-y,-z
6 x,-y,1/2+z
7 1/2-x,1/2-y,-z
8 1/2+x,1/2-y,1/2+z
_cell_length_a                   25.74(3)
_cell_length_b                   12.6140(19)
_cell_length_c                   8.2015(19)
_cell_angle_alpha                90
_cell_angle_beta                 101.42(6)
_cell_angle_gamma                90
_cell_volume                     2610.18
_exptl_crystal_colour            green
_exptl_crystal_description       prism
_cell_formula_units_Z            4
loop_
_atom_site_label
_atom_site_type_symbol
_atom_site_fract_x
_atom_site_fract_y
_atom_site_fract_z
Cu1 Cu 0.79188(19) 0.20260(13) 0.0793(3)
N1 N 0.8494(6) 0.1303(7) 0.2521(11)
C1 C 0.8467(6) 0.0215(7) 0.2763(13)
H1 H 0.8211 -0.0186 0.2073
C2 C 0.8824(7) -0.0272(5) 0.4037(14)
H2 H 0.8806 -0.1000 0.4199
C3 C 0.9207(6) 0.0328(8) 0.5068(12)
C4 C 0.9234(6) 0.1416(8) 0.4826(13)
H3 H 0.9491 0.1818 0.5516
C5 C 0.8877(7) 0.1903(5) 0.3553(13)
H4 H 0.8895 0.2631 0.3391
C6 C 0.9624(6) -0.0278(10) 0.6333(16)
H5 H 0.9445 -0.0736 0.6994
H6 H 0.9831 -0.0723 0.5738
C7 C 1.0000 0.0467(16) 0.7500
H7 H 0.9803 0.0915 0.8126
O1 O 0.8206(10) 0.2141(10) -0.1233(17)
O2 O 0.7463(9) 0.2901(11) -0.2612(19)
C8 C 0.7928(9) 0.2588(11) -0.2467(16)
C9 C 0.8207(12) 0.2731(11) -0.395(2)
H8 H 0.8108 0.2168 -0.4751
H9 H 0.8589 0.2720 -0.3570
C10 C 0.8025(12) 0.3814(9) -0.4721(18)
H10 H 0.8192 0.3944 -0.5665
H11 H 0.7644 0.3805 -0.5120
C11 C 0.8172(11) 0.4710(9) -0.3441(17)
H12 H 0.8553 0.4816 -0.3204
H13 H 0.8063 0.4521 -0.2412
C12 C 0.7892(8) 0.5738(9) -0.414(2)
O3 O 0.7434(9) 0.5753(9) -0.4994(18)
O4 O 0.8159(10) 0.6555(10) -0.3716(17)
H7A H 1.0197 0.0915 0.6874
N1A N 1.1506(6) 0.1303(7) 1.2479(11)
C1A C 1.1533(6) 0.0215(7) 1.2237(13)
H1A H 1.1789 -0.0186 1.2927
C2A C 1.1176(7) -0.0272(5) 1.0963(14)
H2A H 1.1194 -0.1000 1.0801
C3A C 1.0793(6) 0.0328(8) 0.9932(12)
C4A C 1.0766(6) 0.1416(8) 1.0174(13)
H3A H 1.0509 0.1818 0.9484
C5A C 1.1123(7) 0.1903(5) 1.1447(13)
H4A H 1.1105 0.2631 1.1609
C6A C 1.0376(6) -0.0278(10) 0.8667(16)
H5A H 1.0555 -0.0736 0.8006
H6A H 1.0169 -0.0723 0.9262
Cu1A Cu 1.20812(19) 0.20260(13) 1.4207(3)
O1A O 1.1794(10) 0.2141(10) 1.6233(17)
O2A O 1.2537(9) 0.2901(11) 1.7612(19)
C8A C 1.2072(9) 0.2588(11) 1.7467(16)
C9A C 1.1793(12) 0.2731(11) 1.895(2)
H8A H 1.1892 0.2168 1.9751
H9A H 1.1411 0.2720 1.8570
C10A C 1.1975(12) 0.3814(9) 1.9721(18)
H10A H 1.1808 0.3944 2.0665
H11A H 1.2356 0.3805 2.0120
C11A C 1.1828(11) 0.4710(9) 1.8441(17)
H12A H 1.1447 0.4816 1.8204
H13A H 1.1937 0.4521 1.7412
C12A C 1.2108(8) 0.5738(9) 1.914(2)
O3A O 1.2566(9) 0.5753(9) 1.9994(18)
O4A O 1.1841(10) 0.6555(10) 1.8716(17)
Cu1B Cu 1.29188(19) 0.70260(13) 2.0793(3)
Cu1C Cu 0.70812(19) 0.70260(13) -0.5793(3)
Cu1D Cu 1.20812(19) 0.79740(13) 1.9207(3)
Cu1E Cu 0.79188(19) 0.79740(13) -0.4207(3)
Cu1F Cu 0.70812(19) 0.29740(13) -0.0793(3)
Cu1G Cu 1.29188(19) 0.29740(13) 1.5793(3)
O2F O 0.7537(9) 0.2099(11) 0.2612(19)
O2G O 1.2463(9) 0.2099(11) 1.2388(19)
O3B O 1.2434(9) 0.0753(9) 1.5006(18)
O3C O 0.7566(9) 0.0753(9) -0.0006(18)
O4D O 1.1841(10) 0.3445(10) 1.3716(17)
O4E O 0.8159(10) 0.3445(10) 0.1284(17)
H14? H 0.9803 0.0915 0.8126
loop_
_geom_bond_atom_site_label_1
_geom_bond_atom_site_label_2
_geom_bond_site_symmetry_1
_geom_bond_site_symmetry_2
Cu1 N1 1_555 1_555
N1 C1 1_555 1_555
C1 H1 1_555 1_555
C2 C1 1_555 1_555
H2 C2 1_555 1_555
C3 C2 1_555 1_555
C4 C3 1_555 1_555
H3 C4 1_555 1_555
C5 N1 1_555 1_555
H4 C5 1_555 1_555
C6 C3 1_555 1_555
H5 C6 1_555 1_555
H6 C6 1_555 1_555
C7 C6 1_555 1_555
H7 C7 1_555 1_555
O1 Cu1 1_555 1_555
O2 C8 1_555 1_555
C8 O1 1_555 1_555
C9 C8 1_555 1_555
H8 C9 1_555 1_555
H9 C9 1_555 1_555
C10 C9 1_555 1_555
H10 C10 1_555 1_555
H11 C10 1_555 1_555
C11 C10 1_555 1_555
H12 C11 1_555 1_555
H13 C11 1_555 1_555
C12 C11 1_555 1_555
O3 C12 1_555 1_555
O4 C12 1_555 1_555
H7A C7 1_555 1_555
N1A C1A 1_555 1_555
C1A H1A 1_555 1_555
C2A C1A 1_555 1_555
H2A C2A 1_555 1_555
C3A C2A 1_555 1_555
C4A C3A 1_555 1_555
H3A C4A 1_555 1_555
C5A N1A 1_555 1_555
H4A C5A 1_555 1_555
C6A C7 1_555 1_555
H5A C6A 1_555 1_555
H6A C6A 1_555 1_555
Cu1A N1A 1_555 1_555
O1A Cu1A 1_555 1_555
O2A C8A 1_555 1_555
C8A O1A 1_555 1_555
C9A C8A 1_555 1_555
H8A C9A 1_555 1_555
H9A C9A 1_555 1_555
C10A C9A 1_555 1_555
H10A C10A 1_555 1_555
H11A C10A 1_555 1_555
C11A C10A 1_555 1_555
H12A C11A 1_555 1_555
H13A C11A 1_555 1_555
C12A C11A 1_555 1_555
O3A C12A 1_555 1_555
O4A C12A 1_555 1_555
Cu1B O3A 1_555 1_555
Cu1C O3 1_555 1_555
Cu1D O4A 1_555 1_555
Cu1E O4 1_555 1_555
Cu1F Cu1 1_555 1_555
Cu1G Cu1A 1_555 1_555
O2F Cu1 1_555 1_555
O2G Cu1A 1_555 1_555
O3B Cu1A 1_555 1_555
O3C Cu1 1_555 1_555
O4D Cu1A 1_555 1_555
O4E Cu1 1_555 1_555
C4 C5 1_555 1_555
O2 Cu1F 1_555 1_555
C3A C6A 1_555 1_555
C4A C5A 1_555 1_555
O2A Cu1G 1_555 1_555
Cu1B Cu1D 1_555 1_555
Cu1C Cu1E 1_555 1_555

#END
