
#######################################################################
#
#                 Cambridge Crystallographic Data Centre
#                                CCDC 
#
#######################################################################
#
# If this CIF has been generated from an entry in the Cambridge 
# Structural Database, then it will include bibliographic, chemical, 
# crystal, experimental, refinement or atomic coordinate data resulting 
# from the CCDC's data processing and validation procedures.
#
#######################################################################

data_MIJBAK
_chemical_formula_moiety         '(C23 H26 Cu2 N2 O8)n'
_chemical_name_systematic        
"catena-[bis(\m~4~-Glutarato)-(\m~2~-4,4'-propane-1,3-diyldipyridine)-di-copper unknown solvate]"
_symmetry_cell_setting           monoclinic
_symmetry_space_group_name_H-M   'C 2/c'
_symmetry_Int_Tables_number      15
_space_group_name_Hall           '-C 2yc'
loop_
_symmetry_equiv_pos_site_id
_symmetry_equiv_pos_as_xyz
1 x,y,z
2 -x,y,1/2-z
3 1/2+x,1/2+y,z
4 1/2-x,1/2+y,1/2-z
5 -x,-y,-z
6 x,-y,1/2+z
7 1/2-x,1/2-y,-z
8 1/2+x,1/2-y,1/2+z
_cell_length_a                   28.265(5)
_cell_length_b                   13.127(5)
_cell_length_c                   8.729(5)
_cell_angle_alpha                90
_cell_angle_beta                 106.779(5)
_cell_angle_gamma                90
_cell_volume                     3100.87
_exptl_crystal_colour            green
_exptl_crystal_description       prism
_cell_formula_units_Z            4
loop_
_atom_site_label
_atom_site_type_symbol
_atom_site_fract_x
_atom_site_fract_y
_atom_site_fract_z
N1 N 0.35033(14) 0.1271(3) 0.2581(5)
C1 C 0.3853(2) 0.1801(4) 0.3628(7)
H1 H 0.3848 0.2507 0.3536
C2 C 0.4220(2) 0.1365(4) 0.4838(7)
H2 H 0.4463 0.1773 0.5501
C3 C 0.42294(18) 0.0322(4) 0.5073(6)
C4 C 0.3853(2) -0.0234(4) 0.4018(7)
H3 H 0.3841 -0.0938 0.4115
C5 C 0.34981(19) 0.0264(4) 0.2830(6)
H4 H 0.3243 -0.0118 0.2169
C6 C 0.46206(19) -0.0239(4) 0.6342(6)
H5 H 0.4794 -0.0695 0.5813
H6 H 0.4457 -0.0656 0.6953
C7 C 0.500 0.0426(6) 0.750
H7 H 0.4836 0.0859 0.809
C8 C 0.2119(2) 0.0775(3) -0.1070(6)
C9 C 0.1899(2) -0.0211(4) -0.1743(6)
H8 H 0.201 -0.0365 -0.267
H9 H 0.1543 -0.0129 -0.2113
C10 C 0.2015(2) -0.1117(3) -0.0622(6)
H10 H 0.1854 -0.1029 0.0211
H11 H 0.2369 -0.1148 -0.0116
C11 C 0.1843(2) -0.2122(4) -0.1504(6)
H12 H 0.1914 -0.2676 -0.0737
H13 H 0.1487 -0.2097 -0.198
C12 C 0.20859(18) -0.2337(3) -0.2794(6)
O1 O 0.25418(13) 0.0790(2) -0.0077(4)
O2 O 0.18606(13) 0.1567(2) -0.1535(4)
O3 O 0.18405(14) -0.2792(3) -0.4019(4)
O4 O 0.25206(13) -0.2056(3) -0.2541(4)
Cu1 Cu 0.29007(2) 0.20364(4) 0.08704(6)
H7A H 0.5164 0.0859 0.691
N1A N 0.64967(14) 0.1271(3) 1.2419(5)
C1A C 0.6147(2) 0.1801(4) 1.1372(7)
H1A H 0.6152 0.2507 1.1464
C2A C 0.5780(2) 0.1365(4) 1.0162(7)
H2A H 0.5537 0.1773 0.9499
C3A C 0.57706(18) 0.0322(4) 0.9927(6)
C4A C 0.6147(2) -0.0234(4) 1.0982(7)
H3A H 0.6159 -0.0938 1.0885
C5A C 0.65019(19) 0.0264(4) 1.2170(6)
H4A H 0.6757 -0.0118 1.2831
C6A C 0.53794(19) -0.0239(4) 0.8658(6)
H5A H 0.5206 -0.0695 0.9187
H6A H 0.5543 -0.0656 0.8047
C8A C 0.7881(2) 0.0775(3) 1.6070(6)
C9A C 0.8101(2) -0.0211(4) 1.6743(6)
H8A H 0.799 -0.0365 1.767
H9A H 0.8457 -0.0129 1.7113
C10A C 0.7985(2) -0.1117(3) 1.5622(6)
H10A H 0.8146 -0.1029 1.4789
H11A H 0.7631 -0.1148 1.5116
C11A C 0.8157(2) -0.2122(4) 1.6504(6)
H12A H 0.8086 -0.2676 1.5737
H13A H 0.8513 -0.2097 1.698
C12A C 0.79141(18) -0.2337(3) 1.7794(6)
O1A O 0.74582(13) 0.0790(2) 1.5077(4)
O2A O 0.81394(13) 0.1567(2) 1.6535(4)
O3A O 0.81595(14) -0.2792(3) 1.9019(4)
O4A O 0.74794(13) -0.2056(3) 1.7541(4)
Cu1A Cu 0.70993(2) 0.20364(4) 1.41296(6)
O2F O 0.31394(13) 0.3433(2) 0.1535(4)
O2G O 0.68606(13) 0.3433(2) 1.3465(4)
O3B O 0.68405(14) 0.2208(3) 1.5981(4)
O3C O 0.31595(14) 0.2208(3) -0.0981(4)
O4D O 0.74794(13) 0.2056(3) 1.2541(4)
O4E O 0.25206(13) 0.2056(3) 0.2459(4)
Cu1B Cu 0.79007(2) -0.29636(4) 2.08704(6)
Cu1C Cu 0.20993(2) -0.29636(4) -0.58704(6)
Cu1D Cu 0.70993(2) -0.20364(4) 1.91296(6)
Cu1E Cu 0.29007(2) -0.20364(4) -0.41296(6)
Cu1F Cu 0.20993(2) 0.29636(4) -0.08704(6)
Cu1G Cu 0.79007(2) 0.29636(4) 1.58704(6)
H14? H 0.4836 0.0859 0.809
loop_
_geom_bond_atom_site_label_1
_geom_bond_atom_site_label_2
_geom_bond_site_symmetry_1
_geom_bond_site_symmetry_2
N1 C1 1_555 1_555
C1 H1 1_555 1_555
C2 C1 1_555 1_555
H2 C2 1_555 1_555
C3 C2 1_555 1_555
C4 C3 1_555 1_555
H3 C4 1_555 1_555
C5 N1 1_555 1_555
H4 C5 1_555 1_555
C6 C3 1_555 1_555
H5 C6 1_555 1_555
H6 C6 1_555 1_555
C7 C6 1_555 1_555
H7 C7 1_555 1_555
C8 C9 1_555 1_555
C9 H8 1_555 1_555
H9 C9 1_555 1_555
C10 C9 1_555 1_555
H10 C10 1_555 1_555
H11 C10 1_555 1_555
C11 C10 1_555 1_555
H12 C11 1_555 1_555
H13 C11 1_555 1_555
C12 C11 1_555 1_555
O1 C8 1_555 1_555
O2 C8 1_555 1_555
O3 C12 1_555 1_555
O4 C12 1_555 1_555
Cu1 N1 1_555 1_555
H7A C7 1_555 1_555
N1A C1A 1_555 1_555
C1A H1A 1_555 1_555
C2A C1A 1_555 1_555
H2A C2A 1_555 1_555
C3A C2A 1_555 1_555
C4A C3A 1_555 1_555
H3A C4A 1_555 1_555
C5A N1A 1_555 1_555
H4A C5A 1_555 1_555
C6A C7 1_555 1_555
H5A C6A 1_555 1_555
H6A C6A 1_555 1_555
C8A C9A 1_555 1_555
C9A H8A 1_555 1_555
H9A C9A 1_555 1_555
C10A C9A 1_555 1_555
H10A C10A 1_555 1_555
H11A C10A 1_555 1_555
C11A C10A 1_555 1_555
H12A C11A 1_555 1_555
H13A C11A 1_555 1_555
C12A C11A 1_555 1_555
O1A C8A 1_555 1_555
O2A C8A 1_555 1_555
O3A C12A 1_555 1_555
O4A C12A 1_555 1_555
Cu1A N1A 1_555 1_555
O2F Cu1 1_555 1_555
O2G Cu1A 1_555 1_555
O3B Cu1A 1_555 1_555
O3C Cu1 1_555 1_555
O4D Cu1A 1_555 1_555
O4E Cu1 1_555 1_555
Cu1B O3A 1_555 1_555
Cu1C O3 1_555 1_555
Cu1D O4A 1_555 1_555
Cu1E O4 1_555 1_555
Cu1F O2 1_555 1_555
Cu1G O2A 1_555 1_555
C4 C5 1_555 1_555
O1 Cu1 1_555 1_555
Cu1 Cu1F 1_555 1_555
C3A C6A 1_555 1_555
C4A C5A 1_555 1_555
O1A Cu1A 1_555 1_555
Cu1A Cu1G 1_555 1_555
Cu1B Cu1D 1_555 1_555
Cu1C Cu1E 1_555 1_555

#END
