
#######################################################################
#
#                 Cambridge Crystallographic Data Centre
#                                CCDC 
#
#######################################################################
#
# If this CIF has been generated from an entry in the Cambridge 
# Structural Database, then it will include bibliographic, chemical, 
# crystal, experimental, refinement or atomic coordinate data resulting 
# from the CCDC's data processing and validation procedures.
#
#######################################################################

data_MIJBAK01
_chemical_formula_moiety         '(C23 H26 Cu2 N2 O8)n'
_chemical_name_systematic        
"catena-[bis(\m~4~-Glutarato)-(\m~2~-4,4'-propane-1,3-diyldipyridine)-di-copper unknown solvate]"
_symmetry_cell_setting           monoclinic
_symmetry_space_group_name_H-M   'C 2/c'
_symmetry_Int_Tables_number      15
_space_group_name_Hall           '-C 2yc'
loop_
_symmetry_equiv_pos_site_id
_symmetry_equiv_pos_as_xyz
1 x,y,z
2 -x,y,1/2-z
3 1/2+x,1/2+y,z
4 1/2-x,1/2+y,1/2-z
5 -x,-y,-z
6 x,-y,1/2+z
7 1/2-x,1/2-y,-z
8 1/2+x,1/2-y,1/2+z
_cell_length_a                   27.449(18)
_cell_length_b                   13.1546(14)
_cell_length_c                   8.4882(11)
_cell_angle_alpha                90
_cell_angle_beta                 104.58(3)
_cell_angle_gamma                90
_cell_volume                     2966.23
_exptl_crystal_colour            green
_exptl_crystal_description       prism
_cell_formula_units_Z            4
loop_
_atom_site_label
_atom_site_type_symbol
_atom_site_fract_x
_atom_site_fract_y
_atom_site_fract_z
Cu1 Cu 0.79102(11) 0.20514(8) 0.08436(15)
N1 N 0.8500(3) 0.1305(4) 0.2592(6)
C1 C 0.8475(4) 0.0261(4) 0.2814(7)
H1 H 0.8223 -0.0119 0.2130
C2 C 0.8828(4) -0.0215(3) 0.4059(8)
H2 H 0.8812 -0.0913 0.4207
C3 C 0.9206(4) 0.0353(4) 0.5081(7)
C4 C 0.9230(3) 0.1397(4) 0.4860(7)
H3 H 0.9483 0.1777 0.5544
C5 C 0.8877(4) 0.1873(3) 0.3615(8)
H4 H 0.8893 0.2571 0.3467
C6 C 0.9615(4) -0.0219(6) 0.6347(9)
H5 H 0.9451 -0.0644 0.6996
H6 H 0.9794 -0.0665 0.5775
C7 C 1.0000 0.0462(9) 0.7500
H7 H 0.9831 0.0894 0.8123
O1 O 0.8187(6) 0.2204(5) -0.1093(9)
O2 O 0.7462(5) 0.2906(5) -0.2535(10)
C8 C 0.7912(5) 0.2644(7) -0.2329(10)
C9 C 0.8158(6) 0.2882(6) -0.3728(12)
H8 H 0.8520 0.2911 -0.3302
H9 H 0.8082 0.2338 -0.4523
C10 C 0.7972(6) 0.3895(5) -0.4569(10)
H10 H 0.8123 0.4005 -0.5472
H11 H 0.7609 0.3873 -0.4996
C11 C 0.8115(7) 0.4769(5) -0.3339(10)
H12 H 0.8478 0.4849 -0.3042
H13 H 0.8011 0.4598 -0.2360
C12 C 0.7868(5) 0.5780(6) -0.4023(11)
O3 O 0.7442(5) 0.5800(5) -0.4952(9)
O4 O 0.8127(5) 0.6555(5) -0.3582(9)
H7A H 1.0169 0.0894 0.6877
N1A N 1.1500(3) 0.1305(4) 1.2408(6)
C1A C 1.1525(4) 0.0261(4) 1.2186(7)
H1A H 1.1777 -0.0119 1.2870
C2A C 1.1172(4) -0.0215(3) 1.0941(8)
H2A H 1.1188 -0.0913 1.0793
C3A C 1.0794(4) 0.0353(4) 0.9919(7)
C4A C 1.0770(3) 0.1397(4) 1.0140(7)
H3A H 1.0517 0.1777 0.9456
C5A C 1.1123(4) 0.1873(3) 1.1385(8)
H4A H 1.1107 0.2571 1.1533
C6A C 1.0385(4) -0.0219(6) 0.8653(9)
H5A H 1.0549 -0.0644 0.8004
H6A H 1.0206 -0.0665 0.9225
Cu1A Cu 1.20898(11) 0.20514(8) 1.41564(15)
O1A O 1.1813(6) 0.2204(5) 1.6093(9)
O2A O 1.2538(5) 0.2906(5) 1.7535(10)
C8A C 1.2088(5) 0.2644(7) 1.7329(10)
C9A C 1.1842(6) 0.2882(6) 1.8728(12)
H8A H 1.1480 0.2911 1.8302
H9A H 1.1918 0.2338 1.9523
C10A C 1.2028(6) 0.3895(5) 1.9569(10)
H10A H 1.1877 0.4005 2.0472
H11A H 1.2391 0.3873 1.9996
C11A C 1.1885(7) 0.4769(5) 1.8339(10)
H12A H 1.1522 0.4849 1.8042
H13A H 1.1989 0.4598 1.7360
C12A C 1.2132(5) 0.5780(6) 1.9023(11)
O3A O 1.2558(5) 0.5800(5) 1.9952(9)
O4A O 1.1873(5) 0.6555(5) 1.8582(9)
Cu1B Cu 1.29102(11) 0.70514(8) 2.08436(15)
Cu1C Cu 0.70898(11) 0.70514(8) -0.58436(15)
Cu1D Cu 1.20898(11) 0.79486(8) 1.91564(15)
Cu1E Cu 0.79102(11) 0.79486(8) -0.41564(15)
Cu1F Cu 0.70898(11) 0.29486(8) -0.08436(15)
Cu1G Cu 1.29102(11) 0.29486(8) 1.58436(15)
O2F O 0.7538(5) 0.2094(5) 0.2535(10)
O2G O 1.2462(5) 0.2094(5) 1.2465(10)
O3B O 1.2442(5) 0.0800(5) 1.5048(9)
O3C O 0.7558(5) 0.0800(5) -0.0048(9)
O4D O 1.1873(5) 0.3445(5) 1.3582(9)
O4E O 0.8127(5) 0.3445(5) 0.1418(9)
H14? H 0.9831 0.0894 0.8123
loop_
_geom_bond_atom_site_label_1
_geom_bond_atom_site_label_2
_geom_bond_site_symmetry_1
_geom_bond_site_symmetry_2
Cu1 N1 1_555 1_555
N1 C1 1_555 1_555
C1 H1 1_555 1_555
C2 C1 1_555 1_555
H2 C2 1_555 1_555
C3 C2 1_555 1_555
C4 C3 1_555 1_555
H3 C4 1_555 1_555
C5 N1 1_555 1_555
H4 C5 1_555 1_555
C6 C3 1_555 1_555
H5 C6 1_555 1_555
H6 C6 1_555 1_555
C7 C6 1_555 1_555
H7 C7 1_555 1_555
O1 Cu1 1_555 1_555
O2 C8 1_555 1_555
C8 O1 1_555 1_555
C9 C8 1_555 1_555
H8 C9 1_555 1_555
H9 C9 1_555 1_555
C10 C9 1_555 1_555
H10 C10 1_555 1_555
H11 C10 1_555 1_555
C11 C10 1_555 1_555
H12 C11 1_555 1_555
H13 C11 1_555 1_555
C12 C11 1_555 1_555
O3 C12 1_555 1_555
O4 C12 1_555 1_555
H7A C7 1_555 1_555
N1A C1A 1_555 1_555
C1A H1A 1_555 1_555
C2A C1A 1_555 1_555
H2A C2A 1_555 1_555
C3A C2A 1_555 1_555
C4A C3A 1_555 1_555
H3A C4A 1_555 1_555
C5A N1A 1_555 1_555
H4A C5A 1_555 1_555
C6A C7 1_555 1_555
H5A C6A 1_555 1_555
H6A C6A 1_555 1_555
Cu1A N1A 1_555 1_555
O1A Cu1A 1_555 1_555
O2A C8A 1_555 1_555
C8A O1A 1_555 1_555
C9A C8A 1_555 1_555
H8A C9A 1_555 1_555
H9A C9A 1_555 1_555
C10A C9A 1_555 1_555
H10A C10A 1_555 1_555
H11A C10A 1_555 1_555
C11A C10A 1_555 1_555
H12A C11A 1_555 1_555
H13A C11A 1_555 1_555
C12A C11A 1_555 1_555
O3A C12A 1_555 1_555
O4A C12A 1_555 1_555
Cu1B O3A 1_555 1_555
Cu1C O3 1_555 1_555
Cu1D O4A 1_555 1_555
Cu1E O4 1_555 1_555
Cu1F Cu1 1_555 1_555
Cu1G Cu1A 1_555 1_555
O2F Cu1 1_555 1_555
O2G Cu1A 1_555 1_555
O3B Cu1A 1_555 1_555
O3C Cu1 1_555 1_555
O4D Cu1A 1_555 1_555
O4E Cu1 1_555 1_555
C4 C5 1_555 1_555
O2 Cu1F 1_555 1_555
C3A C6A 1_555 1_555
C4A C5A 1_555 1_555
O2A Cu1G 1_555 1_555
Cu1B Cu1D 1_555 1_555
Cu1C Cu1E 1_555 1_555

#END
