
#######################################################################
#
#                 Cambridge Crystallographic Data Centre
#                                CCDC 
#
#######################################################################
#
# If this CIF has been generated from an entry in the Cambridge 
# Structural Database, then it will include bibliographic, chemical, 
# crystal, experimental, refinement or atomic coordinate data resulting 
# from the CCDC's data processing and validation procedures.
#
#######################################################################

data_MIJBAK03
_chemical_formula_moiety         '(C23 H26 Cu2 N2 O8)n'
_chemical_name_systematic        
"catena-[bis(\m~4~-Glutarato)-(\m~2~-4,4'-propane-1,3-diyldipyridine)-di-copper unknown solvate]"
_symmetry_cell_setting           monoclinic
_symmetry_space_group_name_H-M   'C 2/c'
_symmetry_Int_Tables_number      15
_space_group_name_Hall           '-C 2yc'
loop_
_symmetry_equiv_pos_site_id
_symmetry_equiv_pos_as_xyz
1 x,y,z
2 -x,y,1/2-z
3 1/2+x,1/2+y,z
4 1/2-x,1/2+y,1/2-z
5 -x,-y,-z
6 x,-y,1/2+z
7 1/2-x,1/2-y,-z
8 1/2+x,1/2-y,1/2+z
_cell_length_a                   26.161(15)
_cell_length_b                   12.7057(12)
_cell_length_c                   8.2557(10)
_cell_angle_alpha                90
_cell_angle_beta                 102.02(3)
_cell_angle_gamma                90
_cell_volume                     2683.98
_exptl_crystal_colour            green
_exptl_crystal_description       prism
_cell_formula_units_Z            4
loop_
_atom_site_label
_atom_site_type_symbol
_atom_site_fract_x
_atom_site_fract_y
_atom_site_fract_z
Cu1 Cu 0.79122(12) 0.20307(11) 0.08082(19)
N1 N 0.8502(4) 0.1286(6) 0.2535(9)
C1 C 0.8487(5) 0.0203(6) 0.2754(10)
H1 H 0.8237 -0.0200 0.2056
C2 C 0.8846(5) -0.0278(4) 0.4016(10)
H2 H 0.8836 -0.1003 0.4163
C3 C 0.9220(4) 0.0324(6) 0.5059(9)
C4 C 0.9235(4) 0.1407(6) 0.4840(9)
H3 H 0.9485 0.1810 0.5538
C5 C 0.8876(5) 0.1888(4) 0.3578(10)
H4 H 0.8886 0.2613 0.3431
C6 C 0.9628(5) -0.0278(7) 0.6331(12)
H5 H 0.9449 -0.0729 0.6982
H6 H 0.9830 -0.0725 0.5748
C7 C 1.0000 0.0454(11) 0.7500
H7 H 0.9808 0.0899 0.8119
O1 O 0.8208(8) 0.2165(9) -0.1188(14)
O2 O 0.7464(7) 0.2889(9) -0.2595(14)
C8 C 0.7926(7) 0.2582(9) -0.2441(13)
C9 C 0.8201(9) 0.2776(9) -0.3884(17)
H8 H 0.8124 0.2211 -0.4687
H9 H 0.8576 0.2811 -0.3483
C10 C 0.7994(9) 0.3831(8) -0.4683(14)
H10 H 0.8129 0.3954 -0.5677
H11 H 0.7615 0.3819 -0.4985
C11 C 0.8178(9) 0.4706(8) -0.3408(14)
H12 H 0.8077 0.4541 -0.2372
H13 H 0.8556 0.4768 -0.3197
C12 C 0.7924(7) 0.5745(8) -0.4112(15)
O3 O 0.7465(7) 0.5756(9) -0.4944(15)
O4 O 0.8185(8) 0.6560(9) -0.3651(14)
H7A H 1.0192 0.0899 0.6881
N1A N 1.1498(4) 0.1286(6) 1.2465(9)
C1A C 1.1513(5) 0.0203(6) 1.2246(10)
H1A H 1.1763 -0.0200 1.2944
C2A C 1.1154(5) -0.0278(4) 1.0984(10)
H2A H 1.1164 -0.1003 1.0837
C3A C 1.0780(4) 0.0324(6) 0.9941(9)
C4A C 1.0765(4) 0.1407(6) 1.0160(9)
H3A H 1.0515 0.1810 0.9462
C5A C 1.1124(5) 0.1888(4) 1.1422(10)
H4A H 1.1114 0.2613 1.1569
C6A C 1.0372(5) -0.0278(7) 0.8669(12)
H5A H 1.0551 -0.0729 0.8018
H6A H 1.0170 -0.0725 0.9252
Cu1A Cu 1.20878(12) 0.20307(11) 1.41918(19)
O1A O 1.1792(8) 0.2165(9) 1.6188(14)
O2A O 1.2536(7) 0.2889(9) 1.7595(14)
C8A C 1.2074(7) 0.2582(9) 1.7441(13)
C9A C 1.1799(9) 0.2776(9) 1.8884(17)
H8A H 1.1876 0.2211 1.9687
H9A H 1.1424 0.2811 1.8483
C10A C 1.2006(9) 0.3831(8) 1.9683(14)
H10A H 1.1871 0.3954 2.0677
H11A H 1.2385 0.3819 1.9985
C11A C 1.1822(9) 0.4706(8) 1.8408(14)
H12A H 1.1923 0.4541 1.7372
H13A H 1.1444 0.4768 1.8197
C12A C 1.2076(7) 0.5745(8) 1.9112(15)
O3A O 1.2535(7) 0.5756(9) 1.9944(15)
O4A O 1.1815(8) 0.6560(9) 1.8651(14)
Cu1B Cu 1.29122(12) 0.70307(11) 2.08082(19)
Cu1C Cu 0.70878(12) 0.70307(11) -0.58082(19)
Cu1D Cu 1.20878(12) 0.79693(11) 1.91918(19)
Cu1E Cu 0.79122(12) 0.79693(11) -0.41918(19)
Cu1F Cu 0.70878(12) 0.29693(11) -0.08082(19)
Cu1G Cu 1.29122(12) 0.29693(11) 1.58082(19)
O2F O 0.7536(7) 0.2111(9) 0.2595(14)
O2G O 1.2464(7) 0.2111(9) 1.2405(14)
O3B O 1.2465(7) 0.0756(9) 1.5056(15)
O3C O 0.7535(7) 0.0756(9) -0.0056(15)
O4D O 1.1815(8) 0.3440(9) 1.3651(14)
O4E O 0.8185(8) 0.3440(9) 0.1349(14)
H14? H 0.9808 0.0899 0.8119
loop_
_geom_bond_atom_site_label_1
_geom_bond_atom_site_label_2
_geom_bond_site_symmetry_1
_geom_bond_site_symmetry_2
Cu1 N1 1_555 1_555
N1 C1 1_555 1_555
C1 H1 1_555 1_555
C2 C1 1_555 1_555
H2 C2 1_555 1_555
C3 C2 1_555 1_555
C4 C3 1_555 1_555
H3 C4 1_555 1_555
C5 N1 1_555 1_555
H4 C5 1_555 1_555
C6 C3 1_555 1_555
H5 C6 1_555 1_555
H6 C6 1_555 1_555
C7 C6 1_555 1_555
H7 C7 1_555 1_555
O1 Cu1 1_555 1_555
O2 C8 1_555 1_555
C8 O1 1_555 1_555
C9 C8 1_555 1_555
H8 C9 1_555 1_555
H9 C9 1_555 1_555
C10 C9 1_555 1_555
H10 C10 1_555 1_555
H11 C10 1_555 1_555
C11 C10 1_555 1_555
H12 C11 1_555 1_555
H13 C11 1_555 1_555
C12 C11 1_555 1_555
O3 C12 1_555 1_555
O4 C12 1_555 1_555
H7A C7 1_555 1_555
N1A C1A 1_555 1_555
C1A H1A 1_555 1_555
C2A C1A 1_555 1_555
H2A C2A 1_555 1_555
C3A C2A 1_555 1_555
C4A C3A 1_555 1_555
H3A C4A 1_555 1_555
C5A N1A 1_555 1_555
H4A C5A 1_555 1_555
C6A C7 1_555 1_555
H5A C6A 1_555 1_555
H6A C6A 1_555 1_555
Cu1A N1A 1_555 1_555
O1A Cu1A 1_555 1_555
O2A C8A 1_555 1_555
C8A O1A 1_555 1_555
C9A C8A 1_555 1_555
H8A C9A 1_555 1_555
H9A C9A 1_555 1_555
C10A C9A 1_555 1_555
H10A C10A 1_555 1_555
H11A C10A 1_555 1_555
C11A C10A 1_555 1_555
H12A C11A 1_555 1_555
H13A C11A 1_555 1_555
C12A C11A 1_555 1_555
O3A C12A 1_555 1_555
O4A C12A 1_555 1_555
Cu1B O3A 1_555 1_555
Cu1C O3 1_555 1_555
Cu1D O4A 1_555 1_555
Cu1E O4 1_555 1_555
Cu1F Cu1 1_555 1_555
Cu1G Cu1A 1_555 1_555
O2F Cu1 1_555 1_555
O2G Cu1A 1_555 1_555
O3B Cu1A 1_555 1_555
O3C Cu1 1_555 1_555
O4D Cu1A 1_555 1_555
O4E Cu1 1_555 1_555
C4 C5 1_555 1_555
O2 Cu1F 1_555 1_555
C3A C6A 1_555 1_555
C4A C5A 1_555 1_555
O2A Cu1G 1_555 1_555
Cu1B Cu1D 1_555 1_555
Cu1C Cu1E 1_555 1_555

#END
