
#######################################################################
#
#                 Cambridge Crystallographic Data Centre
#                                CCDC 
#
#######################################################################
#
# If this CIF has been generated from an entry in the Cambridge 
# Structural Database, then it will include bibliographic, chemical, 
# crystal, experimental, refinement or atomic coordinate data resulting 
# from the CCDC's data processing and validation procedures.
#
#######################################################################

data_RIHFUL
_chemical_formula_moiety         '(C22 H40 N4 O8 Sn4)n'
_chemical_name_systematic        
'catena-(bis(\m~4~-Hydrogen 4,5-dicarboxylatoimidazolato)-dodecamethyl-tetra-tin)'
_symmetry_cell_setting           orthorhombic
_symmetry_space_group_name_H-M   'P 21 21 21'
_symmetry_Int_Tables_number      19
_space_group_name_Hall           'P 2ac 2ab'
loop_
_symmetry_equiv_pos_site_id
_symmetry_equiv_pos_as_xyz
1 x,y,z
2 1/2-x,-y,1/2+z
3 1/2+x,1/2-y,-z
4 -x,1/2+y,1/2-z
_cell_length_a                   6.4778(7)
_cell_length_b                   22.184(2)
_cell_length_c                   22.348(2)
_cell_angle_alpha                90
_cell_angle_beta                 90
_cell_angle_gamma                90
_cell_volume                     3211.49
_exptl_crystal_colour            colorless
_exptl_crystal_description       needle
_cell_formula_units_Z            4
loop_
_atom_site_label
_atom_site_type_symbol
_atom_site_fract_x
_atom_site_fract_y
_atom_site_fract_z
_atom_site_U_iso_or_equiv
_atom_site_thermal_displace_type
Sn1 Sn 1.30015(7) 0.646456(19) 0.663384(19) 0.0162 Uani
Sn2 Sn 0.50447(7) 0.91206(2) 0.868544(19) 0.0147 Uani
Sn3 Sn 0.73608(7) 0.879426(19) 0.655172(19) 0.0154 Uani
Sn4 Sn 0.56206(7) 1.09107(2) 0.600015(19) 0.0167 Uani
O1 O 1.2360(7) 0.65159(19) 0.80714(18) 0.0207 Uani
O2 O 0.6961(7) 0.85923(19) 0.79647(18) 0.0157 Uani
O3 O 0.8169(7) 0.79381(19) 0.86371(18) 0.0193 Uani
O4 O 0.5499(7) 0.95338(18) 0.59628(19) 0.0190 Uani
O5 O 0.4281(7) 0.88327(19) 0.53409(19) 0.0183 Uani
O6 O 0.0084(7) 0.93847(18) 0.39136(19) 0.0207 Uani
N1 N 1.1064(8) 0.7194(2) 0.7065(2) 0.0150 Uani
N2 N 0.9090(8) 0.8025(2) 0.7036(2) 0.0147 Uani
N3 N 0.3811(8) 1.0454(2) 0.5284(2) 0.0150 Uani
N4 N 0.1826(8) 1.0416(2) 0.4460(2) 0.0133 Uani
C1 C 1.1118(10) 0.6931(3) 0.8147(3) 0.0153 Uani
C2 C 0.8034(11) 0.8142(3) 0.8109(3) 0.0190 Uani
C3 C 1.0445(10) 0.7318(3) 0.7647(3) 0.0160 Uani
C4 C 0.9187(10) 0.7830(3) 0.7628(3) 0.0147 Uani
C5 C 1.0230(10) 0.7627(3) 0.6739(3) 0.0157 Uani
H1 H 1.0428 0.7652 0.6327 0.0180 Uiso
C6 C 0.4513(10) 0.9376(3) 0.5509(3) 0.0158 Uani
C7 C 0.1422(11) 0.9311(3) 0.4308(3) 0.0183 Uani
C8 C 0.2282(10) 0.9832(3) 0.4635(3) 0.0151 Uani
C9 C 0.3541(10) 0.9858(3) 0.5137(3) 0.0137 Uani
C10 C 0.2770(10) 1.0761(3) 0.4866(3) 0.0163 Uani
H2 H 0.2709 1.1180 0.4859 0.0200 Uiso
C11 C 1.2426(12) 0.6807(3) 0.5764(3) 0.0283 Uani
H3 H 1.2935 0.6528 0.5471 0.0420 Uiso
H4 H 1.3115 0.7187 0.5717 0.0420 Uiso
H5 H 1.0968 0.6862 0.5710 0.0420 Uiso
C12 C 1.5865(10) 0.6699(3) 0.7024(3) 0.0197 Uani
H6 H 1.5631 0.6886 0.7405 0.0300 Uiso
H7 H 1.6582 0.6974 0.6766 0.0300 Uiso
H8 H 1.6683 0.6342 0.7077 0.0300 Uiso
C13 C 1.1152(11) 0.5722(3) 0.6877(3) 0.0253 Uani
H9 H 1.2004 0.5371 0.6921 0.0380 Uiso
H10 H 1.0138 0.5651 0.6572 0.0380 Uiso
H11 H 1.0470 0.5806 0.7250 0.0380 Uiso
C14 C 0.3449(11) 0.8308(3) 0.8857(3) 0.0243 Uani
H12 H 0.2027 0.8395 0.8942 0.0370 Uiso
H13 H 0.4061 0.8109 0.9195 0.0370 Uiso
H14 H 0.3535 0.8050 0.8512 0.0370 Uiso
C15 C 0.3691(12) 0.9605(3) 0.7981(3) 0.0270 Uani
H15 H 0.2594 0.9852 0.8134 0.0400 Uiso
H16 H 0.3146 0.9329 0.7690 0.0400 Uiso
H17 H 0.4713 0.9857 0.7796 0.0400 Uiso
C16 C 0.7851(11) 0.9353(3) 0.9103(3) 0.0250 Uani
H18 H 0.8934 0.9362 0.8810 0.0370 Uiso
H19 H 0.8175 0.9059 0.9405 0.0370 Uiso
H20 H 0.7723 0.9743 0.9286 0.0370 Uiso
C17 C 0.9054(11) 0.8610(3) 0.5758(3) 0.0243 Uani
H21 H 0.8639 0.8226 0.5600 0.0360 Uiso
H22 H 1.0503 0.8602 0.5848 0.0360 Uiso
H23 H 0.8785 0.8919 0.5467 0.0360 Uiso
C18 C 0.8633(11) 0.9523(3) 0.7035(3) 0.0227 Uani
H24 H 0.7679 0.9854 0.7034 0.0340 Uiso
H25 H 0.9904 0.9646 0.6851 0.0340 Uiso
H26 H 0.8894 0.9400 0.7440 0.0340 Uiso
C19 C 0.4475(10) 0.8393(3) 0.6719(3) 0.0217 Uani
H27 H 0.4471 0.8221 0.7114 0.0320 Uiso
H28 H 0.4227 0.8081 0.6430 0.0320 Uiso
H29 H 0.3410 0.8692 0.6691 0.0320 Uiso
C20 C 0.8630(11) 1.0614(3) 0.5787(3) 0.0253 Uani
H30 H 0.9225 1.0417 0.6129 0.0380 Uiso
H31 H 0.9466 1.0954 0.5678 0.0380 Uiso
H32 H 0.8568 1.0337 0.5458 0.0380 Uiso
C21 C 0.4956(13) 1.1788(3) 0.5667(3) 0.0307 Uani
H33 H 0.3494 1.1857 0.5682 0.0460 Uiso
H34 H 0.5424 1.1819 0.5261 0.0460 Uiso
H35 H 0.5650 1.2083 0.5908 0.0460 Uiso
C22 C 0.3815(11) 1.0655(3) 0.6738(3) 0.0233 Uani
H36 H 0.3245 1.0262 0.6668 0.0350 Uiso
H37 H 0.2716 1.0940 0.6791 0.0350 Uiso
H38 H 0.4659 1.0646 0.7091 0.0350 Uiso
O7 O 0.2092(7) 0.87742(18) 0.44371(19) 0.0200 Uani
H39 H 0.2950 0.8797 0.4706 0.0300 Uiso
O8 O 1.0316(8) 0.7030(2) 0.86773(19) 0.0223 Uani
H40 H 0.9748 0.7361 0.8679 0.0330 Uiso
Sn1B Sn -0.19985(7) 0.853544(19) 0.336616(19) 0.0162 Uani
Sn2A Sn -0.00447(7) 1.08794(2) 0.368544(19) 0.0147 Uani
Sn4C Sn 1.43794(7) 0.59107(2) 0.899985(19) 0.0167 Uani
O1C O 0.7640(7) 1.15159(19) 0.69286(18) 0.0207 Uani
O6B O 1.5084(7) 0.56153(18) 0.60864(19) 0.0207 Uani
N4A N 0.3174(8) 0.9584(2) 0.9460(2) 0.0133 Uani
loop_
_atom_site_aniso_label
_atom_site_aniso_U_11
_atom_site_aniso_U_22
_atom_site_aniso_U_33
_atom_site_aniso_U_23
_atom_site_aniso_U_13
_atom_site_aniso_U_12
Sn1 0.0147(2) 0.0161(2) 0.0179(2) -0.00041(18) 0.0009(2) -0.00031(18)
Sn2 0.0134(2) 0.0153(2) 0.0154(2) 0.00007(18) -0.00051(19) 0.00107(19)
Sn3 0.0136(2) 0.0168(2) 0.0159(2) -0.00043(18) -0.00128(19) -0.00056(18)
Sn4 0.0154(2) 0.0177(2) 0.0171(2) 0.00106(19) -0.00036(19) -0.0006(2)
O1 0.023(3) 0.023(2) 0.016(2) 0.0009(18) 0.003(2) 0.007(2)
O2 0.012(2) 0.019(2) 0.016(2) -0.0020(18) -0.0012(19) 0.006(2)
O3 0.026(3) 0.019(2) 0.013(2) 0.0019(19) 0.005(2) 0.006(2)
O4 0.014(2) 0.020(2) 0.023(2) 0.000(2) -0.004(2) -0.0002(19)
O5 0.021(3) 0.011(2) 0.023(2) 0.0027(19) -0.007(2) 0.002(2)
O6 0.021(3) 0.017(2) 0.024(3) -0.0040(19) -0.008(2) -0.001(2)
N1 0.015(3) 0.018(3) 0.012(3) -0.006(2) 0.001(2) 0.002(2)
N2 0.012(3) 0.015(3) 0.017(3) -0.001(2) -0.001(2) -0.001(2)
N3 0.013(3) 0.016(3) 0.016(3) 0.003(2) 0.000(2) 0.001(2)
N4 0.014(3) 0.016(3) 0.010(3) -0.002(2) 0.002(2) -0.002(2)
C1 0.015(4) 0.017(3) 0.014(3) -0.003(3) 0.003(3) -0.002(3)
C2 0.015(4) 0.016(3) 0.026(4) -0.007(3) 0.000(3) -0.003(3)
C3 0.013(4) 0.020(4) 0.015(3) -0.001(3) 0.002(3) -0.005(3)
C4 0.017(3) 0.011(3) 0.016(3) 0.004(3) -0.004(3) 0.002(3)
C5 0.015(4) 0.015(3) 0.017(4) -0.002(3) 0.002(3) -0.001(3)
C6 0.0153(16) 0.0159(16) 0.0162(16) 0.0001(10) 0.0001(10) 0.0000(10)
C7 0.019(4) 0.018(4) 0.018(3) 0.007(3) -0.002(3) -0.003(3)
C8 0.0151(16) 0.0149(16) 0.0152(16) 0.0004(10) 0.0012(10) 0.0002(10)
C9 0.015(3) 0.019(4) 0.007(3) -0.001(3) 0.004(3) 0.001(3)
C10 0.013(3) 0.017(4) 0.019(3) 0.001(3) 0.005(3) -0.002(3)
C11 0.031(5) 0.030(4) 0.024(4) -0.003(3) 0.000(3) 0.011(4)
C12 0.014(4) 0.026(4) 0.019(4) 0.006(3) 0.001(3) -0.005(3)
C13 0.024(4) 0.014(4) 0.038(4) -0.010(3) 0.004(3) -0.001(3)
C14 0.024(4) 0.018(4) 0.031(4) -0.006(3) 0.010(3) 0.003(3)
C15 0.026(4) 0.033(4) 0.022(4) 0.004(3) -0.008(3) 0.013(3)
C16 0.015(4) 0.031(4) 0.029(4) -0.003(3) -0.014(3) 0.003(3)
C17 0.024(4) 0.029(4) 0.020(4) 0.007(3) 0.008(3) 0.006(3)
C18 0.021(4) 0.015(4) 0.032(4) 0.002(3) -0.004(3) -0.005(3)
C19 0.017(4) 0.025(4) 0.023(4) 0.003(3) -0.003(3) -0.008(3)
C20 0.018(4) 0.031(4) 0.027(4) 0.004(3) 0.001(3) 0.001(3)
C21 0.041(5) 0.015(4) 0.036(4) -0.001(3) -0.021(4) 0.004(4)
C22 0.022(4) 0.034(4) 0.014(3) -0.009(3) 0.006(3) 0.002(3)
O7 0.023(3) 0.013(2) 0.024(3) 0.0009(19) -0.002(2) -0.001(2)
O8 0.028(3) 0.022(3) 0.017(2) 0.0028(19) 0.000(2) 0.010(2)
Sn1B 0.0147 0.0161 0.0179 -0.00041 -0.0009 0.00031
Sn2A 0.0134 0.0153 0.0154 -7e-05 0.00051 0.00107
Sn4C 0.0154 0.0177 0.0171 -0.00106 -0.00036 0.0006
O1C 0.023 0.023 0.016 -0.0009 0.003 -0.007
O6B 0.021 0.017 0.024 -0.004 0.008 0.001
N4A 0.014 0.016 0.01 0.002 -0.002 -0.002
loop_
_geom_bond_atom_site_label_1
_geom_bond_atom_site_label_2
_geom_bond_site_symmetry_1
_geom_bond_site_symmetry_2
Sn1 N1 1_555 1_555
Sn2 O2 1_555 1_555
Sn3 O4 1_555 1_555
Sn4 N3 1_555 1_555
O1 C1 1_555 1_555
O2 C2 1_555 1_555
O3 C2 1_555 1_555
O4 C6 1_555 1_555
O5 C6 1_555 1_555
O6 C7 1_555 1_555
N1 C3 1_555 1_555
N2 Sn3 1_555 1_555
N3 C9 1_555 1_555
N4 C8 1_555 1_555
C1 C3 1_555 1_555
C2 C4 1_555 1_555
C3 C4 1_555 1_555
C4 N2 1_555 1_555
C5 N1 1_555 1_555
H1 C5 1_555 1_555
C6 C9 1_555 1_555
C7 C8 1_555 1_555
C8 C9 1_555 1_555
C10 N3 1_555 1_555
H2 C10 1_555 1_555
C11 Sn1 1_555 1_555
H3 C11 1_555 1_555
H4 C11 1_555 1_555
H5 C11 1_555 1_555
C12 Sn1 1_555 1_555
H6 C12 1_555 1_555
H7 C12 1_555 1_555
H8 C12 1_555 1_555
C13 Sn1 1_555 1_555
H9 C13 1_555 1_555
H10 C13 1_555 1_555
H11 C13 1_555 1_555
C14 Sn2 1_555 1_555
H12 C14 1_555 1_555
H13 C14 1_555 1_555
H14 C14 1_555 1_555
C15 Sn2 1_555 1_555
H15 C15 1_555 1_555
H16 C15 1_555 1_555
H17 C15 1_555 1_555
C16 Sn2 1_555 1_555
H18 C16 1_555 1_555
H19 C16 1_555 1_555
H20 C16 1_555 1_555
C17 Sn3 1_555 1_555
H21 C17 1_555 1_555
H22 C17 1_555 1_555
H23 C17 1_555 1_555
C18 Sn3 1_555 1_555
H24 C18 1_555 1_555
H25 C18 1_555 1_555
H26 C18 1_555 1_555
C19 Sn3 1_555 1_555
H27 C19 1_555 1_555
H28 C19 1_555 1_555
H29 C19 1_555 1_555
C20 Sn4 1_555 1_555
H30 C20 1_555 1_555
H31 C20 1_555 1_555
H32 C20 1_555 1_555
C21 Sn4 1_555 1_555
H33 C21 1_555 1_555
H34 C21 1_555 1_555
H35 C21 1_555 1_555
C22 Sn4 1_555 1_555
H36 C22 1_555 1_555
H37 C22 1_555 1_555
H38 C22 1_555 1_555
O7 C7 1_555 1_555
H39 O7 1_555 1_555
O8 C1 1_555 1_555
H40 O8 1_555 1_555
Sn1B O6 1_555 1_555
Sn2A N4 1_555 1_555
Sn4C O1 1_555 1_555
O1C Sn4 1_555 1_555
O6B Sn1 1_555 1_555
N4A Sn2 1_555 1_555
N2 C5 1_555 1_555
N4 C10 1_555 1_555

#END
