
#######################################################################
#
#                 Cambridge Crystallographic Data Centre
#                                CCDC 
#
#######################################################################
#
# If this CIF has been generated from an entry in the Cambridge 
# Structural Database, then it will include bibliographic, chemical, 
# crystal, experimental, refinement or atomic coordinate data resulting 
# from the CCDC's data processing and validation procedures.
#
#######################################################################

data_PIBPEW01
_chemical_formula_moiety         
'(C2 H8 N1 1+)n,n(C50 H27 Cd3 N6 O14 1-),n(C2 H7 N1),3n(C3 H7 N1 O1),4n(H2 O1)'
_chemical_name_systematic        
'catena-(Dimethylammonium bis(\m~6~-2,4,6-tris(4-carboxyphenyl)-s-triazine)-(\m~2~-acetato)-tri-cadmium dimethylamine dimethylformamide solvate tetrahydrate)'
_symmetry_cell_setting           tetragonal
_symmetry_space_group_name_H-M   'P 41 2 2'
_symmetry_Int_Tables_number      91
_space_group_name_Hall           'P 4w 2c'
loop_
_symmetry_equiv_pos_site_id
_symmetry_equiv_pos_as_xyz
1 x,y,z
2 -x,-y,1/2+z
3 -y,x,1/4+z
4 y,-x,3/4+z
5 -x,y,-z
6 x,-y,1/2-z
7 y,x,3/4-z
8 -y,-x,1/4-z
_cell_length_a                   18.0494(4)
_cell_length_b                   18.0494(4)
_cell_length_c                   27.1700(13)
_cell_angle_alpha                90
_cell_angle_beta                 90
_cell_angle_gamma                90
_cell_volume                     8851.47
_exptl_crystal_colour            colorless
_exptl_crystal_description       rod
_cell_formula_units_Z            4
loop_
_atom_site_label
_atom_site_type_symbol
_atom_site_fract_x
_atom_site_fract_y
_atom_site_fract_z
_atom_site_U_iso_or_equiv
_atom_site_thermal_displace_type
Cd1 Cd 0.0000 0.24575(4) 0.0000 0.0437 Uani
Cd2 Cd -0.16434(3) 0.24225(3) 0.070004(17) 0.0563 Uani
N1 N 0.2620(4) 0.1201(6) 0.2445(3) 0.0990 Uani
N2 N 0.2967(4) 0.0485(6) 0.3145(3) 0.1013 Uani
N3 N 0.1694(4) 0.0660(6) 0.2947(2) 0.0907 Uani
O1 O -0.0948(5) 0.2043(5) 0.1299(2) 0.0997 Uani
O2 O -0.2559(3) 0.2559(3) 0.1250 0.0667 Uani
O3 O -0.2899(12) 0.3066(11) 0.1907(8) 0.1270 Uiso
O4 O -0.0048(5) 0.2494(4) 0.0831(2) 0.0927 Uani
O5 O -0.0907(4) 0.3313(3) -0.0038(2) 0.0793 Uani
O6 O -0.1498(5) 0.3627(3) 0.0648(3) 0.1033 Uani
O7 O -0.0896(4) 0.1563(3) 0.0019(2) 0.0857 Uani
O8 O -0.2083(4) 0.1826(4) 0.0071(2) 0.0873 Uani
C1 C -0.0277(7) 0.2154(5) 0.1204(3) 0.0823 Uani
C2 C -0.308(3) 0.379(2) 0.1116(16) 0.2000 Uani
C3 C -0.2862(12) 0.3058(12) 0.1437(7) 0.0850 Uiso
C4 C 0.0292(6) 0.1916(7) 0.1575(3) 0.0853 Uani
C5 C 0.1040(7) 0.2153(6) 0.1538(3) 0.0863 Uani
H1 H 0.1184 0.2491 0.1292 0.1030 Uiso
C6 C 0.1535(6) 0.1889(6) 0.1856(3) 0.0877 Uani
H2 H 0.2030 0.2048 0.1832 0.1050 Uiso
C7 C 0.1342(6) 0.1373(8) 0.2232(3) 0.0970 Uani
C8 C 0.0610(5) 0.1138(8) 0.2267(3) 0.1040 Uani
H3 H 0.0467 0.0795 0.2510 0.1250 Uiso
C9 C 0.0098(6) 0.1417(8) 0.1938(3) 0.1057 Uani
H4 H -0.0399 0.1263 0.1963 0.1270 Uiso
C10 C 0.1919(5) 0.1067(7) 0.2563(4) 0.0897 Uani
C11 C -0.1164(5) 0.3778(6) 0.0239(5) 0.0907 Uani
C12 C -0.1127(6) 0.4587(5) 0.0101(4) 0.0840 Uani
C13 C -0.0818(6) 0.4801(5) -0.0313(4) 0.0910 Uani
H5 H -0.0634 0.4436 -0.0528 0.1090 Uiso
C14 C -0.0751(8) 0.5531(6) -0.0449(4) 0.1090 Uani
H6 H -0.0544 0.5659 -0.0754 0.1310 Uiso
C15 C -0.0995(8) 0.6080(5) -0.0123(4) 0.1000 Uani
C16 C -0.1295(8) 0.5853(6) 0.0307(5) 0.1170 Uani
H7 H -0.1475 0.6218 0.0522 0.1400 Uiso
C17 C -0.1354(7) 0.5131(6) 0.0449(5) 0.1057 Uani
H8 H -0.1536 0.4999 0.0761 0.1270 Uiso
C18 C 0.3138(8) 0.0877(6) 0.2730(4) 0.1067 Uani
C19 C -0.1547(6) 0.1507(5) -0.0135(3) 0.0723 Uani
C20 C -0.1706(5) 0.1001(5) -0.0561(3) 0.0680 Uani
C21 C -0.1179(5) 0.0654(5) -0.0794(3) 0.0717 Uani
H9 H -0.0690 0.0710 -0.0682 0.0860 Uiso
C22 C -0.1308(5) 0.0194(6) -0.1212(3) 0.0793 Uani
H10 H -0.0918 -0.0040 -0.1381 0.0960 Uiso
C23 C -0.2058(5) 0.0106(7) -0.1361(3) 0.0833 Uani
C24 C -0.2628(5) 0.0492(7) -0.1108(4) 0.1010 Uani
H11 H -0.3123 0.0449 -0.1211 0.1210 Uiso
C25 C -0.2448(5) 0.0936(7) -0.0703(3) 0.0937 Uani
H12 H -0.2821 0.1187 -0.0529 0.1130 Uiso
C26 C 0.2252(5) 0.0382(7) 0.3219(4) 0.0947 Uani
Cd2G Cd -0.24225(3) 0.16434(3) 0.179996(17) 0.0563 Uani
O4D O 0.0048(5) 0.2494(4) -0.0831(2) 0.0927 Uani
O5D O 0.0907(4) 0.3313(3) 0.0038(2) 0.0793 Uani
O7D O 0.0896(4) 0.1563(3) -0.0019(2) 0.0857 Uani
C2G C -0.379(2) 0.308(3) 0.1384(16) 0.2000 Uani
C3G C -0.3058(12) 0.2862(12) 0.1063(7) 0.0850 Uiso
C15G C 0.3920(5) 0.0995(8) 0.2623(4) 0.1000 Uani
C18G C -0.0877(6) 0.6862(8) -0.0230(4) 0.1067 Uani
C23A C 0.2058(5) -0.0106(7) 0.3639(3) 0.0833 Uani
C26A C -0.2252(5) -0.0382(7) -0.1781(4) 0.0947 Uani
loop_
_atom_site_aniso_label
_atom_site_aniso_U_11
_atom_site_aniso_U_22
_atom_site_aniso_U_33
_atom_site_aniso_U_23
_atom_site_aniso_U_13
_atom_site_aniso_U_12
Cd1 0.0448(3) 0.0492(4) 0.0372(3) 0.000 0.0030(2) 0.000
Cd2 0.0614(3) 0.0625(3) 0.0449(3) -0.0044(2) 0.0075(2) -0.0002(2)
N1 0.069 0.143 0.085 0.056 0.013 0.016
N2 0.058 0.152 0.094 0.067 0.022 0.012
N3 0.066 0.152 0.054 0.029 0.005 0.017
O1 0.115 0.126 0.058 0.004 -0.018 0.046
O2 0.060(2) 0.060(2) 0.080(4) 0.018(3) 0.018(3) 0.018(4)
O4 0.149 0.083 0.046 -0.005 -0.023 0.011
O5 0.083 0.067 0.088 -0.002 -0.013 0.027
O6 0.106 0.06 0.144 0.018 0.046 0.006
O7 0.099(5) 0.076(4) 0.082(4) 0.025(3) -0.039(4) -0.037(3)
O8 0.106(5) 0.107(5) 0.049(3) -0.014(3) -0.008(3) -0.037(4)
C1 0.124 0.077 0.046 -0.006 -0.003 0.035
C2 0.24(4) 0.13(3) 0.23(4) 0.07(2) 0.12(3) 0.15(3)
C4 0.098 0.12 0.038 0.004 0.011 0.045
C5 0.108 0.094 0.057 0.015 0.008 0.024
C6 0.094 0.101 0.068 0.02 0.007 0.013
C7 0.075 0.154 0.062 0.038 0.024 0.038
C8 0.061 0.19 0.061 0.048 0.014 0.042
C9 0.068 0.189 0.06 0.042 0.019 0.04
C10 0.059 0.126 0.084 0.038 0.014 0.023
C11 0.058 0.08 0.134 0.04 0.015 0.005
C12 0.088 0.049 0.115 0.004 0.027 0.005
C13 0.099 0.068 0.106 0.004 0.044 0.007
C14 0.155 0.063 0.109 0.006 0.061 0.009
C15 0.14 0.065 0.095 0.012 0.061 0.027
C16 0.162 0.061 0.128 0.011 0.083 0.005
C17 0.136 0.071 0.11 0.011 0.07 0.015
C18 0.071 0.148 0.101 0.058 0.004 -0.003
C19 0.096(6) 0.073(5) 0.048(4) 0.019(4) -0.018(4) -0.040(5)
C20 0.071(5) 0.087(6) 0.046(3) 0.003(4) -0.005(3) -0.016(4)
C21 0.061(5) 0.091(6) 0.063(4) 0.008(4) -0.021(4) -0.015(4)
C22 0.055(4) 0.108(7) 0.075(5) -0.008(5) -0.018(4) 0.006(4)
C23 0.055(4) 0.127(8) 0.068(5) -0.029(5) -0.008(4) 0.003(5)
C24 0.051(4) 0.166(11) 0.086(6) -0.062(7) -0.007(4) 0.001(6)
C25 0.065(5) 0.147(10) 0.069(5) -0.041(6) 0.002(4) -0.023(6)
C26 0.066 0.138 0.08 0.045 0.022 0.023
Cd2G 0.0625 0.0614 0.0449 0.0075 -0.0044 -0.0002
O4D 0.149 0.083 0.046 0.005 -0.023 -0.011
O5D 0.083 0.067 0.088 0.002 -0.013 -0.027
O7D 0.099 0.076 0.082 -0.025 -0.039 0.037
C2G 0.13 0.24 0.23 0.12 0.07 0.15
C15G 0.065 0.14 0.095 0.061 0.012 0.027
C18G 0.148 0.071 0.101 0.004 0.058 -0.003
C23A 0.055 0.127 0.068 0.029 0.008 0.003
C26A 0.066(5) 0.138(9) 0.080(6) -0.045(6) -0.022(5) 0.023(6)
loop_
_geom_bond_atom_site_label_1
_geom_bond_atom_site_label_2
_geom_bond_site_symmetry_1
_geom_bond_site_symmetry_2
Cd1 O4 1_555 1_555
Cd2 O1 1_555 1_555
N1 C10 1_555 1_555
N2 C18 1_555 1_555
N3 C10 1_555 1_555
O1 C1 1_555 1_555
O2 Cd2 1_555 1_555
O3 C3 1_555 1_555
O4 C1 1_555 1_555
O5 Cd1 1_555 1_555
O6 Cd2 1_555 1_555
O7 Cd1 1_555 1_555
O8 Cd2 1_555 1_555
C1 C4 1_555 1_555
C2 C3 1_555 1_555
C3 O2 1_555 1_555
C4 C5 1_555 1_555
C5 H1 1_555 1_555
C6 C5 1_555 1_555
H2 C6 1_555 1_555
C7 C6 1_555 1_555
C8 C7 1_555 1_555
H3 C8 1_555 1_555
C9 C4 1_555 1_555
H4 C9 1_555 1_555
C10 C7 1_555 1_555
C11 O5 1_555 1_555
C12 C11 1_555 1_555
C13 C12 1_555 1_555
H5 C13 1_555 1_555
C14 C13 1_555 1_555
H6 C14 1_555 1_555
C15 C14 1_555 1_555
C16 C15 1_555 1_555
H7 C16 1_555 1_555
C17 C12 1_555 1_555
H8 C17 1_555 1_555
C18 N1 1_555 1_555
C19 O7 1_555 1_555
C20 C19 1_555 1_555
C21 C20 1_555 1_555
H9 C21 1_555 1_555
C22 C21 1_555 1_555
H10 C22 1_555 1_555
C23 C22 1_555 1_555
C24 C23 1_555 1_555
H11 C24 1_555 1_555
C25 C20 1_555 1_555
H12 C25 1_555 1_555
C26 N2 1_555 1_555
Cd2G O2 1_555 1_555
O4D Cd1 1_555 1_555
O5D Cd1 1_555 1_555
O7D Cd1 1_555 1_555
C2G C3 1_555 1_555
C3G O2 1_555 1_555
C15G C18 1_555 1_555
C18G C15 1_555 1_555
C23A C26 1_555 1_555
C26A C23 1_555 1_555
N3 C26 1_555 1_555
O6 C11 1_555 1_555
O8 C19 1_555 1_555
C2 C3G 1_555 1_555
C3 C3G 1_555 1_555
C8 C9 1_555 1_555
C16 C17 1_555 1_555
C24 C25 1_555 1_555
C2G C3G 1_555 1_555

#END
