
#######################################################################
#
#                 Cambridge Crystallographic Data Centre
#                                CCDC 
#
#######################################################################
#
# If this CIF has been generated from an entry in the Cambridge 
# Structural Database, then it will include bibliographic, chemical, 
# crystal, experimental, refinement or atomic coordinate data resulting 
# from the CCDC's data processing and validation procedures.
#
#######################################################################

data_EZOFUV
_chemical_formula_moiety         
'(C22 H20 N2 Ni2 O8)n,4n(C3 H7 N1 O1),1.5n(H2 O1)'
_chemical_name_systematic        
"catena-[bis(\m~4~-Benzene-1,4-dicarboxylato-O,O',O'',O''')-(\m~2~-1,4-diazabicyclo[2.2.2]octane-N,N')-di-nickel(ii) dimethylformamide solvate sesquihydrate]"
_symmetry_cell_setting           tetragonal
_symmetry_space_group_name_H-M   'I 4/m c m'
_symmetry_Int_Tables_number      140
_space_group_name_Hall           '-I 4 2c'
loop_
_symmetry_equiv_pos_site_id
_symmetry_equiv_pos_as_xyz
1 x,y,z
2 -y,x,z
3 y,-x,z
4 y,x,1/2-z
5 1/2+x,1/2+y,1/2+z
6 1/2-y,1/2+x,1/2+z
7 1/2+y,1/2-x,1/2+z
8 1/2+y,1/2+x,-z
9 -x,-y,z
10 x,-y,1/2-z
11 -x,y,1/2-z
12 -y,-x,1/2-z
13 1/2-x,1/2-y,1/2+z
14 1/2+x,1/2-y,-z
15 1/2-x,1/2+y,-z
16 1/2-y,1/2-x,-z
17 -x,-y,-z
18 y,-x,-z
19 -y,x,-z
20 -y,-x,1/2+z
21 1/2-x,1/2-y,1/2-z
22 1/2+y,1/2-x,1/2-z
23 1/2-y,1/2+x,1/2-z
24 1/2-y,1/2-x,z
25 x,y,-z
26 -x,y,1/2+z
27 x,-y,1/2+z
28 y,x,1/2+z
29 1/2+x,1/2+y,1/2-z
30 1/2-x,1/2+y,z
31 1/2+x,1/2-y,z
32 1/2+y,1/2+x,z
_cell_length_a                   15.1496(7)
_cell_length_b                   15.1496(7)
_cell_length_c                   18.6597(8)
_cell_angle_alpha                90
_cell_angle_beta                 90
_cell_angle_gamma                90
_cell_volume                     4282.59
_exptl_crystal_colour            green
_cell_formula_units_Z            4
loop_
_atom_site_label
_atom_site_type_symbol
_atom_site_fract_x
_atom_site_fract_y
_atom_site_fract_z
N2 N 0.3947 0.1053 0.1647(9)
C6 C 0.3525(6) 0.0363(7) 0.1169(5)
C7 C 0.3651(14) 0.1349(14) 0.2117(4)
O2 O 0.3914(14) 0.2137(10) 0.2481(9)
C6W C 0.4637(7) 0.1475(6) 0.1169(5)
O2W O 0.2863(10) 0.1086(14) 0.2481(9)
O3 O 0.5000 0.0000 0.0000
Ni1 Ni 0.5000 0.5000 0.0719(3)
O1 O 0.6107(6) 0.5670(7) 0.0637(3)
C1 C 0.6347(10) 0.5897(11) 0.0000
C2 C 0.7146(93) 0.6529(10) 0.0000
C3 C 0.7481(93) 0.6853(8) 0.0645(3)
N1 N 0.5000 0.5000 0.1819(7)
C4 C 0.5312(18) 0.4139(11) 0.2108(6)
Ni1X Ni 0.5000 0.5000 -0.0719(3)
Ni1CA Ni 1.0000 1.0000 0.0719(3)
Ni1G Ni 1.0000 1.0000 -0.0719(3)
Ni1C Ni 0.5000 0.5000 0.4281(3)
Ni1CA_2 Ni 0.0000 1.0000 0.0719(3)
Ni1G_2 Ni 0.0000 1.0000 -0.0719(3)
O1X O 0.6107(6) 0.5670(7) -0.0637(3)
O1W O 0.9330(7) 0.8893(6) 0.0637(3)
O1O O 0.9330(7) 0.8893(6) -0.0637(3)
O1A O 0.4330(7) 0.6107(6) 0.0637(3)
O1R O 0.4330(7) 0.6107(6) -0.0637(3)
O1DA O 0.1107(6) 0.9330(7) 0.0637(3)
O1M O 0.1107(6) 0.9330(7) -0.0637(3)
O1B O 0.5670(7) 0.3893(6) 0.0637(3)
O1H O 0.3893(6) 0.4330(7) 0.0637(3)
O1Q O 0.5670(7) 0.3893(6) -0.0637(3)
O1P O 0.3893(6) 0.4330(7) -0.0637(3)
C1W C 0.9103(11) 0.8653(10) 0.0000
C1A C 0.4103(11) 0.6347(10) 0.0000
C1DA C 0.1347(10) 0.9103(11) 0.0000
C2W C 0.8471(10) 0.7854(93) 0.0000
C2A C 0.3471(10) 0.7146(93) 0.0000
C2DA C 0.2146(93) 0.8471(10) 0.0000
C3W C 0.8147(8) 0.7519(93) 0.0645(3)
C3O C 0.8147(8) 0.7519(93) -0.0645(3)
C3X C 0.7481(93) 0.6853(8) -0.0645(3)
C3A C 0.3147(8) 0.7481(93) 0.0645(3)
C3DA C 0.2481(93) 0.8147(8) 0.0645(3)
C3M C 0.2481(93) 0.8147(8) -0.0645(3)
C3R C 0.3147(8) 0.7481(93) -0.0645(3)
N1C N 0.5000 0.5000 0.3181(7)
N1X N 0.5000 0.5000 -0.1819(7)
C4J C 0.4688(18) 0.4139(11) 0.2892(6)
C4C C 0.4139(11) 0.5312(18) 0.2892(6)
C4B C 0.4139(11) 0.4688(18) 0.2108(6)
C4A C 0.5861(11) 0.5312(18) 0.2108(6)
C4K C 0.5861(11) 0.4688(18) 0.2892(6)
C4I C 0.5312(18) 0.5861(11) 0.2892(6)
C4H C 0.4688(18) 0.5861(11) 0.2108(6)
C5? C 0.5828(10) 0.4537(14) 0.2039(8)
loop_
_geom_bond_atom_site_label_1
_geom_bond_atom_site_label_2
_geom_bond_site_symmetry_1
_geom_bond_site_symmetry_2
Ni1 O1 1_555 1_555
O1 C1 1_555 1_555
C1 C2 1_555 1_555
C2 C3 1_555 1_555
C3 C3W 1_555 1_555
N1 Ni1 1_555 1_555
C4 N1 1_555 1_555
N2 C6 1_555 1_555
C7 N2 1_555 1_555
O2 C7 1_555 1_555
Ni1X O1X 1_555 1_555
Ni1CA O1W 1_555 1_555
Ni1G O1O 1_555 1_555
Ni1C N1C 1_555 1_555
Ni1CA_2 O1DA 1_555 1_555
Ni1G_2 O1M 1_555 1_555
O1X C1 1_555 1_555
O1W C1W 1_555 1_555
O1O C1W 1_555 1_555
O1A Ni1 1_555 1_555
O1R Ni1X 1_555 1_555
O1DA C1DA 1_555 1_555
O1M C1DA 1_555 1_555
O1B Ni1 1_555 1_555
O1H Ni1 1_555 1_555
O1Q Ni1X 1_555 1_555
O1P Ni1X 1_555 1_555
C1W C2W 1_555 1_555
C1A O1A 1_555 1_555
C1DA C2DA 1_555 1_555
C2W C3W 1_555 1_555
C2A C1A 1_555 1_555
C2DA C3DA 1_555 1_555
C3O C2W 1_555 1_555
C3X C2 1_555 1_555
C3A C2A 1_555 1_555
C3DA C3A 1_555 1_555
C3M C2DA 1_555 1_555
C3R C2A 1_555 1_555
N1C C4J 1_555 1_555
N1X Ni1X 1_555 1_555
C4J C4 1_555 1_555
C4C N1C 1_555 1_555
C4B N1 1_555 1_555
C4A N1 1_555 1_555
C4K N1C 1_555 1_555
C4I N1C 1_555 1_555
C4H N1 1_555 1_555
C6W N2 1_555 1_555
O2W C7 1_555 1_555
O1R C1A 1_555 1_555
C3O C3X 1_555 1_555
C3M C3R 1_555 1_555
C4C C4B 1_555 1_555
C4A C4K 1_555 1_555
C4I C4H 1_555 1_555

#END
