
#######################################################################
#
#                 Cambridge Crystallographic Data Centre
#                                CCDC 
#
#######################################################################
#
# If this CIF has been generated from an entry in the Cambridge 
# Structural Database, then it will include bibliographic, chemical, 
# crystal, experimental, refinement or atomic coordinate data resulting 
# from the CCDC's data processing and validation procedures.
#
#######################################################################

data_EZOFOP
_chemical_formula_moiety         
'(C120 H84 N6 Ni6 O27)n,18n(C3 H7 N1 O1),13n(H2 O1)'
_chemical_name_systematic        
'catena-[tetrakis(\m~6~-Benzene-1,3,5-tris(4-benzoato))-triaqua-tris(2-methyl-1H-imidazole-N^3^)-hexa-nickel(ii) dimethylformamide solvate tridecahydrate]'
_symmetry_cell_setting           cubic
_symmetry_space_group_name_H-M   'I m -3'
_symmetry_Int_Tables_number      204
_space_group_name_Hall           '-I 2 2 3'
loop_
_symmetry_equiv_pos_site_id
_symmetry_equiv_pos_as_xyz
1 x,y,z
2 -x,-y,z
3 x,-y,-z
4 -x,y,-z
5 y,z,x
6 -y,-z,x
7 y,-z,-x
8 -y,z,-x
9 z,x,y
10 -z,x,-y
11 -z,-x,y
12 z,-x,-y
13 1/2+x,1/2+y,1/2+z
14 1/2-x,1/2-y,1/2+z
15 1/2+x,1/2-y,1/2-z
16 1/2-x,1/2+y,1/2-z
17 1/2+y,1/2+z,1/2+x
18 1/2-y,1/2-z,1/2+x
19 1/2+y,1/2-z,1/2-x
20 1/2-y,1/2+z,1/2-x
21 1/2+z,1/2+x,1/2+y
22 1/2-z,1/2+x,1/2-y
23 1/2-z,1/2-x,1/2+y
24 1/2+z,1/2-x,1/2-y
25 -x,-y,-z
26 x,y,-z
27 -x,y,z
28 x,-y,z
29 -y,-z,-x
30 y,z,-x
31 -y,z,x
32 y,-z,x
33 -z,-x,-y
34 z,-x,y
35 z,x,-y
36 -z,x,y
37 1/2-x,1/2-y,1/2-z
38 1/2+x,1/2+y,1/2-z
39 1/2-x,1/2+y,1/2+z
40 1/2+x,1/2-y,1/2+z
41 1/2-y,1/2-z,1/2-x
42 1/2+y,1/2+z,1/2-x
43 1/2-y,1/2+z,1/2+x
44 1/2+y,1/2-z,1/2+x
45 1/2-z,1/2-x,1/2-y
46 1/2+z,1/2-x,1/2+y
47 1/2+z,1/2+x,1/2-y
48 1/2-z,1/2+x,1/2+y
_cell_length_a                   26.816(3)
_cell_length_b                   26.816(3)
_cell_length_c                   26.816(3)
_cell_angle_alpha                90
_cell_angle_beta                 90
_cell_angle_gamma                90
_cell_volume                     19283.3
_exptl_crystal_colour            green
_exptl_crystal_description       'cubic block'
_cell_formula_units_Z            4
loop_
_atom_site_label
_atom_site_type_symbol
_atom_site_fract_x
_atom_site_fract_y
_atom_site_fract_z
Ni1 Ni 0.5000 0.0000 0.22163(4)
Ni2 Ni 0.5000 0.0000 0.11549(3)
O1 O 0.5000 0.0000(3) 0.0416
N1 N 0.5000 0.0000(3) 0.2962
C1 C 0.5352 0.0000(5) 0.3269(6)
N2 N 0.5237 0.0000(4) 0.3725(6)
C2 C 0.5831 0.0000(10) 0.3224(16)
H2 H 0.5981 0.0000 0.3549
H3 H 0.5934 0.0292 0.3045
O2 O 0.55418(12) 0.05256(13) 0.12751(12)
O3 O 0.5510(2) 0.05080(18) 0.2104(2)
C3 C 0.5700(2) 0.0640(2) 0.1702(2)
C4 C 0.7508(2) 0.1777(2) 0.1975(2)
C5 C 0.7624(2) 0.2189(2) 0.1672(2)
H4 H 0.7426 0.2258 0.1395
C6 C 0.6155(2) 0.0949(2) 0.1749(2)
C7 C 0.6421(2) 0.1128(2) 0.1338(2)
H5 H 0.6307 0.1063 0.1017
C8 C 0.6852(2) 0.1400(2) 0.1409(2)
H6 H 0.7018 0.1530 0.1133
C9 C 0.7044(2) 0.1486(2) 0.1884(2)
C10 C 0.6770(3) 0.1316(3) 0.2288(2)
H7 H 0.6885 0.1380 0.2609
C11 C 0.6327(3) 0.1054(3) 0.2225(2)
H8 H 0.6147 0.0948 0.2502
Ni1I Ni 0.77837(4) 0.5000 0.0000
Ni1D Ni 1.0000 0.22163(4) 0.5000
Ni1H Ni 0.22163(4) -0.5000 0.0000
Ni1E Ni 0.0000 -0.22163(4) 0.5000
Ni1H_2 Ni 0.22163(4) 0.5000 0.0000
Ni1D_2 Ni 0.0000 0.22163(4) 0.5000
Ni1I_2 Ni 0.77837(4) -0.5000 0.0000
Ni1E_2 Ni 1.0000 -0.22163(4) 0.5000
Ni2I Ni 0.88451(3) 0.5000 0.0000
Ni2D Ni 1.0000 0.11549(3) 0.5000
Ni2H Ni 0.11549(3) -0.5000 0.0000
Ni2E Ni 0.0000 -0.11549(3) 0.5000
Ni2H_2 Ni 0.11549(3) 0.5000 0.0000
Ni2D_2 Ni 0.0000 0.11549(3) 0.5000
Ni2I_2 Ni 0.88451(3) -0.5000 0.0000
Ni2E_2 Ni 1.0000 -0.11549(3) 0.5000
O1I O 0.9584 0.5000 0.0000(3)
O1D O 1.0000(3) 0.0416 0.5000
N1I N 0.7038 0.5000 0.0000(3)
N1D N 1.0000(3) 0.2962 0.5000
C1A C 0.4648 0.0000(5) 0.3269(6)
C1J C 0.6731(6) 0.4648 0.0000(5)
C1I C 0.6731(6) 0.5352 0.0000(5)
C1G C 1.0000(5) 0.3269(6) 0.4648
C1D C 1.0000(5) 0.3269(6) 0.5352
N2A N 0.4763 0.0000(4) 0.3725(6)
N2J N 0.6275(6) 0.4763 0.0000(4)
N2I N 0.6275(6) 0.5237 0.0000(4)
N2G N 1.0000(4) 0.3725(6) 0.4763
N2D N 1.0000(4) 0.3725(6) 0.5237
C2A C 0.4169 0.0000(10) 0.3224(16)
C2J C 0.6776(16) 0.4169 0.0000(10)
C2I C 0.6776(16) 0.5831 0.0000(10)
C2G C 1.0000(10) 0.3224(16) 0.4169
C2D C 1.0000(10) 0.3224(16) 0.5831
H2A H 0.4019 0.0000 0.3549
H2J H 0.6451 0.4019 0.0000
H2I H 0.6451 0.5981 0.0000
H2G H 1.0000 0.3549 0.4019
H2D H 1.0000 0.3549 0.5981
H3A H 0.4066 -0.0292 0.3045
H3Z H 0.4066 0.0292 0.3045
H3AA H 0.5934 -0.0292 0.3045
H3J H 0.6955 0.4066 0.0292
H3I H 0.6955 0.5934 -0.0292
H3IA H 0.6955 0.5934 0.0292
H3FA H 0.6955 0.4066 -0.0292
H3G H 0.9708 0.3045 0.4066
H3D H 1.0292 0.3045 0.5934
H3DA H 0.9708 0.3045 0.5934
H3CA H 1.0292 0.3045 0.4066
O2J O 0.87249(12) 0.44582(12) 0.05256(13)
O2G O 0.94744(13) 0.12751(12) 0.44582(12)
O2A O 0.44582(12) -0.05256(13) 0.12751(12)
O2H O 0.12751(12) -0.44582(12) 0.05256(13)
O2F O 0.05256(13) -0.12751(12) 0.44582(12)
O2Z O 0.44582(12) 0.05256(13) 0.12751(12)
O2GA O 0.12751(12) 0.44582(12) 0.05256(13)
O2CA O 0.05256(13) 0.12751(12) 0.44582(12)
O2AA O 0.55418(12) -0.05256(13) 0.12751(12)
O2IA O 0.87249(12) -0.44582(12) 0.05256(13)
O2BA O 0.94744(13) -0.12751(12) 0.44582(12)
O2FA O 0.87249(12) 0.44582(12) -0.05256(13)
O2IA_2 O 0.87249(12) 0.55418(12) 0.05256(13)
O2I O 0.87249(12) 0.55418(12) -0.05256(13)
O2CA_2 O 1.05256(13) 0.12751(12) 0.44582(12)
O2DA O 0.94744(13) 0.12751(12) 0.55418(12)
O2D O 1.05256(13) 0.12751(12) 0.55418(12)
O3J O 0.7896(2) 0.4490(2) 0.05080(18)
O3G O 0.94920(18) 0.2104(2) 0.4490(2)
O3A O 0.4490(2) -0.05080(18) 0.2104(2)
O3H O 0.2104(2) -0.4490(2) 0.05080(18)
O3F O 0.05080(18) -0.2104(2) 0.4490(2)
O3Z O 0.4490(2) 0.05080(18) 0.2104(2)
O3GA O 0.2104(2) 0.4490(2) 0.05080(18)
O3CA O 0.05080(18) 0.2104(2) 0.4490(2)
O3AA O 0.5510(2) -0.05080(18) 0.2104(2)
O3IA O 0.7896(2) -0.4490(2) 0.05080(18)
O3BA O 0.94920(18) -0.2104(2) 0.4490(2)
O3I O 0.7896(2) 0.5510(2) -0.05080(18)
O3IA_2 O 0.7896(2) 0.5510(2) 0.05080(18)
O3FA O 0.7896(2) 0.4490(2) -0.05080(18)
O3D O 1.05080(18) 0.2104(2) 0.5510(2)
O3DA O 0.94920(18) 0.2104(2) 0.5510(2)
O3CA_2 O 1.05080(18) 0.2104(2) 0.4490(2)
C3J C 0.8298(2) 0.4300(2) 0.0640(2)
C3G C 0.9360(2) 0.1702(2) 0.4300(2)
C3A C 0.4300(2) -0.0640(2) 0.1702(2)
C3H C 0.1702(2) -0.4300(2) 0.0640(2)
C3F C 0.0640(2) -0.1702(2) 0.4300(2)
C3Z C 0.4300(2) 0.0640(2) 0.1702(2)
C3GA C 0.1702(2) 0.4300(2) 0.0640(2)
C3CA C 0.0640(2) 0.1702(2) 0.4300(2)
C3AA C 0.5700(2) -0.0640(2) 0.1702(2)
C3IA C 0.8298(2) -0.4300(2) 0.0640(2)
C3BA C 0.9360(2) -0.1702(2) 0.4300(2)
C4J C 0.8025(2) 0.2492(2) 0.1777(2)
C4G C 0.8223(2) 0.1975(2) 0.2492(2)
C4A C 0.2492(2) -0.1777(2) 0.1975(2)
C4H C 0.1975(2) -0.2492(2) 0.1777(2)
C4F C 0.1777(2) -0.1975(2) 0.2492(2)
C4Z C 0.2492(2) 0.1777(2) 0.1975(2)
C4GA C 0.1975(2) 0.2492(2) 0.1777(2)
C4CA C 0.1777(2) 0.1975(2) 0.2492(2)
C4AA C 0.7508(2) -0.1777(2) 0.1975(2)
C4IA C 0.8025(2) -0.2492(2) 0.1777(2)
C4BA C 0.8223(2) -0.1975(2) 0.2492(2)
C5J C 0.8328(2) 0.2376(2) 0.2189(2)
C5G C 0.7811(2) 0.1672(2) 0.2376(2)
C5A C 0.2376(2) -0.2189(2) 0.1672(2)
C5H C 0.1672(2) -0.2376(2) 0.2189(2)
C5F C 0.2189(2) -0.1672(2) 0.2376(2)
C5Z C 0.2376(2) 0.2189(2) 0.1672(2)
C5GA C 0.1672(2) 0.2376(2) 0.2189(2)
C5CA C 0.2189(2) 0.1672(2) 0.2376(2)
C5AA C 0.7624(2) -0.2189(2) 0.1672(2)
C5IA C 0.8328(2) -0.2376(2) 0.2189(2)
C5BA C 0.7811(2) -0.1672(2) 0.2376(2)
H4G H 0.7742 0.1395 0.2574
H4J H 0.8605 0.2574 0.2258
H4A H 0.2574 -0.2258 0.1395
H4F H 0.2258 -0.1395 0.2574
H4H H 0.1395 -0.2574 0.2258
H4Z H 0.2574 0.2258 0.1395
H4CA H 0.2258 0.1395 0.2574
H4GA H 0.1395 0.2574 0.2258
H4AA H 0.7426 -0.2258 0.1395
H4BA H 0.7742 -0.1395 0.2574
H4IA H 0.8605 -0.2574 0.2258
C6J C 0.8251(2) 0.3845(2) 0.0949(2)
C6G C 0.9051(2) 0.1749(2) 0.3845(2)
C6A C 0.3845(2) -0.0949(2) 0.1749(2)
C6H C 0.1749(2) -0.3845(2) 0.0949(2)
C6F C 0.0949(2) -0.1749(2) 0.3845(2)
C6Z C 0.3845(2) 0.0949(2) 0.1749(2)
C6GA C 0.1749(2) 0.3845(2) 0.0949(2)
C6CA C 0.0949(2) 0.1749(2) 0.3845(2)
C6AA C 0.6155(2) -0.0949(2) 0.1749(2)
C6IA C 0.8251(2) -0.3845(2) 0.0949(2)
C6BA C 0.9051(2) -0.1749(2) 0.3845(2)
C7J C 0.8662(2) 0.3579(2) 0.1128(2)
C7G C 0.8872(2) 0.1338(2) 0.3579(2)
C7A C 0.3579(2) -0.1128(2) 0.1338(2)
C7H C 0.1338(2) -0.3579(2) 0.1128(2)
C7F C 0.1128(2) -0.1338(2) 0.3579(2)
C7Z C 0.3579(2) 0.1128(2) 0.1338(2)
C7GA C 0.1338(2) 0.3579(2) 0.1128(2)
C7CA C 0.1128(2) 0.1338(2) 0.3579(2)
C7AA C 0.6421(2) -0.1128(2) 0.1338(2)
C7IA C 0.8662(2) -0.3579(2) 0.1128(2)
C7BA C 0.8872(2) -0.1338(2) 0.3579(2)
H5J H 0.8983 0.3693 0.1063
H5G H 0.8937 0.1017 0.3693
H5A H 0.3693 -0.1063 0.1017
H5H H 0.1017 -0.3693 0.1063
H5F H 0.1063 -0.1017 0.3693
H5Z H 0.3693 0.1063 0.1017
H5GA H 0.1017 0.3693 0.1063
H5CA H 0.1063 0.1017 0.3693
H5AA H 0.6307 -0.1063 0.1017
H5IA H 0.8983 -0.3693 0.1063
H5BA H 0.8937 -0.1017 0.3693
C8J C 0.8591(2) 0.3148(2) 0.1400(2)
C8G C 0.8600(2) 0.1409(2) 0.3148(2)
C8A C 0.3148(2) -0.1400(2) 0.1409(2)
C8H C 0.1409(2) -0.3148(2) 0.1400(2)
C8F C 0.1400(2) -0.1409(2) 0.3148(2)
C8Z C 0.3148(2) 0.1400(2) 0.1409(2)
C8GA C 0.1409(2) 0.3148(2) 0.1400(2)
C8CA C 0.1400(2) 0.1409(2) 0.3148(2)
C8AA C 0.6852(2) -0.1400(2) 0.1409(2)
C8IA C 0.8591(2) -0.3148(2) 0.1400(2)
C8BA C 0.8600(2) -0.1409(2) 0.3148(2)
H6J H 0.8867 0.2982 0.1530
H6G H 0.8470 0.1133 0.2982
H6A H 0.2982 -0.1530 0.1133
H6H H 0.1133 -0.2982 0.1530
H6F H 0.1530 -0.1133 0.2982
H6Z H 0.2982 0.1530 0.1133
H6GA H 0.1133 0.2982 0.1530
H6CA H 0.1530 0.1133 0.2982
H6AA H 0.7018 -0.1530 0.1133
H6IA H 0.8867 -0.2982 0.1530
H6BA H 0.8470 -0.1133 0.2982
C9J C 0.8116(2) 0.2956(2) 0.1486(2)
C9G C 0.8514(2) 0.1884(2) 0.2956(2)
C9A C 0.2956(2) -0.1486(2) 0.1884(2)
C9H C 0.1884(2) -0.2956(2) 0.1486(2)
C9F C 0.1486(2) -0.1884(2) 0.2956(2)
C9Z C 0.2956(2) 0.1486(2) 0.1884(2)
C9GA C 0.1884(2) 0.2956(2) 0.1486(2)
C9CA C 0.1486(2) 0.1884(2) 0.2956(2)
C9AA C 0.7044(2) -0.1486(2) 0.1884(2)
C9IA C 0.8116(2) -0.2956(2) 0.1486(2)
C9BA C 0.8514(2) -0.1884(2) 0.2956(2)
C10J C 0.7712(2) 0.3230(3) 0.1316(3)
C10G C 0.8684(3) 0.2288(2) 0.3230(3)
C10A C 0.3230(3) -0.1316(3) 0.2288(2)
C10H C 0.2288(2) -0.3230(3) 0.1316(3)
C10F C 0.1316(3) -0.2288(2) 0.3230(3)
C10Z C 0.3230(3) 0.1316(3) 0.2288(2)
C10GA C 0.2288(2) 0.3230(3) 0.1316(3)
C10CA C 0.1316(3) 0.2288(2) 0.3230(3)
C10AA C 0.6770(3) -0.1316(3) 0.2288(2)
C10IA C 0.7712(2) -0.3230(3) 0.1316(3)
C10BA C 0.8684(3) -0.2288(2) 0.3230(3)
H7J H 0.7391 0.3115 0.1380
H7G H 0.8620 0.2609 0.3115
H7A H 0.3115 -0.1380 0.2609
H7H H 0.2609 -0.3115 0.1380
H7F H 0.1380 -0.2609 0.3115
H7Z H 0.3115 0.1380 0.2609
H7GA H 0.2609 0.3115 0.1380
H7CA H 0.1380 0.2609 0.3115
H7AA H 0.6885 -0.1380 0.2609
H7IA H 0.7391 -0.3115 0.1380
H7BA H 0.8620 -0.2609 0.3115
C11J C 0.7775(2) 0.3673(3) 0.1054(3)
C11G C 0.8946(3) 0.2225(2) 0.3673(3)
C11A C 0.3673(3) -0.1054(3) 0.2225(2)
C11H C 0.2225(2) -0.3673(3) 0.1054(3)
C11F C 0.1054(3) -0.2225(2) 0.3673(3)
C11Z C 0.3673(3) 0.1054(3) 0.2225(2)
C11GA C 0.2225(2) 0.3673(3) 0.1054(3)
C11CA C 0.1054(3) 0.2225(2) 0.3673(3)
C11AA C 0.6327(3) -0.1054(3) 0.2225(2)
C11IA C 0.7775(2) -0.3673(3) 0.1054(3)
C11BA C 0.8946(3) -0.2225(2) 0.3673(3)
H8J H 0.7498 0.3853 0.0948
H8G H 0.9052 0.2502 0.3853
H8A H 0.3853 -0.0948 0.2502
H8H H 0.2502 -0.3853 0.0948
H8F H 0.0948 -0.2502 0.3853
H8Z H 0.3853 0.0948 0.2502
H8GA H 0.2502 0.3853 0.0948
H8CA H 0.0948 0.2502 0.3853
H8AA H 0.6147 -0.0948 0.2502
H8IA H 0.7498 -0.3853 0.0948
H8BA H 0.9052 -0.2502 0.3853
H1? H 0.5434 0.0000 0.3978
loop_
_geom_bond_atom_site_label_1
_geom_bond_atom_site_label_2
_geom_bond_site_symmetry_1
_geom_bond_site_symmetry_2
Ni1 N1 1_555 1_555
Ni2 O1 1_555 1_555
N1 C1 1_555 1_555
C1 N2 1_555 1_555
N2 N2A 1_555 1_555
C2 C1 1_555 1_555
H2 C2 1_555 1_555
H3 C2 1_555 1_555
O2 Ni2 1_555 1_555
O3 Ni1 1_555 1_555
C3 O2 1_555 1_555
C4 C5 1_555 1_555
C5 H4 1_555 1_555
C6 C3 1_555 1_555
C7 C6 1_555 1_555
H5 C7 1_555 1_555
C8 C7 1_555 1_555
H6 C8 1_555 1_555
C9 C4 1_555 1_555
C10 C9 1_555 1_555
H7 C10 1_555 1_555
C11 C6 1_555 1_555
H8 C11 1_555 1_555
Ni1I N1I 1_555 1_555
Ni1D N1D 1_555 1_555
Ni1H O3H 1_555 1_555
Ni1E O3F 1_555 1_555
Ni1H_2 O3GA 1_555 1_555
Ni1D_2 O3CA 1_555 1_555
Ni1I_2 O3IA 1_555 1_555
Ni1E_2 O3BA 1_555 1_555
Ni2I O1I 1_555 1_555
Ni2D O1D 1_555 1_555
Ni2H O2H 1_555 1_555
Ni2E O2F 1_555 1_555
Ni2H_2 O2GA 1_555 1_555
Ni2D_2 O2CA 1_555 1_555
Ni2I_2 O2IA 1_555 1_555
Ni2E_2 O2BA 1_555 1_555
N1I C1J 1_555 1_555
N1D C1G 1_555 1_555
C1A N1 1_555 1_555
C1J N2J 1_555 1_555
C1I N1I 1_555 1_555
C1G N2G 1_555 1_555
C1D N1D 1_555 1_555
N2A C1A 1_555 1_555
N2J N2I 1_555 1_555
N2I C1I 1_555 1_555
N2G N2D 1_555 1_555
N2D C1D 1_555 1_555
C2A C1A 1_555 1_555
C2J C1J 1_555 1_555
C2I C1I 1_555 1_555
C2G C1G 1_555 1_555
C2D C1D 1_555 1_555
H2A C2A 1_555 1_555
H2J C2J 1_555 1_555
H2I C2I 1_555 1_555
H2G C2G 1_555 1_555
H2D C2D 1_555 1_555
H3A C2A 1_555 1_555
H3Z C2A 1_555 1_555
H3AA C2 1_555 1_555
H3J C2J 1_555 1_555
H3I C2I 1_555 1_555
H3IA C2I 1_555 1_555
H3FA C2J 1_555 1_555
H3G C2G 1_555 1_555
H3D C2D 1_555 1_555
H3DA C2D 1_555 1_555
H3CA C2G 1_555 1_555
O2J Ni2I 1_555 1_555
O2G Ni2D 1_555 1_555
O2A Ni2 1_555 1_555
O2H C3H 1_555 1_555
O2F C3F 1_555 1_555
O2Z Ni2 1_555 1_555
O2GA C3GA 1_555 1_555
O2CA C3CA 1_555 1_555
O2AA Ni2 1_555 1_555
O2IA C3IA 1_555 1_555
O2BA C3BA 1_555 1_555
O2FA Ni2I 1_555 1_555
O2IA_2 Ni2I 1_555 1_555
O2I Ni2I 1_555 1_555
O2CA_2 Ni2D 1_555 1_555
O2DA Ni2D 1_555 1_555
O2D Ni2D 1_555 1_555
O3J Ni1I 1_555 1_555
O3G Ni1D 1_555 1_555
O3A Ni1 1_555 1_555
O3H C3H 1_555 1_555
O3F C3F 1_555 1_555
O3Z Ni1 1_555 1_555
O3GA C3GA 1_555 1_555
O3CA C3CA 1_555 1_555
O3AA Ni1 1_555 1_555
O3IA C3IA 1_555 1_555
O3BA C3BA 1_555 1_555
O3I Ni1I 1_555 1_555
O3IA_2 Ni1I 1_555 1_555
O3FA Ni1I 1_555 1_555
O3D Ni1D 1_555 1_555
O3DA Ni1D 1_555 1_555
O3CA_2 Ni1D 1_555 1_555
C3J O2J 1_555 1_555
C3G O2G 1_555 1_555
C3A O2A 1_555 1_555
C3H C6H 1_555 1_555
C3F C6F 1_555 1_555
C3Z O2Z 1_555 1_555
C3GA C6GA 1_555 1_555
C3CA C6CA 1_555 1_555
C3AA O2AA 1_555 1_555
C3IA C6IA 1_555 1_555
C3BA C6BA 1_555 1_555
C4J C5 1_555 1_555
C4G C5J 1_555 1_555
C4A C5A 1_555 1_555
C4H C5A 1_555 1_555
C4F C5H 1_555 1_555
C4Z C5Z 1_555 1_555
C4GA C5Z 1_555 1_555
C4CA C5GA 1_555 1_555
C4AA C5AA 1_555 1_555
C4IA C5AA 1_555 1_555
C4BA C5IA 1_555 1_555
C5J C4J 1_555 1_555
C5G C4 1_555 1_555
C5A H4A 1_555 1_555
C5H C4H 1_555 1_555
C5F C4A 1_555 1_555
C5Z H4Z 1_555 1_555
C5GA C4GA 1_555 1_555
C5CA C4Z 1_555 1_555
C5AA H4AA 1_555 1_555
C5IA C4IA 1_555 1_555
C5BA C4AA 1_555 1_555
H4G C5G 1_555 1_555
H4J C5J 1_555 1_555
H4F C5F 1_555 1_555
H4H C5H 1_555 1_555
H4CA C5CA 1_555 1_555
H4GA C5GA 1_555 1_555
H4BA C5BA 1_555 1_555
H4IA C5IA 1_555 1_555
C6J C3J 1_555 1_555
C6G C3G 1_555 1_555
C6A C3A 1_555 1_555
C6H C7H 1_555 1_555
C6F C7F 1_555 1_555
C6Z C3Z 1_555 1_555
C6GA C7GA 1_555 1_555
C6CA C7CA 1_555 1_555
C6AA C3AA 1_555 1_555
C6IA C7IA 1_555 1_555
C6BA C7BA 1_555 1_555
C7J C6J 1_555 1_555
C7G C6G 1_555 1_555
C7A C6A 1_555 1_555
C7H H5H 1_555 1_555
C7F H5F 1_555 1_555
C7Z C6Z 1_555 1_555
C7GA H5GA 1_555 1_555
C7CA H5CA 1_555 1_555
C7AA C6AA 1_555 1_555
C7IA H5IA 1_555 1_555
C7BA H5BA 1_555 1_555
H5J C7J 1_555 1_555
H5G C7G 1_555 1_555
H5A C7A 1_555 1_555
H5Z C7Z 1_555 1_555
H5AA C7AA 1_555 1_555
C8J C7J 1_555 1_555
C8G C7G 1_555 1_555
C8A C7A 1_555 1_555
C8H C7H 1_555 1_555
C8F C7F 1_555 1_555
C8Z C7Z 1_555 1_555
C8GA C7GA 1_555 1_555
C8CA C7CA 1_555 1_555
C8AA C7AA 1_555 1_555
C8IA C7IA 1_555 1_555
C8BA C7BA 1_555 1_555
H6J C8J 1_555 1_555
H6G C8G 1_555 1_555
H6A C8A 1_555 1_555
H6H C8H 1_555 1_555
H6F C8F 1_555 1_555
H6Z C8Z 1_555 1_555
H6GA C8GA 1_555 1_555
H6CA C8CA 1_555 1_555
H6AA C8AA 1_555 1_555
H6IA C8IA 1_555 1_555
H6BA C8BA 1_555 1_555
C9J C4J 1_555 1_555
C9G C4G 1_555 1_555
C9A C4A 1_555 1_555
C9H C4H 1_555 1_555
C9F C4F 1_555 1_555
C9Z C4Z 1_555 1_555
C9GA C4GA 1_555 1_555
C9CA C4CA 1_555 1_555
C9AA C4AA 1_555 1_555
C9IA C4IA 1_555 1_555
C9BA C4BA 1_555 1_555
C10J C9J 1_555 1_555
C10G C9G 1_555 1_555
C10A C9A 1_555 1_555
C10H C9H 1_555 1_555
C10F C9F 1_555 1_555
C10Z C9Z 1_555 1_555
C10GA C9GA 1_555 1_555
C10CA C9CA 1_555 1_555
C10AA C9AA 1_555 1_555
C10IA C9IA 1_555 1_555
C10BA C9BA 1_555 1_555
H7J C10J 1_555 1_555
H7G C10G 1_555 1_555
H7A C10A 1_555 1_555
H7H C10H 1_555 1_555
H7F C10F 1_555 1_555
H7Z C10Z 1_555 1_555
H7GA C10GA 1_555 1_555
H7CA C10CA 1_555 1_555
H7AA C10AA 1_555 1_555
H7IA C10IA 1_555 1_555
H7BA C10BA 1_555 1_555
C11J C6J 1_555 1_555
C11G C6G 1_555 1_555
C11A C6A 1_555 1_555
C11H C6H 1_555 1_555
C11F C6F 1_555 1_555
C11Z C6Z 1_555 1_555
C11GA C6GA 1_555 1_555
C11CA C6CA 1_555 1_555
C11AA C6AA 1_555 1_555
C11IA C6IA 1_555 1_555
C11BA C6BA 1_555 1_555
H8J C11J 1_555 1_555
H8G C11G 1_555 1_555
H8A C11A 1_555 1_555
H8H C11H 1_555 1_555
H8F C11F 1_555 1_555
H8Z C11Z 1_555 1_555
H8GA C11GA 1_555 1_555
H8CA C11CA 1_555 1_555
H8AA C11AA 1_555 1_555
H8IA C11IA 1_555 1_555
H8BA C11BA 1_555 1_555
O3 C3 1_555 1_555
C8 C9 1_555 1_555
C10 C11 1_555 1_555
O3J C3J 1_555 1_555
O3G C3G 1_555 1_555
O3A C3A 1_555 1_555
O3Z C3Z 1_555 1_555
O3AA C3AA 1_555 1_555
C4G C5G 1_555 1_555
C4F C5F 1_555 1_555
C4CA C5CA 1_555 1_555
C4BA C5BA 1_555 1_555
C8J C9J 1_555 1_555
C8G C9G 1_555 1_555
C8A C9A 1_555 1_555
C8H C9H 1_555 1_555
C8F C9F 1_555 1_555
C8Z C9Z 1_555 1_555
C8GA C9GA 1_555 1_555
C8CA C9CA 1_555 1_555
C8AA C9AA 1_555 1_555
C8IA C9IA 1_555 1_555
C8BA C9BA 1_555 1_555
C10J C11J 1_555 1_555
C10G C11G 1_555 1_555
C10A C11A 1_555 1_555
C10H C11H 1_555 1_555
C10F C11F 1_555 1_555
C10Z C11Z 1_555 1_555
C10GA C11GA 1_555 1_555
C10CA C11CA 1_555 1_555
C10AA C11AA 1_555 1_555
C10IA C11IA 1_555 1_555
C10BA C11BA 1_555 1_555

#END
