
#######################################################################
#
#                 Cambridge Crystallographic Data Centre
#                                CCDC 
#
#######################################################################
#
# If this CIF has been generated from an entry in the Cambridge 
# Structural Database, then it will include bibliographic, chemical, 
# crystal, experimental, refinement or atomic coordinate data resulting 
# from the CCDC's data processing and validation procedures.
#
#######################################################################

data_EZOGEG
_chemical_formula_moiety         
'(C14 H16 N2 Ni1 O4)n,1.5n(C3 H7 N1 O1),2n(H2 O1)'
_chemical_name_systematic        
"catena-[(\m~2~-Benzene-1,4-dicarboxylato-O,O':O'',O''')-(\m~2~-1,4-diazabicyclo[2.2.2]octane-N,N')-nickel(ii) dimethylformamide solvate dihydrate]"
_symmetry_cell_setting           monoclinic
_symmetry_space_group_name_H-M   'P 2/m'
_symmetry_Int_Tables_number      10
_space_group_name_Hall           '-P 2y'
loop_
_symmetry_equiv_pos_site_id
_symmetry_equiv_pos_as_xyz
1 x,y,z
2 -x,y,-z
3 -x,-y,-z
4 x,-y,z
_cell_length_a                   10.6682(7)
_cell_length_b                   7.0125(4)
_cell_length_c                   6.0822(4)
_cell_angle_alpha                90
_cell_angle_beta                 95.269(5)
_cell_angle_gamma                90
_cell_volume                     453.091
_exptl_crystal_colour            'pale green'
_cell_formula_units_Z            1
loop_
_atom_site_label
_atom_site_type_symbol
_atom_site_fract_x
_atom_site_fract_y
_atom_site_fract_z
C7 C 0.1802(14) 0.5000 0.4536(68)
N2 N 0.3046(12) 0.5000 0.5924(34)
C8 C 0.2986(13) 0.5000 0.8478(62)
C9 C 0.3959(12) 0.5000 0.4056(48)
O3 O 0.5000 0.5000 0.5000
C7B C 0.8198(14) 0.5000 0.5464(68)
N2B N 0.6954(12) 0.5000 0.4076(34)
C8B C 0.7014(13) 0.5000 0.1522(62)
C9B C 0.6041(12) 0.5000 0.5944(48)
O4 O 0.0000 0.5000 0.5000
O5 O 0.3968(8) 0.1089(13) 0.5123(34)
Ni1 Ni 0.0000 0.0000 0.0000
N1 N 0.0000 -0.3113(12) 0.0000
C1 C 0.1261(7) -0.3825(8) 0.0494(24)
C2 C 0.0111(9) -0.3845(8) 0.2267(18)
O1 O 0.1782(6) 0.0000 0.1769(18)
O2 O 0.1374(5) 0.0000 -0.1611(23)
C3 C 0.3740(8) 0.0000 0.0000
C4 C 0.4427(8) 0.0000 0.1929(29)
C5 C 0.4290(8) 0.0000 -0.1965(34)
C6 C 0.2246(9) 0.0000 0.0000
Ni1_2 Ni 0.0000 -1.0000 0.0000
Ni1_3 Ni 1.0000 0.0000 0.0000
N1C N 0.0000 -0.6887(12) 0.0000
N1C_2 N 0.0000 0.3113(12) 0.0000
C1C C 0.1261(7) -0.6175(8) 0.0494(24)
C1B C -0.1261(7) -0.6175(8) -0.0494(24)
C1A C -0.1261(7) -0.3825(8) -0.0494(24)
C2C C 0.0111(9) -0.6155(8) 0.2267(18)
C2B C -0.0111(9) -0.6155(8) -0.2267(18)
C2A C -0.0111(9) -0.3845(8) -0.2267(18)
O1B O 0.8218(6) 0.0000 -0.1769(18)
O1B_2 O -0.1782(6) 0.0000 -0.1769(18)
O2B O 0.8626(5) 0.0000 0.1611(23)
O2B_2 O -0.1374(5) 0.0000 0.1611(23)
C3B C 0.6260(8) 0.0000 0.0000
C4B C 0.5573(8) 0.0000 -0.1929(29)
C5B C 0.5710(8) 0.0000 0.1965(34)
C6B C 0.7754(9) 0.0000 0.0000
loop_
_geom_bond_atom_site_label_1
_geom_bond_atom_site_label_2
_geom_bond_site_symmetry_1
_geom_bond_site_symmetry_2
Ni1 N1 1_555 1_555
N1 C1 1_555 1_555
C1 C2 1_555 1_555
C2 N1 1_555 1_555
O1 Ni1 1_555 1_555
O2 Ni1 1_555 1_555
C3 C4 1_555 1_555
C4 C5B 1_555 1_555
C5 C3 1_555 1_555
C6 O1 1_555 1_555
C7 N2 1_555 1_555
N2 C8 1_555 1_555
C9 N2 1_555 1_555
O3 C9 1_555 1_555
Ni1_2 N1C 1_555 1_555
Ni1_3 O1B 1_555 1_555
N1C C1C 1_555 1_555
N1C_2 Ni1 1_555 1_555
C1C C1 1_555 1_555
C1B N1C 1_555 1_555
C1A N1 1_555 1_555
C2C C2 1_555 1_555
C2B N1C 1_555 1_555
C2A N1 1_555 1_555
O1B C6B 1_555 1_555
O1B_2 Ni1 1_555 1_555
O2B Ni1_3 1_555 1_555
O2B_2 Ni1 1_555 1_555
C3B C4B 1_555 1_555
C4B C5 1_555 1_555
C5B C3B 1_555 1_555
C6B O2B 1_555 1_555
C7B N2B 1_555 1_555
N2B C8B 1_555 1_555
C9B O3 1_555 1_555
O2 C6 1_555 1_555
C3 C6 1_555 1_555
N1C C2C 1_555 1_555
C1C C2C 1_555 1_555
C1B C1A 1_555 1_555
C1B C2B 1_555 1_555
C1A C2A 1_555 1_555
C2B C2A 1_555 1_555
C3B C6B 1_555 1_555
N2B C9B 1_555 1_555

#END
