
#######################################################################
#
#                 Cambridge Crystallographic Data Centre
#                                CCDC 
#
#######################################################################
#
# If this CIF has been generated from an entry in the Cambridge 
# Structural Database, then it will include bibliographic, chemical, 
# crystal, experimental, refinement or atomic coordinate data resulting 
# from the CCDC's data processing and validation procedures.
#
#######################################################################

data_EZOGAC
_chemical_formula_moiety         
'(C22 H20 N2 Ni2 O8)n,4n(C3 H7 N1 O1),4n(H2 O1)'
_chemical_name_systematic        
"catena-[bis(\m~4~-Benzene-1,4-dicarboxylato-O,O',O'',O''')-(\m~2~-1,4-diazabicyclo[2.2.2]octane-N,N')-di-nickel(ii) dimethylformamide solvate tetrahydrate]"
_symmetry_cell_setting           trigonal
_symmetry_space_group_name_H-M   'P -3 m 1'
_symmetry_Int_Tables_number      164
_space_group_name_Hall           '-P 3 2"'
loop_
_symmetry_equiv_pos_site_id
_symmetry_equiv_pos_as_xyz
1 x,y,z
2 -y,x-y,z
3 -x+y,-x,z
4 y,x,-z
5 x-y,-y,-z
6 -x,-x+y,-z
7 -x,-y,-z
8 y,-x+y,-z
9 x-y,x,-z
10 -y,-x,z
11 -x+y,y,z
12 x,x-y,z
_cell_length_a                   21.5930(3)
_cell_length_b                   21.5930(3)
_cell_length_c                   9.3672(1)
_cell_angle_alpha                90
_cell_angle_beta                 90
_cell_angle_gamma                120
_cell_volume                     3782.39
_exptl_crystal_colour            green
_cell_formula_units_Z            3
loop_
_atom_site_label
_atom_site_type_symbol
_atom_site_fract_x
_atom_site_fract_y
_atom_site_fract_z
Ni1 Ni 1.0000 0.5000 0.1382(2)
O1 O 0.9264(1) 0.5274(2) 0.1081(3)
O2 O 0.9250(2) 0.5268(2) -0.1085(3)
N1 N 1.0000 0.5000 0.3561(5)
C1 C 0.8924(3) 0.5279(4) 0.0023(5)
C2 C 0.8269(3) 0.5402(4) -0.0085(6)
C3 C 0.8013(2) 0.5383(2) 0.1264(7)
C4 C 0.8015(2) 0.5406(2) -0.1415(7)
C5 C 1.0649(4) 0.5554(4) 0.4196(10)
C6 C 0.9316(2) 0.4434(4) 0.4193(6)
C7 C 0.9969(4) 0.4416(4) 0.4222(6)
Ni1A Ni 0.5000 0.5000 0.1382(2)
Ni1F Ni 1.0000 0.5000 -0.1382(2)
Ni1G Ni 0.5000 0.5000 -0.1382(2)
Ni1F_2 Ni 1.0000 0.5000 0.8618(2)
Ni1B Ni 0.5000 0.0000 0.1382(2)
Ni1C Ni 0.5000 0.0000 -0.1382(2)
O1J O 0.6010(2) 0.5274(2) 0.1081(3)
O1K O 0.9264(1) 0.3990(2) 0.1081(3)
O1B O 0.6010(2) 0.0736(1) 0.1081(3)
O1A O 0.4726(2) 0.3990(2) 0.1081(3)
O1F O 1.0736(1) 0.4726(2) -0.1081(3)
O1E O 1.0736(1) 0.6010(2) -0.1081(3)
O2J O 0.6018(3) 0.5268(2) -0.1085(3)
O2K O 0.9250(2) 0.3982(3) -0.1085(3)
O2B O 0.6018(3) 0.0750(2) -0.1085(3)
O2E O 1.0750(2) 0.6018(3) 0.1085(3)
O2F O 1.0750(2) 0.4732(2) 0.1085(3)
O2G O 0.5268(2) 0.6018(3) 0.1085(3)
O2D O 0.3982(3) 0.4732(2) 0.1085(3)
N1F N 1.0000 0.5000 0.6439(5)
N1A N 0.5000 0.5000 0.3561(5)
N1F_2 N 1.0000 0.5000 -0.3561(5)
C1J C 0.6355(5) 0.5279(4) 0.0023(5)
C1K C 0.8924(3) 0.3645(5) 0.0023(5)
C1B C 0.6355(5) 0.1076(3) 0.0023(5)
C2J C 0.7133(5) 0.5402(4) -0.0085(6)
C2K C 0.8269(3) 0.2867(5) -0.0085(6)
C2B C 0.7133(5) 0.1731(3) -0.0085(6)
C3J C 0.7370(3) 0.5383(2) 0.1264(7)
C3K C 0.8013(2) 0.2630(3) 0.1264(7)
C3B C 0.7370(3) 0.1987(2) 0.1264(7)
C4J C 0.7391(3) 0.5406(2) -0.1415(7)
C4K C 0.8015(2) 0.2609(3) -0.1415(7)
C4B C 0.7391(3) 0.1985(2) -0.1415(7)
C5K C 1.0649(4) 0.5095(6) 0.4196(10)
C5F C 0.9351(4) 0.4446(4) 0.5804(10)
C5E C 0.9351(4) 0.4905(6) 0.5804(10)
C6F C 1.0684(2) 0.5566(4) 0.5807(6)
C6E C 1.0684(2) 0.5118(4) 0.5807(6)
C6K C 0.9316(2) 0.4882(4) 0.4193(6)
C7K C 0.9969(4) 0.5553(6) 0.4222(6)
C7F C 1.0031(4) 0.5584(4) 0.5778(6)
C7E C 1.0031(4) 0.4447(6) 0.5778(6)
loop_
_geom_bond_atom_site_label_1
_geom_bond_atom_site_label_2
_geom_bond_site_symmetry_1
_geom_bond_site_symmetry_2
Ni1 O1 1_555 1_555
O1 C1 1_555 1_555
O2 C1 1_555 1_555
N1 Ni1 1_555 1_555
C1 C2 1_555 1_555
C2 C3 1_555 1_555
C3 C3J 1_555 1_555
C4 C2 1_555 1_555
C5 N1 1_555 1_555
C6 N1 1_555 1_555
C7 N1 1_555 1_555
Ni1A O1J 1_555 1_555
Ni1F O2 1_555 1_555
Ni1G O2J 1_555 1_555
Ni1F_2 N1F 1_555 1_555
Ni1B O1B 1_555 1_555
Ni1C O2B 1_555 1_555
O1J C1J 1_555 1_555
O1K Ni1 1_555 1_555
O1B C1B 1_555 1_555
O1A Ni1A 1_555 1_555
O1F Ni1F 1_555 1_555
O1E Ni1F 1_555 1_555
O2J C1J 1_555 1_555
O2K Ni1F 1_555 1_555
O2B C1B 1_555 1_555
O2E Ni1 1_555 1_555
O2F Ni1 1_555 1_555
O2G Ni1A 1_555 1_555
O2D Ni1A 1_555 1_555
N1F C5F 1_555 1_555
N1A Ni1A 1_555 1_555
N1F_2 Ni1F 1_555 1_555
C1J C2J 1_555 1_555
C1K O1K 1_555 1_555
C1B C2B 1_555 1_555
C2J C3J 1_555 1_555
C2K C1K 1_555 1_555
C2B C3B 1_555 1_555
C3K C2K 1_555 1_555
C3B C3K 1_555 1_555
C4J C4 1_555 1_555
C4K C2K 1_555 1_555
C4B C2B 1_555 1_555
C5K N1 1_555 1_555
C5F C6 1_555 1_555
C5E N1F 1_555 1_555
C6F C5 1_555 1_555
C6E N1F 1_555 1_555
C6K N1 1_555 1_555
C7K N1 1_555 1_555
C7F N1F 1_555 1_555
C7E C7 1_555 1_555
C5 C5K 1_555 1_555
C5 C7K 1_555 1_555
C6 C7 1_555 1_555
C6 C6K 1_555 1_555
C7 C5K 1_555 1_555
O2K C1K 1_555 1_555
N1F C6F 1_555 1_555
N1F C7E 1_555 1_555
C2J C4J 1_555 1_555
C4K C4B 1_555 1_555
C5K C6E 1_555 1_555
C5F C5E 1_555 1_555
C5F C7E 1_555 1_555
C5E C6K 1_555 1_555
C5E C7F 1_555 1_555
C6F C6E 1_555 1_555
C6F C7F 1_555 1_555
C6E C7E 1_555 1_555
C6K C7K 1_555 1_555
C7K C7F 1_555 1_555

#END
