
#######################################################################
#
#                 Cambridge Crystallographic Data Centre
#                                CCDC 
#
#######################################################################
#
# If this CIF has been generated from an entry in the Cambridge 
# Structural Database, then it will include bibliographic, chemical, 
# crystal, experimental, refinement or atomic coordinate data resulting 
# from the CCDC's data processing and validation procedures.
#
#######################################################################

data_MAYKOO
_chemical_formula_moiety         
'(C48 H36 Cu3 N2 O13)n,9n(C3 H7 N1 O1),15n(H2 O1)'
_chemical_name_systematic        
"catena-[bis(\m~6~-1,1':3',1''-Terphenyl-4,4'',5'-tricarboxylato)-(\m~2~-1,4-diazabicyclo[2.2.2]octane)-aqua-tri-copper(ii) N,N-dimethylformamide solvate pentadecahydrate]"
_symmetry_cell_setting           tetragonal
_symmetry_space_group_name_H-M   'I 41/a m d'
_symmetry_Int_Tables_number      141
_space_group_name_Hall           '-I 4bd 2'
loop_
_symmetry_equiv_pos_site_id
_symmetry_equiv_pos_as_xyz
1 x,y,z
2 -x,1/2-y,z
3 x,-y,-z
4 -x,1/2+y,-z
5 1/4-y,1/4-x,3/4-z
6 1/4+y,3/4+x,1/4-z
7 1/4+y,1/4-x,3/4+z
8 1/4-y,3/4+x,1/4+z
9 1/2+x,1/2+y,1/2+z
10 1/2-x,-y,1/2+z
11 1/2+x,1/2-y,1/2-z
12 1/2-x,y,1/2-z
13 3/4-y,3/4-x,1/4-z
14 3/4+y,1/4+x,3/4-z
15 3/4+y,3/4-x,1/4+z
16 3/4-y,1/4+x,3/4+z
17 -x,-y,-z
18 x,1/2+y,-z
19 -x,y,z
20 x,1/2-y,z
21 3/4+y,3/4+x,1/4+z
22 3/4-y,1/4-x,3/4+z
23 3/4-y,3/4+x,1/4-z
24 3/4+y,1/4-x,3/4-z
25 1/2-x,1/2-y,1/2-z
26 1/2+x,y,1/2-z
27 1/2-x,1/2+y,1/2+z
28 1/2+x,-y,1/2+z
29 1/4+y,1/4+x,3/4+z
30 1/4-y,3/4-x,1/4+z
31 1/4-y,1/4+x,3/4-z
32 1/4+y,3/4-x,1/4-z
_cell_length_a                   19.156(5)
_cell_length_b                   19.156(5)
_cell_length_c                   61.292(5)
_cell_angle_alpha                90
_cell_angle_beta                 90
_cell_angle_gamma                90
_cell_volume                     22491.2
_cell_formula_units_Z            8
loop_
_atom_site_label
_atom_site_type_symbol
_atom_site_fract_x
_atom_site_fract_y
_atom_site_fract_z
Cu1 Cu 0.6813 -0.250000(15) 0.752234(5)
Cu2 Cu 0.5000 0.2500 0.646431(7)
C1 C 0.74371(10) -0.16042(11) 0.72008(3)
C2 C 0.73605(11) -0.11402(12) 0.70072(3)
C3 C 0.79365(12) -0.09461(14) 0.68855(4)
H1 H 0.8380 -0.1090 0.6928
C4 C 0.78569(13) -0.05382(15) 0.67006(4)
H2 H 0.8247 -0.0414 0.6619
C5 C 0.72023(13) -0.03136(13) 0.66358(4)
C6 C 0.66314(13) -0.05091(15) 0.67594(4)
H3 H 0.6188 -0.0362 0.6718
C7 C 0.67049(12) -0.09190(14) 0.69432(4)
H4 H 0.6314 -0.1046 0.7024
C8 C 0.71005(13) 0.01163(13) 0.64380(4)
C9 C 0.74961(12) 0.00039(12) 0.6250
H5 H 0.7839 -0.0339 0.6250
C10 C 0.66009(13) 0.06371(12) 0.64371(4)
H6 H 0.6346 0.0729 0.6563
C11 C 0.64771(11) 0.10229(11) 0.6250
C12 C 0.59247(10) 0.15753(10) 0.6250
N1 N 0.56720(11) -0.2500 0.75306(3)
O1 O 0.68865(7) -0.17862(8) 0.72952(2)
O2 O 0.80415(7) -0.17925(8) 0.72521(2)
O3 O 0.57117(8) 0.17822(8) 0.64327(2)
O4 O 0.5000 0.2500 0.68155(5)
C13 C 0.54041(15) -0.1911(3) 0.76361(13)
H7 H 0.5572 -0.1901 0.7785
H8 H 0.5572 -0.1494 0.7563
C14 C 0.5410(2) -0.2500 0.73164(9)
H9 H 0.5578 -0.2906 0.7240
Cu1L Cu 1.000000(15) 0.0687 0.497766(5)
Cu1K Cu 0.8187 -0.250000(15) 0.747766(5)
Cu1O Cu 1.000000(15) -0.0687 0.502234(5)
Cu1A Cu 0.3187 -0.250000(15) 0.752234(5)
Cu1A_2 Cu 0.3187 0.750000(15) 0.752234(5)
Cu1J Cu 0.1813 0.750000(15) 0.747766(5)
Cu1E Cu 0.000000(15) 0.4313 0.497766(5)
Cu1F Cu 0.000000(15) 0.5687 0.502234(5)
Cu2E Cu 0.5000 0.2500 0.603569(7)
C1L C 0.91042(11) 0.00629(10) 0.52992(3)
C1A C 0.25629(10) 0.66042(11) 0.72008(3)
C1E C 0.08958(11) 0.49371(10) 0.52992(3)
C2L C 0.86402(12) 0.01395(11) 0.54928(3)
C2A C 0.26395(11) 0.61402(12) 0.70072(3)
C2E C 0.13598(12) 0.48605(11) 0.54928(3)
C3L C 0.84461(14) -0.04365(12) 0.56145(4)
C3A C 0.20635(12) 0.59461(14) 0.68855(4)
C3E C 0.15539(14) 0.54365(12) 0.56145(4)
H1L H 0.8590 -0.0880 0.5572
H1A H 0.1620 0.6090 0.6928
H1E H 0.1410 0.5880 0.5572
C4L C 0.80382(15) -0.03569(13) 0.57994(4)
C4A C 0.21431(13) 0.55382(15) 0.67006(4)
C4E C 0.19618(15) 0.53569(13) 0.57994(4)
H2L H 0.7914 -0.0747 0.5881
H2A H 0.1753 0.5414 0.6619
H2E H 0.2086 0.5747 0.5881
C5L C 0.78136(13) 0.02977(13) 0.58642(4)
C5A C 0.27977(13) 0.53136(13) 0.66358(4)
C5E C 0.21864(13) 0.47023(13) 0.58642(4)
C6L C 0.80091(15) 0.08686(13) 0.57406(4)
C6A C 0.33686(13) 0.55091(15) 0.67594(4)
C6E C 0.19909(15) 0.41314(13) 0.57406(4)
H3L H 0.7862 0.1312 0.5782
H3A H 0.3812 0.5362 0.6718
H3E H 0.2138 0.3688 0.5782
C7L C 0.84190(14) 0.07951(12) 0.55568(4)
C7A C 0.32951(12) 0.59190(14) 0.69432(4)
C7E C 0.15810(14) 0.42049(12) 0.55568(4)
H4L H 0.8546 0.1186 0.5476
H4A H 0.3686 0.6046 0.7024
H4E H 0.1454 0.3814 0.5476
C8L C 0.73837(13) 0.03995(13) 0.60620(4)
C8A C 0.28995(13) 0.48837(13) 0.64380(4)
C8E C 0.26163(13) 0.46005(13) 0.60620(4)
C9A C 0.25039(12) 0.49961(12) 0.6250
H5A H 0.2161 0.5339 0.6250
C10L C 0.68629(12) 0.08991(13) 0.60629(4)
C10A C 0.33991(13) 0.43629(12) 0.64371(4)
C10E C 0.31371(12) 0.41009(13) 0.60629(4)
H6L H 0.6771 0.1154 0.5937
H6A H 0.3654 0.4271 0.6563
H6E H 0.3229 0.3846 0.5937
C11A C 0.35229(11) 0.39771(11) 0.6250
C12A C 0.40753(10) 0.34247(10) 0.6250
N1A N 0.43280(11) -0.2500 0.75306(3)
N1K N 0.93280(11) -0.2500 0.74694(3)
O1L O 0.92862(8) 0.06135(7) 0.52048(2)
O1A O 0.31135(7) 0.67862(8) 0.72952(2)
O1E O 0.07138(8) 0.43865(7) 0.52048(2)
O1S O 0.68865(7) -0.32138(8) 0.72952(2)
O1K O 0.81135(7) -0.17862(8) 0.77048(2)
O1X O 0.81135(7) -0.32138(8) 0.77048(2)
O2L O 0.92925(8) -0.05415(7) 0.52479(2)
O2A O 0.19585(7) 0.67925(8) 0.72521(2)
O2E O 0.07075(8) 0.55415(7) 0.52479(2)
O2K O 0.69585(7) -0.17925(8) 0.77479(2)
O2X O 0.69585(7) -0.32075(8) 0.77479(2)
O2S O 0.80415(7) -0.32075(8) 0.72521(2)
O3L O 0.57178(8) 0.17883(8) 0.60673(2)
O3A O 0.42883(8) 0.32178(8) 0.64327(2)
O3E O 0.42822(8) 0.32117(8) 0.60673(2)
O3R O 0.42883(8) 0.17822(8) 0.64327(2)
O3S O 0.57117(8) 0.32178(8) 0.64327(2)
C13R C 0.45959(15) -0.1911(3) 0.76361(13)
C13A C 0.45959(15) -0.3089(3) 0.76361(13)
C13S C 0.54041(15) -0.3089(3) 0.76361(13)
H7S H 0.5572 -0.3099 0.7785
H7A H 0.4428 -0.3099 0.7785
H7R H 0.4428 -0.1901 0.7785
H8S H 0.5572 -0.3506 0.7563
H8A H 0.4428 -0.3506 0.7563
H8R H 0.4428 -0.1494 0.7563
C14A C 0.4590(2) -0.2500 0.73164(9)
H9A H 0.4422 -0.2094 0.7240
H9R H 0.4422 -0.2906 0.7240
H9S H 0.5578 -0.2094 0.7240
loop_
_geom_bond_atom_site_label_1
_geom_bond_atom_site_label_2
_geom_bond_site_symmetry_1
_geom_bond_site_symmetry_2
Cu1 N1 1_555 1_555
Cu2 O3 1_555 1_555
C1 C2 1_555 1_555
C2 C3 1_555 1_555
C3 H1 1_555 1_555
C4 C3 1_555 1_555
H2 C4 1_555 1_555
C5 C4 1_555 1_555
C6 C5 1_555 1_555
H3 C6 1_555 1_555
C7 C2 1_555 1_555
H4 C7 1_555 1_555
C8 C5 1_555 1_555
C9 C8 1_555 1_555
H5 C9 1_555 1_555
C10 C8 1_555 1_555
H6 C10 1_555 1_555
C11 C10 1_555 1_555
C12 C11 1_555 1_555
N1 C13 1_555 1_555
O1 Cu1 1_555 1_555
O2 C1 1_555 1_555
O3 C12 1_555 1_555
O4 Cu2 1_555 1_555
C13 H7 1_555 1_555
H8 C13 1_555 1_555
C14 N1 1_555 1_555
H9 C14 1_555 1_555
Cu1L O1L 1_555 1_555
Cu1K O2 1_555 1_555
Cu1O O2L 1_555 1_555
Cu1A N1A 1_555 1_555
Cu1A_2 O1A 1_555 1_555
Cu1J O2A 1_555 1_555
Cu1E O1E 1_555 1_555
Cu1F O2E 1_555 1_555
Cu2E O3L 1_555 1_555
C1L C2L 1_555 1_555
C1A C2A 1_555 1_555
C1E C2E 1_555 1_555
C2L C3L 1_555 1_555
C2A C3A 1_555 1_555
C2E C3E 1_555 1_555
C3L H1L 1_555 1_555
C3A H1A 1_555 1_555
C3E H1E 1_555 1_555
C4L C3L 1_555 1_555
C4A C3A 1_555 1_555
C4E C3E 1_555 1_555
H2L C4L 1_555 1_555
H2A C4A 1_555 1_555
H2E C4E 1_555 1_555
C5L C4L 1_555 1_555
C5A C4A 1_555 1_555
C5E C4E 1_555 1_555
C6L C5L 1_555 1_555
C6A C5A 1_555 1_555
C6E C5E 1_555 1_555
H3L C6L 1_555 1_555
H3A C6A 1_555 1_555
H3E C6E 1_555 1_555
C7L C2L 1_555 1_555
C7A C2A 1_555 1_555
C7E C2E 1_555 1_555
H4L C7L 1_555 1_555
H4A C7A 1_555 1_555
H4E C7E 1_555 1_555
C8L C9 1_555 1_555
C8A C5A 1_555 1_555
C8E C5E 1_555 1_555
C9A C8A 1_555 1_555
H5A C9A 1_555 1_555
C10L C11 1_555 1_555
C10A C8A 1_555 1_555
C10E C8E 1_555 1_555
H6L C10L 1_555 1_555
H6A C10A 1_555 1_555
H6E C10E 1_555 1_555
C11A C10A 1_555 1_555
C12A C11A 1_555 1_555
N1A C13R 1_555 1_555
N1K Cu1K 1_555 1_555
O1L C1L 1_555 1_555
O1A C1A 1_555 1_555
O1E C1E 1_555 1_555
O1S Cu1 1_555 1_555
O1K Cu1K 1_555 1_555
O1X Cu1K 1_555 1_555
O2L C1L 1_555 1_555
O2A C1A 1_555 1_555
O2E C1E 1_555 1_555
O2K Cu1 1_555 1_555
O2X Cu1 1_555 1_555
O2S Cu1K 1_555 1_555
O3L C12 1_555 1_555
O3A Cu2 1_555 1_555
O3E Cu2E 1_555 1_555
O3R Cu2 1_555 1_555
O3S Cu2 1_555 1_555
C13R C13 1_555 1_555
C13A N1A 1_555 1_555
C13S N1 1_555 1_555
H7S C13S 1_555 1_555
H7A C13A 1_555 1_555
H7R C13R 1_555 1_555
H8S C13S 1_555 1_555
H8A C13A 1_555 1_555
H8R C13R 1_555 1_555
C14A C14 1_555 1_555
H9A C14A 1_555 1_555
H9R C14A 1_555 1_555
H9S C14 1_555 1_555
C1 O1 1_555 1_555
C6 C7 1_555 1_555
C5L C8L 1_555 1_555
C6L C7L 1_555 1_555
C6A C7A 1_555 1_555
C6E C7E 1_555 1_555
C8L C10L 1_555 1_555
C8E C9A 1_555 1_555
C10E C11A 1_555 1_555
C12A O3A 1_555 1_555
C12A O3E 1_555 1_555
N1A C14A 1_555 1_555
C13A C13S 1_555 1_555

#END
