
#######################################################################
#
#                 Cambridge Crystallographic Data Centre
#                                CCDC 
#
#######################################################################
#
# If this CIF has been generated from an entry in the Cambridge 
# Structural Database, then it will include bibliographic, chemical, 
# crystal, experimental, refinement or atomic coordinate data resulting 
# from the CCDC's data processing and validation procedures.
#
#######################################################################

data_XALXUF
_chemical_formula_moiety         '(C54 H36 Cu6 N12 O30)n'
_chemical_name_systematic        
'catena-(bis(\m~12~-2,4,6-tris(3,5-Dicarboxylatophenylamino)-1,3,5-triazine)-hexa-aqua-hexa-copper unknown solvate)'
_symmetry_cell_setting           tetragonal
_symmetry_space_group_name_H-M   'I 4/m'
_symmetry_Int_Tables_number      87
_space_group_name_Hall           '-I 4'
loop_
_symmetry_equiv_pos_site_id
_symmetry_equiv_pos_as_xyz
1 x,y,z
2 -x,-y,z
3 -y,x,z
4 y,-x,z
5 1/2+x,1/2+y,1/2+z
6 1/2-x,1/2-y,1/2+z
7 1/2-y,1/2+x,1/2+z
8 1/2+y,1/2-x,1/2+z
9 -x,-y,-z
10 x,y,-z
11 y,-x,-z
12 -y,x,-z
13 1/2-x,1/2-y,1/2-z
14 1/2+x,1/2+y,1/2-z
15 1/2+y,1/2-x,1/2-z
16 1/2-y,1/2+x,1/2-z
_cell_length_a                   26.6700(3)
_cell_length_b                   26.6700(3)
_cell_length_c                   38.0416(10)
_cell_angle_alpha                90
_cell_angle_beta                 90
_cell_angle_gamma                90
_cell_volume                     27058.6
_exptl_crystal_colour            green
_exptl_crystal_description       octahedron
_cell_formula_units_Z            8
loop_
_atom_site_label
_atom_site_type_symbol
_atom_site_fract_x
_atom_site_fract_y
_atom_site_fract_z
Cu1 Cu 0.15909(2) 0.23140(2) 0.197284(13)
Cu2 Cu 0.11917(2) 0.17426(2) 0.148019(13)
Cu3 Cu 0.56653(3) 0.10817(3) 0.5000
Cu4 Cu 0.45002(3) -0.20543(3) 0.5000
C1 C 0.38018(18) -0.16765(17) 0.45116(10)
C2 C 0.30368(18) -0.27844(17) 0.35927(10)
C3 C 0.33866(17) -0.22271(16) 0.40593(10)
H1 H 0.3509 -0.2515 0.4179
C4 C 0.34847(16) -0.17461(17) 0.41889(10)
C5 C 0.31070(16) -0.22777(17) 0.37514(10)
C6 C 0.32923(17) -0.13340(19) 0.40186(11)
H2 H 0.3344 -0.1011 0.4117
C7 C 0.30235(17) -0.13765(19) 0.37059(11)
C8 C 0.29266(17) -0.18622(18) 0.35775(11)
H3 H 0.2735 -0.1904 0.3369
N1 N 0.27012(16) -0.02243(17) 0.32607(10)
N2 N 0.31442(15) 0.04881(17) 0.34658(11)
C9 C 0.2962(2) -0.0489(2) 0.34933(12)
C10 C 0.33960(19) 0.0192(2) 0.36838(12)
N3 N 0.33322(15) -0.03075(16) 0.37074(10)
C11 C 0.2820(2) 0.0261(2) 0.32490(12)
C12 C 0.39971(17) 0.17378(17) 0.38163(10)
C13 C 0.45180(17) 0.13896(17) 0.42638(10)
C14 C 0.49123(19) 0.14449(17) 0.45344(10)
C15 C 0.43481(16) 0.18004(17) 0.40816(10)
H4 H 0.4470 0.2126 0.4137
C16 C 0.43132(16) 0.09250(17) 0.41912(10)
H5 H 0.4429 0.0642 0.4320
C17 C 0.38130(18) 0.1287(2) 0.37446(12)
H6 H 0.3582 0.1254 0.3556
C18 C 0.39450(18) 0.0854(2) 0.39381(11)
C19 C 0.18550(16) 0.07953(16) 0.22312(10)
C20 C 0.23206(17) -0.00126(18) 0.25485(12)
H7 H 0.2485 -0.0290 0.2654
C21 C 0.23390(18) 0.0460(2) 0.27085(11)
C22 C 0.21164(17) 0.08639(19) 0.25451(11)
H8 H 0.2141 0.1189 0.2646
C23 C 0.18257(16) 0.03362(16) 0.20760(10)
H9 H 0.1648 0.0291 0.1862
C24 C 0.16497(18) 0.12563(16) 0.20476(11)
C25 C 0.38307(18) 0.21875(17) 0.36071(11)
C26 C 0.20565(18) -0.05773(18) 0.20621(11)
C27 C 0.20686(16) -0.00741(17) 0.22428(10)
N4 N 0.28406(14) -0.09781(18) 0.35046(10)
H10 H 0.2601 -0.1063 0.3358
N5 N 0.37589(14) 0.03662(17) 0.38945(10)
H11 H 0.3904 0.0138 0.4027
N6 N 0.25981(14) 0.05701(18) 0.30230(11)
H12 H 0.2615 0.0890 0.3077
O1 O 0.46250(18) -0.2861(2) 0.5000
O2 O 0.58300(19) 0.0298(2) 0.5000
O3 O 0.51369(11) 0.10621(12) 0.46389(7)
O4 O 0.38585(11) -0.12482(12) 0.46285(7)
O5 O 0.39880(11) -0.20737(11) 0.46342(7)
O6 O 0.14446(11) 0.11757(11) 0.17484(7)
O7 O 0.17040(11) 0.16679(11) 0.21988(7)
O8 O 0.23279(11) -0.09148(11) 0.21828(7)
O9 O 0.17754(10) -0.06138(11) 0.17919(7)
O10 O 0.39886(11) 0.26143(11) 0.37128(7)
O11 O 0.35739(11) 0.21187(11) 0.33337(7)
O12 O 0.07556(17) 0.13566(15) 0.10817(8)
O13 O 0.20032(15) 0.27185(15) 0.23781(10)
O14 O 0.50009(11) 0.18913(12) 0.46378(7)
O15 O 0.27974(10) -0.28044(11) 0.33081(7)
O16 O 0.32219(11) -0.31552(11) 0.37503(7)
Cu1I Cu 0.15909(2) 0.23140(2) 0.802716(13)
Cu1C Cu 0.23140(2) -0.15909(2) 0.197284(13)
Cu1L Cu 0.34091(2) 0.26860(2) 0.302716(13)
Cu1O Cu 0.26860(2) -0.34091(2) 0.302716(13)
Cu1J Cu 0.23140(2) -0.15909(2) 0.802716(13)
Cu1E Cu 0.34091(2) 0.26860(2) 0.697284(13)
Cu1F Cu 0.26860(2) -0.34091(2) 0.697284(13)
Cu2I Cu 0.11917(2) 0.17426(2) 0.851981(13)
Cu2C Cu 0.17426(2) -0.11917(2) 0.148019(13)
Cu2L Cu 0.38083(2) 0.32574(2) 0.351981(13)
Cu2O Cu 0.32574(2) -0.38083(2) 0.351981(13)
Cu2J Cu 0.17426(2) -0.11917(2) 0.851981(13)
Cu2E Cu 0.38083(2) 0.32574(2) 0.648019(13)
Cu2F Cu 0.32574(2) -0.38083(2) 0.648019(13)
Cu3A Cu 0.43347(3) -0.10817(3) 0.5000
Cu4A Cu 0.54998(3) 0.20543(3) 0.5000
C1I C 0.38018(18) -0.16765(17) 0.54884(10)
C2I C 0.30368(18) -0.27844(17) 0.64073(10)
C3I C 0.33866(17) -0.22271(16) 0.59407(10)
H1I H 0.3509 -0.2515 0.5821
C4I C 0.34847(16) -0.17461(17) 0.58111(10)
C5I C 0.31070(16) -0.22777(17) 0.62486(10)
C6I C 0.32923(17) -0.13340(19) 0.59814(11)
H2I H 0.3344 -0.1011 0.5883
C7I C 0.30235(17) -0.13765(19) 0.62941(11)
C8I C 0.29266(17) -0.18622(18) 0.64225(11)
H3I H 0.2735 -0.1904 0.6631
N1I N 0.27012(16) -0.02243(17) 0.67393(10)
N2I N 0.31442(15) 0.04881(17) 0.65342(11)
C9I C 0.2962(2) -0.0489(2) 0.65067(12)
C10I C 0.33960(19) 0.0192(2) 0.63162(12)
N3I N 0.33322(15) -0.03075(16) 0.62926(10)
C11I C 0.2820(2) 0.0261(2) 0.67510(12)
C12I C 0.39971(17) 0.17378(17) 0.61837(10)
C13I C 0.45180(17) 0.13896(17) 0.57362(10)
C14I C 0.49123(19) 0.14449(17) 0.54656(10)
C15I C 0.43481(16) 0.18004(17) 0.59184(10)
H4I H 0.4470 0.2126 0.5863
C16I C 0.43132(16) 0.09250(17) 0.58088(10)
H5I H 0.4429 0.0642 0.5680
C17I C 0.38130(18) 0.1287(2) 0.62554(12)
H6I H 0.3582 0.1254 0.6444
C18I C 0.39450(18) 0.0854(2) 0.60619(11)
C19I C 0.18550(16) 0.07953(16) 0.77688(10)
C20I C 0.23206(17) -0.00126(18) 0.74515(12)
H7I H 0.2485 -0.0290 0.7346
C21I C 0.23390(18) 0.0460(2) 0.72915(11)
C22I C 0.21164(17) 0.08639(19) 0.74549(11)
H8I H 0.2141 0.1189 0.7354
C23I C 0.18257(16) 0.03362(16) 0.79240(10)
H9I H 0.1648 0.0291 0.8138
C24I C 0.16497(18) 0.12563(16) 0.79524(11)
C25I C 0.38307(18) 0.21875(17) 0.63929(11)
C26I C 0.20565(18) -0.05773(18) 0.79379(11)
C27I C 0.20686(16) -0.00741(17) 0.77572(10)
N4I N 0.28406(14) -0.09781(18) 0.64954(10)
H10I H 0.2601 -0.1063 0.6642
N5I N 0.37589(14) 0.03662(17) 0.61055(10)
H11I H 0.3904 0.0138 0.5973
N6I N 0.25981(14) 0.05701(18) 0.69770(11)
H12I H 0.2615 0.0890 0.6923
O3I O 0.51369(11) 0.10621(12) 0.53611(7)
O4I O 0.38585(11) -0.12482(12) 0.53715(7)
O4A O 0.61415(11) 0.12482(12) 0.46285(7)
O4H O 0.61415(11) 0.12482(12) 0.53715(7)
O5I O 0.39880(11) -0.20737(11) 0.53658(7)
O6I O 0.14446(11) 0.11757(11) 0.82516(7)
O7I O 0.17040(11) 0.16679(11) 0.78012(7)
O8I O 0.23279(11) -0.09148(11) 0.78172(7)
O8B O 0.09148(11) 0.23279(11) 0.21828(7)
O8K O 0.09148(11) 0.23279(11) 0.78172(7)
O9I O 0.17754(10) -0.06138(11) 0.82081(7)
O9B O 0.06138(11) 0.17754(10) 0.17919(7)
O9K O 0.06138(11) 0.17754(10) 0.82081(7)
O10I O 0.39886(11) 0.26143(11) 0.62872(7)
O10L O 0.10114(11) 0.23857(11) 0.12872(7)
O10E O 0.10114(11) 0.23857(11) 0.87128(7)
O11I O 0.35739(11) 0.21187(11) 0.66663(7)
O11L O 0.14261(11) 0.28813(11) 0.16663(7)
O11E O 0.14261(11) 0.28813(11) 0.83337(7)
O12I O 0.07556(17) 0.13566(15) 0.89183(8)
O13I O 0.20032(15) 0.27185(15) 0.76219(10)
O14I O 0.50009(11) 0.18913(12) 0.53622(7)
O14A O 0.49991(11) -0.18913(12) 0.46378(7)
O14H O 0.49991(11) -0.18913(12) 0.53622(7)
O15I O 0.27974(10) -0.28044(11) 0.66919(7)
O15N O 0.21956(11) 0.22026(10) 0.16919(7)
O15G O 0.21956(11) 0.22026(10) 0.83081(7)
O16I O 0.32219(11) -0.31552(11) 0.62497(7)
O16N O 0.18448(11) 0.17781(11) 0.12497(7)
O16G O 0.18448(11) 0.17781(11) 0.87503(7)
loop_
_geom_bond_atom_site_label_1
_geom_bond_atom_site_label_2
_geom_bond_site_symmetry_1
_geom_bond_site_symmetry_2
Cu1 O7 1_555 1_555
Cu2 O6 1_555 1_555
Cu3 O2 1_555 1_555
Cu4 O1 1_555 1_555
C1 C4 1_555 1_555
C2 C5 1_555 1_555
C3 H1 1_555 1_555
C4 C3 1_555 1_555
C5 C3 1_555 1_555
C6 C4 1_555 1_555
H2 C6 1_555 1_555
C7 C6 1_555 1_555
C8 C5 1_555 1_555
H3 C8 1_555 1_555
N1 C9 1_555 1_555
N2 C10 1_555 1_555
C9 N3 1_555 1_555
C10 N3 1_555 1_555
C11 N1 1_555 1_555
C12 C15 1_555 1_555
C13 C14 1_555 1_555
C14 O3 1_555 1_555
C15 C13 1_555 1_555
H4 C15 1_555 1_555
C16 C13 1_555 1_555
H5 C16 1_555 1_555
C17 C12 1_555 1_555
H6 C17 1_555 1_555
C18 C16 1_555 1_555
C19 C22 1_555 1_555
C20 H7 1_555 1_555
C21 C20 1_555 1_555
C22 C21 1_555 1_555
H8 C22 1_555 1_555
C23 C19 1_555 1_555
H9 C23 1_555 1_555
C24 C19 1_555 1_555
C25 C12 1_555 1_555
C26 C27 1_555 1_555
C27 C20 1_555 1_555
N4 C7 1_555 1_555
H10 N4 1_555 1_555
N5 C10 1_555 1_555
H11 N5 1_555 1_555
N6 C11 1_555 1_555
H12 N6 1_555 1_555
O3 Cu3 1_555 1_555
O4 C1 1_555 1_555
O5 Cu4 1_555 1_555
O6 C24 1_555 1_555
O7 C24 1_555 1_555
O8 C26 1_555 1_555
O9 C26 1_555 1_555
O10 C25 1_555 1_555
O11 C25 1_555 1_555
O12 Cu2 1_555 1_555
O13 Cu1 1_555 1_555
O14 C14 1_555 1_555
O15 C2 1_555 1_555
O16 C2 1_555 1_555
Cu1I O7I 1_555 1_555
Cu1C O8 1_555 1_555
Cu1L O11 1_555 1_555
Cu1O O15 1_555 1_555
Cu1J O8I 1_555 1_555
Cu1E O11I 1_555 1_555
Cu1F O15I 1_555 1_555
Cu2I O6I 1_555 1_555
Cu2C O9 1_555 1_555
Cu2L O10 1_555 1_555
Cu2O O16 1_555 1_555
Cu2J O9I 1_555 1_555
Cu2E O10I 1_555 1_555
Cu2F O16I 1_555 1_555
Cu3A O4 1_555 1_555
Cu4A O14 1_555 1_555
C1I C4I 1_555 1_555
C2I C5I 1_555 1_555
C3I H1I 1_555 1_555
C4I C3I 1_555 1_555
C5I C3I 1_555 1_555
C6I C4I 1_555 1_555
H2I C6I 1_555 1_555
C7I C6I 1_555 1_555
C8I C5I 1_555 1_555
H3I C8I 1_555 1_555
N1I C9I 1_555 1_555
N2I C10I 1_555 1_555
C9I N3I 1_555 1_555
C10I N3I 1_555 1_555
C11I N1I 1_555 1_555
C12I C15I 1_555 1_555
C13I C14I 1_555 1_555
C14I O3I 1_555 1_555
C15I C13I 1_555 1_555
H4I C15I 1_555 1_555
C16I C13I 1_555 1_555
H5I C16I 1_555 1_555
C17I C12I 1_555 1_555
H6I C17I 1_555 1_555
C18I C16I 1_555 1_555
C19I C22I 1_555 1_555
C20I H7I 1_555 1_555
C21I C20I 1_555 1_555
C22I C21I 1_555 1_555
H8I C22I 1_555 1_555
C23I C19I 1_555 1_555
H9I C23I 1_555 1_555
C24I C19I 1_555 1_555
C25I C12I 1_555 1_555
C26I C27I 1_555 1_555
C27I C20I 1_555 1_555
N4I C7I 1_555 1_555
H10I N4I 1_555 1_555
N5I C10I 1_555 1_555
H11I N5I 1_555 1_555
N6I C11I 1_555 1_555
H12I N6I 1_555 1_555
O3I Cu3 1_555 1_555
O4I Cu3A 1_555 1_555
O4A Cu3 1_555 1_555
O4H Cu3 1_555 1_555
O5I Cu4 1_555 1_555
O6I C24I 1_555 1_555
O7I C24I 1_555 1_555
O8I C26I 1_555 1_555
O8B Cu1 1_555 1_555
O8K Cu1I 1_555 1_555
O9I C26I 1_555 1_555
O9B Cu2 1_555 1_555
O9K Cu2I 1_555 1_555
O10I C25I 1_555 1_555
O10L Cu2 1_555 1_555
O10E Cu2I 1_555 1_555
O11I C25I 1_555 1_555
O11L Cu1 1_555 1_555
O11E Cu1I 1_555 1_555
O12I Cu2I 1_555 1_555
O13I Cu1I 1_555 1_555
O14I Cu4A 1_555 1_555
O14A Cu4 1_555 1_555
O14H Cu4 1_555 1_555
O15I C2I 1_555 1_555
O15N Cu1 1_555 1_555
O15G Cu1I 1_555 1_555
O16I C2I 1_555 1_555
O16N Cu2 1_555 1_555
O16G Cu2I 1_555 1_555
C1 O5 1_555 1_555
C7 C8 1_555 1_555
N2 C11 1_555 1_555
C9 N4 1_555 1_555
C17 C18 1_555 1_555
C18 N5 1_555 1_555
C21 N6 1_555 1_555
C23 C27 1_555 1_555
C1I O4I 1_555 1_555
C1I O5I 1_555 1_555
C7I C8I 1_555 1_555
N2I C11I 1_555 1_555
C9I N4I 1_555 1_555
C14I O14I 1_555 1_555
C17I C18I 1_555 1_555
C18I N5I 1_555 1_555
C21I N6I 1_555 1_555
C23I C27I 1_555 1_555

#END
