
#######################################################################
#
#                 Cambridge Crystallographic Data Centre
#                                CCDC 
#
#######################################################################
#
# If this CIF has been generated from an entry in the Cambridge 
# Structural Database, then it will include bibliographic, chemical, 
# crystal, experimental, refinement or atomic coordinate data resulting 
# from the CCDC's data processing and validation procedures.
#
#######################################################################

data_HAZGOF06
_chemical_name_common            
catena-[tris(mu!4$-Terephthalato)-di-scandium(iii)]
_chemical_formula_moiety         '(C24 H12 O12 Sc2)n'
_chemical_name_systematic        
catena-[tris(\m~4~-Benzene-1,4-dicarboxylato)-di-scandium(iii)]
_symmetry_cell_setting           orthorhombic
_symmetry_space_group_name_H-M   'F d d d'
_symmetry_Int_Tables_number      70
_space_group_name_Hall           '-F 2uv 2vw'
loop_
_symmetry_equiv_pos_site_id
_symmetry_equiv_pos_as_xyz
1 x,y,z
2 3/4-x,1/4-y,1/2+z
3 x,3/4-y,3/4-z
4 3/4-x,y,3/4-z
5 x,1/2+y,1/2+z
6 3/4-x,3/4-y,z
7 x,1/4-y,1/4-z
8 3/4-x,1/2+y,1/4-z
9 1/2+x,y,1/2+z
10 1/4-x,1/4-y,z
11 1/2+x,3/4-y,1/4-z
12 1/4-x,y,1/4-z
13 1/2+x,1/2+y,z
14 1/4-x,3/4-y,1/2+z
15 1/2+x,1/4-y,3/4-z
16 1/4-x,1/2+y,3/4-z
17 -x,-y,-z
18 1/4+x,3/4+y,1/2-z
19 -x,1/4+y,1/4+z
20 1/4+x,-y,1/4+z
21 -x,1/2-y,1/2-z
22 1/4+x,1/4+y,-z
23 -x,3/4+y,3/4+z
24 1/4+x,1/2-y,3/4+z
25 1/2-x,-y,1/2-z
26 3/4+x,3/4+y,-z
27 1/2-x,1/4+y,3/4+z
28 3/4+x,-y,3/4+z
29 1/2-x,1/2-y,-z
30 3/4+x,1/4+y,1/2-z
31 1/2-x,3/4+y,1/4+z
32 3/4+x,1/2-y,1/4+z
_cell_length_a                   8.725487(17)
_cell_length_b                   20.728004(23)
_cell_length_c                   34.35838(4)
_cell_angle_alpha                90
_cell_angle_beta                 90
_cell_angle_gamma                90
_cell_volume                     6214.12
_cell_formula_units_Z            8
_exptl_crystal_preparation       
'The void space in the structure contains no guest molecules as the sample was heated to 623 K under vacuum prior to data collection'
loop_
_atom_site_label
_atom_site_type_symbol
_atom_site_fract_x
_atom_site_fract_y
_atom_site_fract_z
_atom_site_U_iso_or_equiv
_atom_site_thermal_displace_type
Sc1 Sc 0.125 0.125 0.364284(29) 0.0150 Uiso
O1 O -0.00660(29) 0.20832(10) 0.36468(7) 0.0504 Uiso
O2 O 0.26250(30) 0.16540(11) 0.32042(6) 0.0363 Uiso
O3 O 0.49565(32) 0.16518(12) 0.34206(6) 0.0496 Uiso
C1 C -0.125 0.23666(24) 0.375 0.0729 Uiso
C2 C -0.125 0.30945(17) 0.375 0.0491 Uiso
C3 C -0.26409(32) 0.34087(12) 0.37509(12) 0.0591 Uiso
C4 C 0.3970(5) 0.17972(17) 0.31703(10) 0.0653 Uiso
C5 C 0.4548(5) 0.21790(17) 0.28186(9) 0.0411 Uiso
C6 C 0.3412(4) 0.23518(17) 0.25461(11) 0.0567 Uiso
C7 C 0.6065(5) 0.23066(18) 0.27814(10) 0.0637 Uiso
Sc1C Sc -0.375 0.125 0.385716(29) 0.0150 Uiso
Sc1C_2 Sc 0.625 0.125 0.385716(29) 0.0150 Uiso
Sc1B Sc 0.125 0.625 0.385716(29) 0.0150 Uiso
Sc1E Sc -0.375 0.625 0.364284(29) 0.0150 Uiso
Sc1T Sc 0.875 0.375 0.135716(29) 0.0150 Uiso
Sc1W Sc 0.375 0.375 0.114284(29) 0.0150 Uiso
Sc1Q Sc -0.625 -0.125 0.135716(29) 0.0150 Uiso
Sc1V Sc -0.125 -0.125 0.114284(29) 0.0150 Uiso
O1C O -0.24340(29) 0.20832(10) 0.38532(7) 0.0504 Uiso
O1B O -0.00660(29) 0.54168(10) 0.38532(7) 0.0504 Uiso
O1E O -0.24340(29) 0.54168(10) 0.36468(7) 0.0504 Uiso
O1I O 0.25660(29) 0.04168(10) 0.36468(7) 0.0504 Uiso
O1N O -0.50660(29) 0.04168(10) 0.38532(7) 0.0504 Uiso
O2T O 0.73750(30) 0.33460(11) 0.17958(6) 0.0363 Uiso
O2I O -0.01250(30) 0.08460(11) 0.32042(6) 0.0363 Uiso
O2Q O -0.48750(30) -0.08460(11) 0.17958(6) 0.0363 Uiso
O2C O -0.51250(30) 0.16540(11) 0.42958(6) 0.0363 Uiso
O2N O -0.23750(30) 0.08460(11) 0.42958(6) 0.0363 Uiso
O3T O 0.50435(32) 0.33482(12) 0.15794(6) 0.0496 Uiso
O3I O -0.24565(32) 0.08482(12) 0.34206(6) 0.0496 Uiso
O3Q O -0.25435(32) -0.08482(12) 0.15794(6) 0.0496 Uiso
O3N O -0.00435(32) 0.08482(12) 0.40794(6) 0.0496 Uiso
O3C O 0.25435(32) 0.16518(12) 0.40794(6) 0.0496 Uiso
O3_2 O -0.50435(32) 0.16518(12) 0.34206(6) 0.0496 Uiso
C1B C -0.125 0.51334(24) 0.375 0.0729 Uiso
C2B C -0.125 0.44055(17) 0.375 0.0491 Uiso
C3B C -0.26409(32) 0.40913(12) 0.37491(12) 0.0591 Uiso
C3E C 0.01409(32) 0.40913(12) 0.37509(12) 0.0591 Uiso
C3C C 0.01409(32) 0.34087(12) 0.37491(12) 0.0591 Uiso
C4T C 0.6030(5) 0.32028(17) 0.18297(10) 0.0653 Uiso
C4I C -0.1470(5) 0.07028(17) 0.31703(10) 0.0653 Uiso
C4Q C -0.3530(5) -0.07028(17) 0.18297(10) 0.0653 Uiso
C5T C 0.5452(5) 0.28210(17) 0.21814(9) 0.0411 Uiso
C5I C -0.2048(5) 0.03210(17) 0.28186(9) 0.0411 Uiso
C5Q C -0.2952(5) -0.03210(17) 0.21814(9) 0.0411 Uiso
C6T C 0.6588(4) 0.26482(17) 0.24539(11) 0.0567 Uiso
C6I C -0.0912(4) 0.01482(17) 0.25461(11) 0.0567 Uiso
C6Q C -0.4088(4) -0.01482(17) 0.24539(11) 0.0567 Uiso
C7T C 0.3935(5) 0.26934(18) 0.22186(10) 0.0637 Uiso
C7I C -0.3565(5) 0.01934(18) 0.27814(10) 0.0637 Uiso
C7Q C -0.1435(5) -0.01934(18) 0.22186(10) 0.0637 Uiso
loop_
_geom_bond_atom_site_label_1
_geom_bond_atom_site_label_2
_geom_bond_site_symmetry_1
_geom_bond_site_symmetry_2
Sc1 O1 1_555 1_555
O1 C1 1_555 1_555
O2 Sc1 1_555 1_555
O3 C4 1_555 1_555
C1 C2 1_555 1_555
C2 C3 1_555 1_555
C3 C3B 1_555 1_555
C4 O2 1_555 1_555
C5 C4 1_555 1_555
C6 C5 1_555 1_555
C7 C5 1_555 1_555
Sc1C O1C 1_555 1_555
Sc1C_2 O3 1_555 1_555
Sc1B O1B 1_555 1_555
Sc1E O1E 1_555 1_555
Sc1T O2T 1_555 1_555
Sc1W O3T 1_555 1_555
Sc1Q O2Q 1_555 1_555
Sc1V O3Q 1_555 1_555
O1C C1 1_555 1_555
O1B C1B 1_555 1_555
O1E C1B 1_555 1_555
O1I Sc1 1_555 1_555
O1N Sc1C 1_555 1_555
O2T C4T 1_555 1_555
O2I Sc1 1_555 1_555
O2Q C4Q 1_555 1_555
O2C Sc1C 1_555 1_555
O2N Sc1C 1_555 1_555
O3T C4T 1_555 1_555
O3I Sc1C 1_555 1_555
O3Q C4Q 1_555 1_555
O3N Sc1 1_555 1_555
O3C Sc1 1_555 1_555
O3_2 Sc1C 1_555 1_555
C1B C2B 1_555 1_555
C2B C3B 1_555 1_555
C3E C2B 1_555 1_555
C3C C2 1_555 1_555
C4T C5T 1_555 1_555
C4I O2I 1_555 1_555
C4Q C5Q 1_555 1_555
C5T C6T 1_555 1_555
C5I C4I 1_555 1_555
C5Q C6Q 1_555 1_555
C6T C7 1_555 1_555
C6I C5I 1_555 1_555
C6Q C7I 1_555 1_555
C7T C6 1_555 1_555
C7I C5I 1_555 1_555
C7Q C5Q 1_555 1_555
O3I C4I 1_555 1_555
C3E C3C 1_555 1_555
C5T C7T 1_555 1_555
C6I C7Q 1_555 1_555

#END
