
#######################################################################
#
#                 Cambridge Crystallographic Data Centre
#                                CCDC 
#
#######################################################################
#
# If this CIF has been generated from an entry in the Cambridge 
# Structural Database, then it will include bibliographic, chemical, 
# crystal, experimental, refinement or atomic coordinate data resulting 
# from the CCDC's data processing and validation procedures.
#
#######################################################################

data_MAWVEN01
_chemical_name_common            
catena-[tris(mu!4$-2-Aminoterephthalato)-di-scandium(iii)]
_chemical_formula_moiety         '(C24 H15 N3 O12 Sc2)n'
_chemical_name_systematic        
catena-[tris(\m~4~-2-Aminobenzene-1,4-dicarboxylato)-di-scandium(iii)]
_symmetry_cell_setting           orthorhombic
_symmetry_space_group_name_H-M   'F d d d'
_symmetry_Int_Tables_number      70
_space_group_name_Hall           '-F 2uv 2vw'
loop_
_symmetry_equiv_pos_site_id
_symmetry_equiv_pos_as_xyz
1 x,y,z
2 3/4-x,1/4-y,1/2+z
3 x,3/4-y,3/4-z
4 3/4-x,y,3/4-z
5 x,1/2+y,1/2+z
6 3/4-x,3/4-y,z
7 x,1/4-y,1/4-z
8 3/4-x,1/2+y,1/4-z
9 1/2+x,y,1/2+z
10 1/4-x,1/4-y,z
11 1/2+x,3/4-y,1/4-z
12 1/4-x,y,1/4-z
13 1/2+x,1/2+y,z
14 1/4-x,3/4-y,1/2+z
15 1/2+x,1/4-y,3/4-z
16 1/4-x,1/2+y,3/4-z
17 -x,-y,-z
18 1/4+x,3/4+y,1/2-z
19 -x,1/4+y,1/4+z
20 1/4+x,-y,1/4+z
21 -x,1/2-y,1/2-z
22 1/4+x,1/4+y,-z
23 -x,3/4+y,3/4+z
24 1/4+x,1/2-y,3/4+z
25 1/2-x,-y,1/2-z
26 3/4+x,3/4+y,-z
27 1/2-x,1/4+y,3/4+z
28 3/4+x,-y,3/4+z
29 1/2-x,1/2-y,-z
30 3/4+x,1/4+y,1/2-z
31 1/2-x,3/4+y,1/4+z
32 3/4+x,1/2-y,1/4+z
_cell_length_a                   8.6995(4)
_cell_length_b                   20.8176(8)
_cell_length_c                   34.3571(12)
_cell_angle_alpha                90
_cell_angle_beta                 90
_cell_angle_gamma                90
_cell_volume                     6222.16
_cell_formula_units_Z            8
_exptl_crystal_preparation       
'The void space in the structure contains no guest molecules as the sample was heated to 443 K under vacuum prior to data collection'
loop_
_atom_site_label
_atom_site_type_symbol
_atom_site_fract_x
_atom_site_fract_y
_atom_site_fract_z
_atom_site_U_iso_or_equiv
_atom_site_thermal_displace_type
Sc1 Sc 0.125 0.625 0.38430(13) 0.0055 Uiso
O1 O -0.0052(4) 0.53966(19) 0.38531(23) 0.0055 Uiso
O2 O -0.0045(5) 0.6659(4) 0.42993(17) 0.0055 Uiso
O3 O -0.2442(5) 0.6681(4) 0.41048(14) 0.0055 Uiso
C1 C -0.125 0.51097(14) 0.375 0.0061 Uiso
C2 C -0.125 0.44148(11) 0.375 0.0061 Uiso
C3 C -0.26442(19) 0.40847(5) 0.3748(6) 0.0061 Uiso
N1 N -0.4156(6) 0.4384(5) 0.3742(15) 0.0061 Uiso
C4 C -0.1404(4) 0.68427(35) 0.43382(12) 0.0061 Uiso
C5 C -0.1899(4) 0.71383(28) 0.46984(11) 0.0061 Uiso
C6 C -0.09273(28) 0.73845(32) 0.49834(12) 0.0061 Uiso
N2 N 0.0632(5) 0.7143(5) 0.50063(32) 0.0061 Uiso
C7 C -0.3418(4) 0.7349(4) 0.46838(11) 0.0061 Uiso
Sc1U Sc -0.625 0.875 0.61570(13) 0.0055 Uiso
Sc1C Sc -0.375 0.625 0.36570(13) 0.0055 Uiso
Sc1C_2 Sc 0.625 0.625 0.36570(13) 0.0055 Uiso
Sc1V Sc -0.125 0.375 0.13430(13) 0.0055 Uiso
Sc1B Sc 0.125 0.125 0.36570(13) 0.0055 Uiso
Sc1E Sc -0.375 0.125 0.38430(13) 0.0055 Uiso
Sc1R Sc -0.125 0.875 0.63430(13) 0.0055 Uiso
Sc1Q Sc 0.375 0.375 0.11570(13) 0.0055 Uiso
O1C O -0.2448(4) 0.53966(19) 0.36469(23) 0.0055 Uiso
O1B O -0.0052(4) 0.21034(19) 0.36469(23) 0.0055 Uiso
O1E O -0.2448(4) 0.21034(19) 0.38531(23) 0.0055 Uiso
O1I O 0.2552(4) 0.71034(19) 0.38531(23) 0.0055 Uiso
O1N O -0.5052(4) 0.71034(19) 0.36469(23) 0.0055 Uiso
O2BA O -0.4955(5) 0.8341(4) 0.57007(17) 0.0055 Uiso
O2C O -0.2455(5) 0.6659(4) 0.32007(17) 0.0055 Uiso
O2N O 0.4955(5) 0.5841(4) 0.32007(17) 0.0055 Uiso
O2V O 0.0045(5) 0.4159(4) 0.17993(17) 0.0055 Uiso
O2I O 0.2545(5) 0.5841(4) 0.42993(17) 0.0055 Uiso
O2N_2 O -0.5045(5) 0.5841(4) 0.32007(17) 0.0055 Uiso
O3BA O -0.2558(5) 0.8319(4) 0.58952(14) 0.0055 Uiso
O3C O -0.0058(5) 0.6681(4) 0.33952(14) 0.0055 Uiso
O3N O 0.2558(5) 0.5819(4) 0.33952(14) 0.0055 Uiso
O3V O 0.2442(5) 0.4181(4) 0.16048(14) 0.0055 Uiso
O3I O -0.5058(5) 0.5819(4) 0.41048(14) 0.0055 Uiso
C1B C -0.125 0.23903(14) 0.375 0.0061 Uiso
C2B C -0.125 0.30852(11) 0.375 0.0061 Uiso
C3B C -0.26442(19) 0.34153(5) 0.3752(6) 0.0061 Uiso
C3E C 0.01442(19) 0.34153(5) 0.3748(6) 0.0061 Uiso
C3C C 0.01442(19) 0.40847(5) 0.3752(6) 0.0061 Uiso
N1E N 0.1656(6) 0.3116(5) 0.3742(15) 0.0061 Uiso
N1C N 0.1656(6) 0.4384(5) 0.3758(15) 0.0061 Uiso
N1B N -0.4156(6) 0.3116(5) 0.3758(15) 0.0061 Uiso
C4BA C -0.3596(4) 0.81573(35) 0.56618(12) 0.0061 Uiso
C4N C 0.3596(4) 0.56573(35) 0.31618(12) 0.0061 Uiso
C4V C 0.1404(4) 0.43427(35) 0.18382(12) 0.0061 Uiso
C5BA C -0.3101(4) 0.78617(28) 0.53016(11) 0.0061 Uiso
C5N C 0.3101(4) 0.53617(28) 0.28016(11) 0.0061 Uiso
C5V C 0.1899(4) 0.46383(28) 0.21984(11) 0.0061 Uiso
C6BA C -0.40727(28) 0.76155(32) 0.50166(12) 0.0061 Uiso
C6N C 0.40727(28) 0.51155(32) 0.25166(12) 0.0061 Uiso
C6V C 0.09273(28) 0.48845(32) 0.24834(12) 0.0061 Uiso
N2BA N -0.5632(5) 0.7857(5) 0.49937(32) 0.0061 Uiso
N2N N 0.5632(5) 0.5357(5) 0.24937(32) 0.0061 Uiso
N2V N -0.0632(5) 0.4643(5) 0.25063(32) 0.0061 Uiso
C7BA C -0.1582(4) 0.7651(4) 0.53162(11) 0.0061 Uiso
C7N C 0.1582(4) 0.5151(4) 0.28162(11) 0.0061 Uiso
C7V C 0.3418(4) 0.4849(4) 0.21838(11) 0.0061 Uiso
loop_
_geom_bond_atom_site_label_1
_geom_bond_atom_site_label_2
_geom_bond_site_symmetry_1
_geom_bond_site_symmetry_2
Sc1 O1 1_555 1_555
O1 C1 1_555 1_555
O2 Sc1 1_555 1_555
O3 C4 1_555 1_555
C1 C2 1_555 1_555
C2 C3 1_555 1_555
C3 N1 1_555 1_555
C4 O2 1_555 1_555
C5 C4 1_555 1_555
C6 C5 1_555 1_555
N2 C6 1_555 1_555
C7 C5 1_555 1_555
Sc1U O2BA 1_555 1_555
Sc1C O3 1_555 1_555
Sc1C_2 O2N 1_555 1_555
Sc1V O2V 1_555 1_555
Sc1B O1B 1_555 1_555
Sc1E O1E 1_555 1_555
Sc1R O3BA 1_555 1_555
Sc1Q O3V 1_555 1_555
O1C C1 1_555 1_555
O1B C1B 1_555 1_555
O1E C1B 1_555 1_555
O1I Sc1 1_555 1_555
O1N Sc1C 1_555 1_555
O2BA C4BA 1_555 1_555
O2C Sc1C 1_555 1_555
O2N C4N 1_555 1_555
O2V C4V 1_555 1_555
O2I Sc1 1_555 1_555
O2N_2 Sc1C 1_555 1_555
O3BA C4BA 1_555 1_555
O3C Sc1 1_555 1_555
O3N Sc1 1_555 1_555
O3V C4V 1_555 1_555
O3I Sc1C 1_555 1_555
C1B C2B 1_555 1_555
C2B C3B 1_555 1_555
C3B C3 1_555 1_555
C3E C2B 1_555 1_555
C3C C2 1_555 1_555
N1E C3E 1_555 1_555
N1C C3C 1_555 1_555
N1B C3B 1_555 1_555
C4BA C5BA 1_555 1_555
C4N O3N 1_555 1_555
C4V C5V 1_555 1_555
C5BA C6BA 1_555 1_555
C5N C4N 1_555 1_555
C5V C6V 1_555 1_555
C6BA C7 1_555 1_555
C6N C5N 1_555 1_555
C6V N2V 1_555 1_555
N2BA C6BA 1_555 1_555
N2N C6N 1_555 1_555
C7BA C6 1_555 1_555
C7N C5N 1_555 1_555
C7V C5V 1_555 1_555
Sc1C O1C 1_555 1_555
C3E C3C 1_555 1_555
C5BA C7BA 1_555 1_555
C6N C7V 1_555 1_555
C6V C7N 1_555 1_555

#END
