
#######################################################################
#
#                 Cambridge Crystallographic Data Centre
#                                CCDC 
#
#######################################################################
#
# If this CIF has been generated from an entry in the Cambridge 
# Structural Database, then it will include bibliographic, chemical, 
# crystal, experimental, refinement or atomic coordinate data resulting 
# from the CCDC's data processing and validation procedures.
#
#######################################################################

data_MAWVEN
_chemical_name_common            
catena-[tris(mu!4$-2-Aminoterephthalato)-di-scandium(iii)]
_chemical_formula_moiety         '(C24 H15 N3 O12 Sc2)n'
_chemical_name_systematic        
catena-[tris(\m~4~-2-Aminobenzene-1,4-dicarboxylato)-di-scandium(iii)]
_symmetry_cell_setting           orthorhombic
_symmetry_space_group_name_H-M   'F d d d'
_symmetry_Int_Tables_number      70
_space_group_name_Hall           '-F 2uv 2vw'
loop_
_symmetry_equiv_pos_site_id
_symmetry_equiv_pos_as_xyz
1 x,y,z
2 3/4-x,1/4-y,1/2+z
3 x,3/4-y,3/4-z
4 3/4-x,y,3/4-z
5 x,1/2+y,1/2+z
6 3/4-x,3/4-y,z
7 x,1/4-y,1/4-z
8 3/4-x,1/2+y,1/4-z
9 1/2+x,y,1/2+z
10 1/4-x,1/4-y,z
11 1/2+x,3/4-y,1/4-z
12 1/4-x,y,1/4-z
13 1/2+x,1/2+y,z
14 1/4-x,3/4-y,1/2+z
15 1/2+x,1/4-y,3/4-z
16 1/4-x,1/2+y,3/4-z
17 -x,-y,-z
18 1/4+x,3/4+y,1/2-z
19 -x,1/4+y,1/4+z
20 1/4+x,-y,1/4+z
21 -x,1/2-y,1/2-z
22 1/4+x,1/4+y,-z
23 -x,3/4+y,3/4+z
24 1/4+x,1/2-y,3/4+z
25 1/2-x,-y,1/2-z
26 3/4+x,3/4+y,-z
27 1/2-x,1/4+y,3/4+z
28 3/4+x,-y,3/4+z
29 1/2-x,1/2-y,-z
30 3/4+x,1/4+y,1/2-z
31 1/2-x,3/4+y,1/4+z
32 3/4+x,1/2-y,1/4+z
_cell_length_a                   8.72068(16)
_cell_length_b                   20.82072(17)
_cell_length_c                   34.38570(28)
_cell_angle_alpha                90
_cell_angle_beta                 90
_cell_angle_gamma                90
_cell_volume                     6243.44
_cell_formula_units_Z            8
_exptl_crystal_preparation       
'The void space in the structure contains no guest molecules as the sample was heated to 443 K under vacuum prior to data collection'
loop_
_atom_site_label
_atom_site_type_symbol
_atom_site_fract_x
_atom_site_fract_y
_atom_site_fract_z
_atom_site_U_iso_or_equiv
_atom_site_thermal_displace_type
Sc1 Sc 0.125 0.625 0.38570(12) 0.0050 Uiso
O1 O -0.0120(6) 0.53544(26) 0.38899(20) 0.0050 Uiso
O2 O -0.0039(7) 0.6653(4) 0.42855(18) 0.0050 Uiso
O3 O -0.2334(7) 0.6652(4) 0.40898(16) 0.0050 Uiso
C1 C -0.125 0.5064(4) 0.375 0.0042 Uiso
C2 C -0.125 0.44078(35) 0.375 0.0042 Uiso
C3 C 0.0149(6) 0.40969(19) 0.375 0.0042 Uiso
N1 N 0.1620(8) 0.4367(6) 0.375 0.0042 Uiso
C4 C -0.1385(10) 0.6799(5) 0.43768(23) 0.0042 Uiso
C5 C -0.1808(9) 0.7266(5) 0.46685(22) 0.0042 Uiso
C6 C -0.0824(8) 0.7374(5) 0.49915(25) 0.0042 Uiso
N2 N 0.0753(8) 0.7452(8) 0.4929(4) 0.0042 Uiso
C7 C -0.3452(9) 0.7350(5) 0.46862(23) 0.0042 Uiso
Sc1C Sc -0.375 0.625 0.36430(12) 0.0050 Uiso
Sc1B Sc 0.125 0.125 0.36430(12) 0.0050 Uiso
Sc1E Sc -0.375 0.125 0.38570(12) 0.0050 Uiso
Sc1U Sc -0.625 0.875 0.61430(12) 0.0050 Uiso
Sc1R Sc -0.125 0.875 0.63570(12) 0.0050 Uiso
Sc1C_2 Sc 0.625 0.625 0.36430(12) 0.0050 Uiso
Sc1P Sc 0.875 0.375 0.61430(12) 0.0050 Uiso
Sc1S Sc 0.375 0.375 0.63570(12) 0.0050 Uiso
O1C O -0.2380(6) 0.53544(26) 0.36101(20) 0.0050 Uiso
O1B O -0.0120(6) 0.21456(26) 0.36101(20) 0.0050 Uiso
O1E O -0.2380(6) 0.21456(26) 0.38899(20) 0.0050 Uiso
O1I O 0.2620(6) 0.71456(26) 0.38899(20) 0.0050 Uiso
O1N O -0.5120(6) 0.71456(26) 0.36101(20) 0.0050 Uiso
O2BA O -0.4961(7) 0.8347(4) 0.57145(18) 0.0050 Uiso
O2I O 0.2539(7) 0.5847(4) 0.42855(18) 0.0050 Uiso
O2Y O 0.7461(7) 0.4153(4) 0.57145(18) 0.0050 Uiso
O2C O -0.2461(7) 0.6653(4) 0.32145(18) 0.0050 Uiso
O2N O -0.5039(7) 0.5847(4) 0.32145(18) 0.0050 Uiso
O3BA O -0.2666(7) 0.8348(4) 0.59102(16) 0.0050 Uiso
O3I O 0.4834(7) 0.5848(4) 0.40898(16) 0.0050 Uiso
O3Y O 0.5166(7) 0.4152(4) 0.59102(16) 0.0050 Uiso
O3C O -0.0166(7) 0.6652(4) 0.34102(16) 0.0050 Uiso
O3N O 0.2666(7) 0.5848(4) 0.34102(16) 0.0050 Uiso
O3I_2 O -0.5166(7) 0.5848(4) 0.40898(16) 0.0050 Uiso
C1B C -0.125 0.2436(4) 0.375 0.0042 Uiso
C2B C -0.125 0.30922(35) 0.375 0.0042 Uiso
C3B C 0.0149(6) 0.34031(19) 0.375 0.0042 Uiso
C3E C -0.2649(6) 0.34031(19) 0.375 0.0042 Uiso
C3C C -0.2649(6) 0.40969(19) 0.375 0.0042 Uiso
N1C N -0.4120(8) 0.4367(6) 0.375 0.0042 Uiso
N1E N -0.4120(8) 0.3133(6) 0.375 0.0042 Uiso
N1B N 0.1620(8) 0.3133(6) 0.375 0.0042 Uiso
C4BA C -0.3615(10) 0.8201(5) 0.56232(23) 0.0042 Uiso
C4I C 0.3885(10) 0.5701(5) 0.43768(23) 0.0042 Uiso
C4Y C 0.6115(10) 0.4299(5) 0.56232(23) 0.0042 Uiso
C5BA C -0.3192(9) 0.7734(5) 0.53315(22) 0.0042 Uiso
C5I C 0.4308(9) 0.5234(5) 0.46685(22) 0.0042 Uiso
C5Y C 0.5692(9) 0.4766(5) 0.53315(22) 0.0042 Uiso
C6BA C -0.4176(8) 0.7626(5) 0.50085(25) 0.0042 Uiso
C6I C 0.3324(8) 0.5126(5) 0.49915(25) 0.0042 Uiso
C6Y C 0.6676(8) 0.4874(5) 0.50085(25) 0.0042 Uiso
N2BA N -0.5753(8) 0.7548(8) 0.5071(4) 0.0042 Uiso
N2I N 0.1747(8) 0.5048(8) 0.4929(4) 0.0042 Uiso
N2Y N 0.8253(8) 0.4952(8) 0.5071(4) 0.0042 Uiso
C7BA C -0.1548(9) 0.7650(5) 0.53138(23) 0.0042 Uiso
C7I C 0.5952(9) 0.5150(5) 0.46862(23) 0.0042 Uiso
C7Y C 0.4048(9) 0.4850(5) 0.53138(23) 0.0042 Uiso
loop_
_geom_bond_atom_site_label_1
_geom_bond_atom_site_label_2
_geom_bond_site_symmetry_1
_geom_bond_site_symmetry_2
Sc1 O1 1_555 1_555
O1 C1 1_555 1_555
O2 Sc1 1_555 1_555
O3 C4 1_555 1_555
C1 C2 1_555 1_555
C2 C3 1_555 1_555
C3 N1 1_555 1_555
C4 O2 1_555 1_555
C5 C4 1_555 1_555
C6 C5 1_555 1_555
N2 C6 1_555 1_555
C7 C5 1_555 1_555
Sc1C O3 1_555 1_555
Sc1B O1B 1_555 1_555
Sc1E O1E 1_555 1_555
Sc1U O2BA 1_555 1_555
Sc1R O3BA 1_555 1_555
Sc1C_2 O3I 1_555 1_555
Sc1P O2Y 1_555 1_555
Sc1S O3Y 1_555 1_555
O1C C1 1_555 1_555
O1B C1B 1_555 1_555
O1E C1B 1_555 1_555
O1I Sc1 1_555 1_555
O1N Sc1C 1_555 1_555
O2BA C4BA 1_555 1_555
O2I Sc1 1_555 1_555
O2Y C4Y 1_555 1_555
O2C Sc1C 1_555 1_555
O2N Sc1C 1_555 1_555
O3BA C4BA 1_555 1_555
O3I C4I 1_555 1_555
O3Y C4Y 1_555 1_555
O3C Sc1 1_555 1_555
O3N Sc1 1_555 1_555
O3I_2 Sc1C 1_555 1_555
C1B C2B 1_555 1_555
C2B C3B 1_555 1_555
C3B C3 1_555 1_555
C3E C2B 1_555 1_555
C3C C2 1_555 1_555
N1C C3C 1_555 1_555
N1E C3E 1_555 1_555
N1B C3B 1_555 1_555
C4BA C5BA 1_555 1_555
C4I O2I 1_555 1_555
C4Y C5Y 1_555 1_555
C5BA C6BA 1_555 1_555
C5I C4I 1_555 1_555
C5Y C6Y 1_555 1_555
C6BA C7 1_555 1_555
C6I C5I 1_555 1_555
C6Y N2Y 1_555 1_555
N2BA C6BA 1_555 1_555
N2I C6I 1_555 1_555
C7BA C6 1_555 1_555
C7I C5I 1_555 1_555
C7Y C5Y 1_555 1_555
Sc1C O1C 1_555 1_555
C3E C3C 1_555 1_555
C5BA C7BA 1_555 1_555
C6I C7Y 1_555 1_555
C6Y C7I 1_555 1_555

#END
