
#######################################################################
#
#                 Cambridge Crystallographic Data Centre
#                                CCDC 
#
#######################################################################
#
# If this CIF has been generated from an entry in the Cambridge 
# Structural Database, then it will include bibliographic, chemical, 
# crystal, experimental, refinement or atomic coordinate data resulting 
# from the CCDC's data processing and validation procedures.
#
#######################################################################

data_MAWWAK03
_chemical_name_common            
catena-[tris(mu!4$-2-Nitroterephthalato)-di-scandium(iii)]
_chemical_formula_moiety         '(C24 H9 N3 O18 Sc2)n'
_chemical_name_systematic        
catena-[tris(\m~4~-2-Nitrobenzene-1,4-dicarboxylato)-di-scandium(iii)]
_symmetry_cell_setting           monoclinic
_symmetry_space_group_name_H-M   'C 2/c'
_symmetry_Int_Tables_number      15
_space_group_name_Hall           '-C 2yc'
loop_
_symmetry_equiv_pos_site_id
_symmetry_equiv_pos_as_xyz
1 x,y,z
2 -x,y,1/2-z
3 1/2+x,1/2+y,z
4 1/2-x,1/2+y,1/2-z
5 -x,-y,-z
6 x,-y,1/2+z
7 1/2-x,1/2-y,-z
8 1/2+x,1/2-y,1/2+z
_cell_length_a                   8.65457(8)
_cell_length_b                   34.43651(13)
_cell_length_c                   11.41078(6)
_cell_angle_alpha                90
_cell_angle_beta                 114.6647(5)
_cell_angle_gamma                90
_cell_volume                     3090.52
_cell_formula_units_Z            4
_exptl_crystal_preparation       
'The void space in the structure contains no guest molecules as the sample was heated to 443 K under vacuum prior to data collection'
loop_
_atom_site_label
_atom_site_type_symbol
_atom_site_fract_x
_atom_site_fract_y
_atom_site_fract_z
_atom_site_U_iso_or_equiv
_atom_site_thermal_displace_type
Sc1 Sc 0.00000 0.36363(8) 0.25000 0.0201 Uiso
Sc2 Sc 0.50000 0.38282(8) 0.25000 0.0201 Uiso
O1 O 0.2317(4) 0.36607(19) 0.4158(4) 0.0297 Uiso
O2 O 0.4801(6) 0.38401(15) 0.42963(35) 0.0297 Uiso
O3 O 0.0648(6) 0.40561(12) 0.1520(5) 0.0297 Uiso
O4 O 0.3118(5) 0.42629(14) 0.1655(6) 0.0297 Uiso
O5 O -0.0870(6) 0.31991(13) 0.3339(5) 0.0297 Uiso
O6 O -0.3245(5) 0.33737(13) 0.3175(6) 0.0297 Uiso
C1 C 0.3911(4) 0.36779(25) 0.47959(24) 0.1248 Uiso
C2 C 0.44506(34) 0.37392(32) 0.61630(16) 0.1248 Uiso
C3 C 0.32598(23) 0.3738(4) 0.66841(22) 0.1248 Uiso
C4 C 0.61898(25) 0.37401(22) 0.69683(21) 0.1248 Uiso
N1 N 0.7398(4) 0.38399(13) 0.6438(4) 0.1248 Uiso
C5 C 0.1583(4) 0.43313(11) 0.1444(6) 0.1248 Uiso
C6 C 0.07681(34) 0.46544(8) 0.0598(6) 0.1248 Uiso
C7 C -0.09725(30) 0.46983(9) 0.0157(6) 0.1248 Uiso
C8 C 0.17593(18) 0.49740(10) 0.0582(5) 0.1248 Uiso
N2 N 0.35340(26) 0.49045(14) 0.0818(5) 0.1248 Uiso
C9 C -0.1898(5) 0.31833(10) 0.3865(5) 0.1248 Uiso
C10 C -0.2231(4) 0.28188(9) 0.4349(4) 0.1248 Uiso
C11 C -0.09861(26) 0.25360(10) 0.4859(4) 0.1248 Uiso
N3 N 0.0733(4) 0.25943(14) 0.4951(4) 0.1248 Uiso
C12 C -0.37639(32) 0.27838(9) 0.4471(5) 0.1248 Uiso
O7 O 0.8212(7) 0.35666(15) 0.6246(7) 0.1248 Uiso
O8 O 0.7912(9) 0.41838(12) 0.6577(9) 0.1248 Uiso
O9 O 0.3701(7) 0.47425(22) -0.0115(5) 0.1248 Uiso
O10 O 0.4595(5) 0.51337(19) 0.1586(6) 0.1248 Uiso
O11 O 0.1053(6) 0.23845(23) 0.4165(5) 0.1248 Uiso
O12 O 0.1565(5) 0.28511(18) 0.5777(8) 0.1248 Uiso
Sc1_2 Sc 1.00000 0.36363(8) 1.25000 0.0201 Uiso
Sc1D Sc 0.00000 0.63637(8) -0.25000 0.0201 Uiso
Sc1F Sc -0.50000 0.13637(8) 0.75000 0.0201 Uiso
Sc2_2 Sc -0.50000 0.38282(8) 0.25000 0.0201 Uiso
Sc2_3 Sc 0.50000 0.38282(8) 1.25000 0.0201 Uiso
Sc2D Sc -0.50000 0.61718(8) -0.25000 0.0201 Uiso
Sc2F Sc 0.00000 0.11718(8) 0.75000 0.0201 Uiso
O1A O 0.7683(4) 0.36607(19) 1.0842(4) 0.0297 Uiso
O1A_2 O -0.2317(4) 0.36607(19) 0.0842(4) 0.0297 Uiso
O2A O 0.5199(6) 0.38401(15) 1.07037(35) 0.0297 Uiso
O2A_2 O 0.5199(6) 0.38401(15) 0.07037(35) 0.0297 Uiso
O3D O -0.0648(6) 0.59439(12) -0.1520(5) 0.0297 Uiso
O3A O -0.0648(6) 0.40561(12) 0.3480(5) 0.0297 Uiso
O4D O -0.3118(5) 0.57371(14) -0.1655(6) 0.0297 Uiso
O4A O 0.6882(5) 0.42629(14) 0.3345(6) 0.0297 Uiso
O5F O -0.4130(6) 0.18009(13) 0.6661(5) 0.0297 Uiso
O5A O 0.0870(6) 0.31991(13) 0.1661(5) 0.0297 Uiso
O6F O -0.1755(5) 0.16263(13) 0.6825(6) 0.0297 Uiso
O6_2 O 0.6755(5) 0.33737(13) 0.3175(6) 0.0297 Uiso
O6A O 0.3245(5) 0.33737(13) 0.1825(6) 0.0297 Uiso
C1A C 0.6089(4) 0.36779(25) 1.02041(24) 0.1248 Uiso
C2A C 0.55494(34) 0.37392(32) 0.88370(16) 0.1248 Uiso
C3A C 0.67402(23) 0.3738(4) 0.83159(22) 0.1248 Uiso
C4A C 0.38102(25) 0.37401(22) 0.80317(21) 0.1248 Uiso
N1A N 0.2602(4) 0.38399(13) 0.8562(4) 0.1248 Uiso
C5D C -0.1583(4) 0.56687(11) -0.1444(6) 0.1248 Uiso
C6D C -0.07681(34) 0.53456(8) -0.0598(6) 0.1248 Uiso
C7D C 0.09725(30) 0.53017(9) -0.0157(6) 0.1248 Uiso
C8D C -0.17593(18) 0.50260(10) -0.0582(5) 0.1248 Uiso
N2D N -0.35340(26) 0.50955(14) -0.0818(5) 0.1248 Uiso
C9F C -0.3102(5) 0.18167(10) 0.6135(5) 0.1248 Uiso
C10F C -0.2769(4) 0.21812(9) 0.5651(4) 0.1248 Uiso
C11F C -0.40139(26) 0.24640(10) 0.5141(4) 0.1248 Uiso
N3F N -0.5733(4) 0.24057(14) 0.5049(4) 0.1248 Uiso
C12F C -0.12361(32) 0.22162(9) 0.5529(5) 0.1248 Uiso
O7A O 0.1788(7) 0.35666(15) 0.8754(7) 0.1248 Uiso
O8A O 0.2088(9) 0.41838(12) 0.8423(9) 0.1248 Uiso
O9D O -0.3701(7) 0.52575(22) 0.0115(5) 0.1248 Uiso
O10D O -0.4595(5) 0.48663(19) -0.1586(6) 0.1248 Uiso
O11F O -0.6053(6) 0.26155(23) 0.5835(5) 0.1248 Uiso
O12F O -0.6565(5) 0.21489(18) 0.4223(8) 0.1248 Uiso
loop_
_geom_bond_atom_site_label_1
_geom_bond_atom_site_label_2
_geom_bond_site_symmetry_1
_geom_bond_site_symmetry_2
Sc1 O1 1_555 1_555
Sc2 O2 1_555 1_555
O1 C1 1_555 1_555
O2 C1 1_555 1_555
O3 Sc1 1_555 1_555
O4 Sc2 1_555 1_555
O5 Sc1 1_555 1_555
O6 C9 1_555 1_555
C1 C2 1_555 1_555
C2 C3 1_555 1_555
C3 C4A 1_555 1_555
C4 C2 1_555 1_555
N1 C4 1_555 1_555
C5 O3 1_555 1_555
C6 C5 1_555 1_555
C7 C6 1_555 1_555
C8 C6 1_555 1_555
N2 C8 1_555 1_555
C9 O5 1_555 1_555
C10 C9 1_555 1_555
C11 C10 1_555 1_555
N3 C11 1_555 1_555
C12 C10 1_555 1_555
O7 N1 1_555 1_555
O8 N1 1_555 1_555
O9 N2 1_555 1_555
O10 N2 1_555 1_555
O11 N3 1_555 1_555
O12 N3 1_555 1_555
Sc1_2 O1A 1_555 1_555
Sc1D O3D 1_555 1_555
Sc1F O5F 1_555 1_555
Sc2_2 O6 1_555 1_555
Sc2_3 O2A 1_555 1_555
Sc2D O4D 1_555 1_555
Sc2F O6F 1_555 1_555
O1A C1A 1_555 1_555
O1A_2 Sc1 1_555 1_555
O2A C1A 1_555 1_555
O2A_2 Sc2 1_555 1_555
O3D C5D 1_555 1_555
O3A Sc1 1_555 1_555
O4D C5D 1_555 1_555
O4A Sc2 1_555 1_555
O5F C9F 1_555 1_555
O5A Sc1 1_555 1_555
O6F C9F 1_555 1_555
O6_2 Sc2 1_555 1_555
O6A Sc2 1_555 1_555
C1A C2A 1_555 1_555
C2A C3A 1_555 1_555
C3A C4 1_555 1_555
C4A C2A 1_555 1_555
N1A C4A 1_555 1_555
C5D C6D 1_555 1_555
C6D C7D 1_555 1_555
C7D C8 1_555 1_555
C8D C7 1_555 1_555
N2D C8D 1_555 1_555
C9F C10F 1_555 1_555
C10F C11F 1_555 1_555
C11F C12 1_555 1_555
N3F C11F 1_555 1_555
C12F C11 1_555 1_555
O7A N1A 1_555 1_555
O8A N1A 1_555 1_555
O9D N2D 1_555 1_555
O10D N2D 1_555 1_555
O11F N3F 1_555 1_555
O12F N3F 1_555 1_555
O4 C5 1_555 1_555
C6D C8D 1_555 1_555
C10F C12F 1_555 1_555

#END
