
#######################################################################
#
#                 Cambridge Crystallographic Data Centre
#                                CCDC 
#
#######################################################################
#
# If this CIF has been generated from an entry in the Cambridge 
# Structural Database, then it will include bibliographic, chemical, 
# crystal, experimental, refinement or atomic coordinate data resulting 
# from the CCDC's data processing and validation procedures.
#
#######################################################################

data_YEYBOV01
_chemical_name_common            CALF-25
_chemical_formula_moiety         '(C24 H26 Ba1 O12 P4)n'
_chemical_name_systematic        
'catena-[(\m~6~-tetraethyl pyrene-1,3,6,8-tetrayltetrakis(phosphonato))-barium]'
_symmetry_cell_setting           monoclinic
_symmetry_space_group_name_H-M   'C 2/c'
_symmetry_Int_Tables_number      15
_space_group_name_Hall           '-C 2yc'
loop_
_symmetry_equiv_pos_site_id
_symmetry_equiv_pos_as_xyz
1 x,y,z
2 -x,y,1/2-z
3 1/2+x,1/2+y,z
4 1/2-x,1/2+y,1/2-z
5 -x,-y,-z
6 x,-y,1/2+z
7 1/2-x,1/2-y,-z
8 1/2+x,1/2-y,1/2+z
_cell_length_a                   19.9200(6)
_cell_length_b                   21.4700(8)
_cell_length_c                   8.2480(3)
_cell_angle_alpha                90
_cell_angle_beta                 107.6080(19)
_cell_angle_gamma                90
_cell_volume                     3362.25
_exptl_crystal_colour            'golden yellow'
_exptl_crystal_description       prismatic
_cell_formula_units_Z            4
loop_
_atom_site_label
_atom_site_type_symbol
_atom_site_fract_x
_atom_site_fract_y
_atom_site_fract_z
Ba1 Ba 0.0000 0.456601(13) 0.7500
P1 P 0.14054(5) 0.43315(5) 0.60097(12)
P2 P 0.07262(18) 0.30776(16) 0.0018(3)
O1 O 0.13387(15) 0.41278(14) 0.7709(3)
O2 O 0.07801(14) 0.46940(13) 0.4974(4)
O3 O 0.02304(15) 0.35934(14) -0.0334(3)
O4 O 0.1233(2) 0.30538(17) -0.1090(4)
O5 O 0.21097(17) 0.47082(16) 0.6280(5)
O6 O 0.0373(2) 0.24188(18) -0.0338(6)
C1 C 0.11531(19) 0.35803(18) 0.3208(5)
H1 H 0.0791 0.3862 0.2743
C2 C 0.1576(2) 0.36655(18) 0.4862(5)
C3 C 0.2122(2) 0.32406(19) 0.5599(5)
C4 C 0.2227(2) 0.27202(19) 0.4631(5)
C5 C 0.1790(2) 0.2643(2) 0.2917(5)
C6 C 0.1254(2) 0.30823(19) 0.2213(5)
C7 C 0.2579(2) 0.3306(2) 0.7304(5)
H2 H 0.2524 0.3648 0.7943
C8 C 0.1911(2) 0.2115(2) 0.1988(5)
H3 H 0.1631 0.2059 0.0869
C9 C -0.0270(7) 0.2298(4) 0.0045(17)
H4 H -0.0621 0.2601 -0.0546
H5 H -0.0190 0.2353 0.1256
C10 C 0.2163(4) 0.5336(3) 0.6811(10)
H6 H 0.2116 0.5363 0.7946
H7 H 0.1784 0.5576 0.6051
C11 C -0.0546(11) 0.1670(8) -0.044(3)
H8 H -0.0936 0.1692 -0.1464
H9 H -0.0701 0.1495 0.0456
H10 H -0.0183 0.1414 -0.0630
C12 C 0.2858(6) 0.5605(5) 0.681(2)
H11 H 0.3217 0.5469 0.7812
H12 H 0.2831 0.6051 0.6807
H13 H 0.2970 0.5465 0.5818
P1F P 0.35946(5) 0.06685(5) 0.39903(12)
P2F P 0.42738(18) 0.19224(16) 0.9982(3)
O1F O 0.36613(15) 0.08722(14) 0.2291(3)
O2F O 0.42199(14) 0.03060(13) 0.5026(4)
O3F O 0.47696(15) 0.14066(14) 1.0334(3)
O4F O 0.3767(2) 0.19462(17) 1.1090(4)
O5F O 0.28903(17) 0.02918(16) 0.3720(5)
O6F O 0.4627(2) 0.25812(18) 1.0338(6)
C1F C 0.38469(19) 0.14197(18) 0.6792(5)
H1F H 0.4209 0.1138 0.7257
C2F C 0.3424(2) 0.13345(18) 0.5138(5)
C3F C 0.2878(2) 0.17594(19) 0.4401(5)
C4F C 0.2773(2) 0.22798(19) 0.5369(5)
C5F C 0.3210(2) 0.2357(2) 0.7083(5)
C6F C 0.3746(2) 0.19177(19) 0.7787(5)
C7F C 0.2421(2) 0.1694(2) 0.2696(5)
H2F H 0.2476 0.1352 0.2057
C8F C 0.3089(2) 0.2885(2) 0.8012(5)
H3F H 0.3369 0.2941 0.9131
C9F C 0.5270(7) 0.2702(4) 0.9955(17)
H4F H 0.5621 0.2399 1.0546
H5F H 0.5190 0.2647 0.8744
C10F C 0.2837(4) -0.0336(3) 0.3189(10)
H6F H 0.2884 -0.0363 0.2054
H7F H 0.3216 -0.0576 0.3949
C11F C 0.5546(11) 0.3330(8) 1.044(3)
H8F H 0.5936 0.3308 1.1464
H9F H 0.5701 0.3505 0.9544
H10F H 0.5183 0.3586 1.0630
C12F C 0.2142(6) -0.0605(5) 0.319(2)
H11F H 0.1783 -0.0469 0.2188
H12F H 0.2169 -0.1051 0.3193
H13F H 0.2030 -0.0465 0.4182
Ba1_2 Ba 0.0000 0.456601(13) -0.2500
Ba1B Ba 0.5000 -0.043399(13) 0.7500
Ba1D Ba 0.0000 0.543399(13) 0.2500
Ba1F Ba 0.5000 0.043399(13) 0.2500
Ba1F_2 Ba 0.5000 0.043399(13) 1.2500
O1A O -0.13387(15) 0.41278(14) 0.7291(3)
O2A O -0.07801(14) 0.46940(13) 1.0026(4)
O2D O -0.07801(14) 0.53060(13) 0.5026(4)
O2E O 0.07801(14) 0.53060(13) 0.9974(4)
O3_2 O 0.02304(15) 0.35934(14) 0.9666(3)
O3A O -0.02304(15) 0.35934(14) 0.5334(3)
P3? P 0.0498(14) 0.2880(12) 0.031(2)
O7? O 0.0808(15) 0.2481(13) -0.089(3)
loop_
_geom_bond_atom_site_label_1
_geom_bond_atom_site_label_2
_geom_bond_site_symmetry_1
_geom_bond_site_symmetry_2
Ba1 O1 1_555 1_555
P1 O1 1_555 1_555
P2 O3 1_555 1_555
O2 Ba1 1_555 1_555
O3 Ba1_2 1_555 1_555
O4 P2 1_555 1_555
O5 P1 1_555 1_555
O6 P2 1_555 1_555
C1 H1 1_555 1_555
C2 P1 1_555 1_555
C3 C2 1_555 1_555
C4 C3 1_555 1_555
C5 C4 1_555 1_555
C6 P2 1_555 1_555
C7 C3 1_555 1_555
H2 C7 1_555 1_555
C8 C5 1_555 1_555
H3 C8 1_555 1_555
C9 O6 1_555 1_555
H4 C9 1_555 1_555
H5 C9 1_555 1_555
C10 O5 1_555 1_555
H6 C10 1_555 1_555
H7 C10 1_555 1_555
C11 C9 1_555 1_555
H8 C11 1_555 1_555
H9 C11 1_555 1_555
H10 C11 1_555 1_555
C12 C10 1_555 1_555
H11 C12 1_555 1_555
H12 C12 1_555 1_555
H13 C12 1_555 1_555
P1F O1F 1_555 1_555
P2F O3F 1_555 1_555
O1F Ba1F 1_555 1_555
O2F P1F 1_555 1_555
O3F Ba1F_2 1_555 1_555
O4F P2F 1_555 1_555
O5F P1F 1_555 1_555
O6F P2F 1_555 1_555
C1F H1F 1_555 1_555
C2F P1F 1_555 1_555
C3F C2F 1_555 1_555
C4F C4 1_555 1_555
C5F C4F 1_555 1_555
C6F P2F 1_555 1_555
C7F C8 1_555 1_555
H2F C7F 1_555 1_555
C8F C7 1_555 1_555
H3F C8F 1_555 1_555
C9F O6F 1_555 1_555
H4F C9F 1_555 1_555
H5F C9F 1_555 1_555
C10F O5F 1_555 1_555
H6F C10F 1_555 1_555
H7F C10F 1_555 1_555
C11F C9F 1_555 1_555
H8F C11F 1_555 1_555
H9F C11F 1_555 1_555
H10F C11F 1_555 1_555
C12F C10F 1_555 1_555
H11F C12F 1_555 1_555
H12F C12F 1_555 1_555
H13F C12F 1_555 1_555
Ba1B O2F 1_555 1_555
Ba1D O2 1_555 1_555
Ba1F O2F 1_555 1_555
O1A Ba1 1_555 1_555
O2A Ba1 1_555 1_555
O2D Ba1 1_555 1_555
O2E Ba1 1_555 1_555
O3_2 Ba1 1_555 1_555
O3A Ba1 1_555 1_555
P1 O2 1_555 1_555
C1 C2 1_555 1_555
C1 C6 1_555 1_555
C5 C6 1_555 1_555
C1F C2F 1_555 1_555
C1F C6F 1_555 1_555
C3F C4F 1_555 1_555
C3F C7F 1_555 1_555
C5F C6F 1_555 1_555
C5F C8F 1_555 1_555
Ba1D O2D 1_555 1_555

#END
