
#######################################################################
#
#                 Cambridge Crystallographic Data Centre
#                                CCDC 
#
#######################################################################
#
# If this CIF has been generated from an entry in the Cambridge 
# Structural Database, then it will include bibliographic, chemical, 
# crystal, experimental, refinement or atomic coordinate data resulting 
# from the CCDC's data processing and validation procedures.
#
#######################################################################

data_RORJOZ
_chemical_name_common            LIFM-10(Cu)
_chemical_formula_moiety         
'(C14 H8 Cu1 N2 O5)n,2.5n(C3 H7 N1 O1),2n(H2 O1)'
_chemical_name_systematic        
'catena-[(\m~5~-5-(Isonicotinoylamino)isophthalato)-copper N,N-dimethylformamide solvate dihydrate]'
_symmetry_cell_setting           rhombohedral
_symmetry_space_group_name_H-M   'R -3'
_symmetry_Int_Tables_number      148
_space_group_name_Hall           '-R 3'
loop_
_symmetry_equiv_pos_site_id
_symmetry_equiv_pos_as_xyz
1 x,y,z
2 -y,x-y,z
3 -x+y,-x,z
4 2/3+x,1/3+y,1/3+z
5 2/3-y,1/3+x-y,1/3+z
6 2/3-x+y,1/3-x,1/3+z
7 1/3+x,2/3+y,2/3+z
8 1/3-y,2/3+x-y,2/3+z
9 1/3-x+y,2/3-x,2/3+z
10 -x,-y,-z
11 y,-x+y,-z
12 x-y,x,-z
13 1/3-x,2/3-y,2/3-z
14 1/3+y,2/3-x+y,2/3-z
15 1/3+x-y,2/3+x,2/3-z
16 2/3-x,1/3-y,1/3-z
17 2/3+y,1/3-x+y,1/3-z
18 2/3+x-y,1/3+x,1/3-z
_cell_length_a                   18.9171(15)
_cell_length_b                   18.9171(15)
_cell_length_c                   37.995(5)
_cell_angle_alpha                90
_cell_angle_beta                 90
_cell_angle_gamma                120
_cell_volume                     11775.1
_exptl_crystal_colour            blue
_exptl_crystal_description       prism
_cell_formula_units_Z            18
loop_
_atom_site_label
_atom_site_type_symbol
_atom_site_fract_x
_atom_site_fract_y
_atom_site_fract_z
_atom_site_U_iso_or_equiv
_atom_site_thermal_displace_type
Cu1 Cu 0.52214(5) 0.47797(5) 0.029680(18) 0.0407 Uani
N1 N 0.5492(6) 0.4658(7) 0.08477(19) 0.0521 Uani
C1 C 0.6184(5) 0.5335(6) 0.0980(2) 0.0670 Uani
H1 H 0.6627 0.5665 0.0828 0.0800 Uiso
C2 C 0.6227(5) 0.5531(5) 0.1335(2) 0.0801 Uani
H2 H 0.6700 0.5994 0.1426 0.0960 Uiso
C3 C 0.5578(7) 0.5048(7) 0.15577(18) 0.0788 Uani
C4 C 0.4887(6) 0.4371(7) 0.1425(2) 0.0984 Uani
H3 H 0.4443 0.4041 0.1577 0.1180 Uiso
C5 C 0.4843(5) 0.4175(6) 0.1070(3) 0.0826 Uani
H4 H 0.4371 0.3712 0.0979 0.1000 Uiso
C6 C 0.5629(11) 0.5245(9) 0.1960(5) 0.1128 Uani
C7 C 0.4817(4) 0.5180(4) 0.24616(17) 0.0564 Uani
C8 C 0.5364(4) 0.5907(4) 0.26265(16) 0.0556 Uani
H5 H 0.5875 0.6267 0.2520 0.0670 Uiso
C9 C 0.5158(3) 0.6102(4) 0.29477(15) 0.0480 Uani
C10 C 0.4437(3) 0.5575(3) 0.31128(14) 0.0428 Uani
H6 H 0.4310 0.5709 0.3336 0.0520 Uiso
C11 C 0.3891(4) 0.4840(3) 0.29488(15) 0.0463 Uani
C12 C 0.4092(4) 0.4640(4) 0.26246(17) 0.0572 Uani
H7 H 0.3730 0.4133 0.2516 0.0690 Uiso
C13 C 0.5711(3) 0.6909(4) 0.31062(14) 0.0456 Uani
C14 C 0.3087(4) 0.4296(3) 0.31071(15) 0.0469 Uani
N2 N 0.5016(4) 0.4994(4) 0.21235(16) 0.0761 Uani
H8 H 0.4589 0.4608 0.2012 0.0910 Uiso
O1 O 0.6300(2) 0.7424(3) 0.29262(10) 0.0598 Uani
O2 O 0.5545(2) 0.7049(3) 0.34161(11) 0.0549 Uani
O3 O 0.2588(3) 0.3704(2) 0.29209(11) 0.0608 Uani
O4 O 0.2964(2) 0.4468(2) 0.34148(10) 0.0518 Uani
O5 O 0.6625(15) 0.5696(12) 0.2125(5) 0.0784 Uani
Cu1D Cu 0.18870(5) 0.37750(7) 0.363013(18) 0.0407 Uani
Cu1E Cu 0.62250(7) 0.81119(5) 0.363013(18) 0.0407 Uani
Cu1I Cu 0.47786(5) 0.52203(5) -0.029680(18) 0.0407 Uani
Cu1P Cu 0.14464(5) 0.28916(7) 0.303653(18) 0.0407 Uani
Cu1Q Cu 0.71084(7) 0.85547(5) 0.303653(18) 0.0407 Uani
O1P O 0.4091(3) 0.4457(4) 0.04071(10) 0.0598 Uani
O2G O 0.6284(3) 0.5163(4) 0.00828(11) 0.0549 Uani
O3Q O 0.5551(4) 0.5921(3) 0.04124(11) 0.0608 Uani
O4H O 0.4837(3) 0.3703(2) 0.00815(10) 0.0518 Uani
N3? N 0.5283(15) 0.4490(14) 0.0848(4) 0.0404 Uani
C15? C 0.5791(12) 0.5136(11) 0.1072(4) 0.0538 Uani
H9? H 0.6257 0.5598 0.0977 0.0650 Uiso
C16? C 0.5636(15) 0.5118(13) 0.1420(5) 0.0658 Uani
H10? H 0.5982 0.5564 0.1568 0.0790 Uiso
C17? C 0.4936(13) 0.4409(11) 0.1562(5) 0.0588 Uani
C18? C 0.4449(10) 0.3737(9) 0.1337(4) 0.0501 Uani
H11? H 0.3995 0.3254 0.1426 0.0600 Uiso
C19? C 0.4667(11) 0.3811(9) 0.0974(4) 0.0453 Uani
H12? H 0.4363 0.3364 0.0820 0.0540 Uiso
C20? C 0.4766(10) 0.4345(10) 0.1948(5) 0.0728 Uani
O6? O 0.4305(14) 0.3313(17) 0.2118(5) 0.0891 Uani
O7? O 0.6286(16) 0.6098(17) 0.2001(6) 0.1028 Uani
O8? O 0.397(2) 0.3722(17) 0.2017(7) 0.1224 Uani
loop_
_atom_site_aniso_label
_atom_site_aniso_U_11
_atom_site_aniso_U_22
_atom_site_aniso_U_33
_atom_site_aniso_U_23
_atom_site_aniso_U_13
_atom_site_aniso_U_12
Cu1 0.0540(6) 0.0530(6) 0.0331(5) -0.0008(3) -0.0011(3) 0.0403(4)
N1 0.048(7) 0.068(8) 0.051(7) 0.012(5) 0.003(5) 0.037(6)
C1 0.064(7) 0.077(7) 0.065(7) 0.000(5) 0.005(5) 0.039(6)
C2 0.076(7) 0.090(7) 0.071(7) -0.005(6) -0.004(6) 0.039(6)
C3 0.079(7) 0.093(8) 0.055(8) 0.012(6) 0.001(6) 0.036(6)
C4 0.093(9) 0.115(10) 0.078(10) 0.003(8) 0.015(7) 0.045(7)
C5 0.078(7) 0.101(9) 0.065(8) -0.001(7) -0.004(6) 0.042(7)
C6 0.097(8) 0.130(9) 0.097(8) -0.022(7) 0.008(7) 0.046(7)
C7 0.061(4) 0.060(4) 0.044(3) -0.011(3) 0.009(3) 0.027(3)
C8 0.045(3) 0.062(4) 0.048(3) -0.005(3) 0.004(3) 0.018(3)
C9 0.041(3) 0.054(3) 0.044(3) 0.002(3) -0.001(2) 0.020(3)
C10 0.042(3) 0.042(3) 0.043(3) -0.007(2) -0.003(2) 0.020(3)
C11 0.050(3) 0.042(3) 0.043(3) -0.001(2) 0.001(3) 0.020(3)
C12 0.055(4) 0.048(3) 0.053(4) -0.008(3) 0.001(3) 0.014(3)
C13 0.027(3) 0.054(3) 0.042(3) -0.007(3) -0.008(2) 0.010(2)
C14 0.060(4) 0.031(3) 0.046(3) 0.001(2) -0.003(3) 0.020(3)
N2 0.063(4) 0.073(4) 0.059(4) -0.015(3) 0.019(3) 0.009(3)
O1 0.039(2) 0.065(3) 0.042(2) -0.0072(19) 0.0018(17) 0.001(2)
O2 0.038(2) 0.059(3) 0.046(2) -0.0012(19) 0.0024(17) 0.0080(19)
O3 0.057(3) 0.041(2) 0.053(2) -0.0069(19) 0.004(2) 0.001(2)
O4 0.056(2) 0.041(2) 0.042(2) -0.0029(17) 0.0067(18) 0.0120(18)
O5 0.126(14) 0.072(10) 0.042(9) -0.001(8) 0.031(9) 0.053(10)
Cu1D 0.053 0.0264 0.0331 -0.0003 0.0008 0.0127
Cu1E 0.0264 0.054 0.0331 0.0011 0.0003 0.0137
Cu1I 0.054 0.053 0.0331 -0.0008 -0.0011 0.0403
Cu1P 0.053 0.0264 0.0331 -0.0003 0.0008 0.0127
Cu1Q 0.0264 0.054 0.0331 0.0011 0.0003 0.0137
O1P 0.065 0.102 0.042 0.009 0.0072 0.064
O2G 0.059 0.081 0.046 0.0036 0.0012 0.051
O3Q 0.096 0.057 0.053 -0.004 -0.0109 0.056
O4H 0.073 0.056 0.042 -0.0067 -0.0096 0.044
N3? 0.061(7) 0.055(6) 0.024(6) -0.019(5) -0.018(5) 0.043(6)
C15? 0.071(8) 0.048(6) 0.028(6) -0.011(5) -0.011(6) 0.019(6)
C16? 0.082(8) 0.053(7) 0.036(7) -0.004(6) -0.001(6) 0.014(7)
C17? 0.083(7) 0.046(6) 0.035(6) -0.004(5) -0.003(5) 0.023(6)
C18? 0.076(7) 0.038(6) 0.029(5) -0.003(5) 0.000(5) 0.023(5)
C19? 0.068(7) 0.045(6) 0.032(6) -0.014(5) -0.010(5) 0.035(5)
C20? 0.103(10) 0.047(7) 0.057(8) -0.003(6) 0.005(7) 0.029(7)
O6? 0.088(12) 0.131(15) 0.054(10) -0.027(10) 0.011(9) 0.059(11)
O7? 0.096(13) 0.105(14) 0.055(10) -0.017(10) 0.014(10) 0.011(10)
O8? 0.145(16) 0.103(14) 0.066(12) -0.031(11) 0.044(12) 0.022(11)
loop_
_geom_bond_atom_site_label_1
_geom_bond_atom_site_label_2
_geom_bond_site_symmetry_1
_geom_bond_site_symmetry_2
Cu1 N1 1_555 1_555
N1 C1 1_555 1_555
C1 H1 1_555 1_555
C2 C1 1_555 1_555
H2 C2 1_555 1_555
C3 C2 1_555 1_555
C4 C3 1_555 1_555
H3 C4 1_555 1_555
C5 N1 1_555 1_555
H4 C5 1_555 1_555
C6 C3 1_555 1_555
C7 C8 1_555 1_555
C8 H5 1_555 1_555
C9 C8 1_555 1_555
C10 C9 1_555 1_555
H6 C10 1_555 1_555
C11 C10 1_555 1_555
C12 C7 1_555 1_555
H7 C12 1_555 1_555
C13 C9 1_555 1_555
C14 C11 1_555 1_555
N2 C6 1_555 1_555
H8 N2 1_555 1_555
O1 C13 1_555 1_555
O2 C13 1_555 1_555
O3 C14 1_555 1_555
O4 C14 1_555 1_555
O5 C6 1_555 1_555
Cu1D O4 1_555 1_555
Cu1E O2 1_555 1_555
Cu1I Cu1 1_555 1_555
Cu1P O3 1_555 1_555
Cu1Q O1 1_555 1_555
O1P Cu1 1_555 1_555
O2G Cu1 1_555 1_555
O3Q Cu1 1_555 1_555
O4H Cu1 1_555 1_555
C4 C5 1_555 1_555
C7 N2 1_555 1_555
C11 C12 1_555 1_555
Cu1D Cu1P 1_555 1_555
Cu1E Cu1Q 1_555 1_555

#END
