
#######################################################################
#
#                 Cambridge Crystallographic Data Centre
#                                CCDC 
#
#######################################################################
#
# If this CIF has been generated from an entry in the Cambridge 
# Structural Database, then it will include bibliographic, chemical, 
# crystal, experimental, refinement or atomic coordinate data resulting 
# from the CCDC's data processing and validation procedures.
#
#######################################################################

data_ITUVUP
_chemical_name_common            'NOTT-213 dimethylformamide solvate dihydrate'
_chemical_formula_moiety         
'(C2 H8 N1 1+)n,n(C26 H12 In1 O8 1-),2n(C3 H7 N1 O1),2n(H2 O1)'
_chemical_name_systematic        
"catena-[Dimethylammonium (\m~4~-5,5'-naphthalene-1,4-diyldibenzene-1,3-dicarboxylato)-indium(iii) dimethylformamide solvate dihydrate]"
_symmetry_cell_setting           tetragonal
_symmetry_space_group_name_H-M   'P 42/m m c'
_symmetry_Int_Tables_number      131
_space_group_name_Hall           '-P 4c 2'
loop_
_symmetry_equiv_pos_site_id
_symmetry_equiv_pos_as_xyz
1 x,y,z
2 -x,-y,z
3 -y,x,1/2+z
4 y,-x,1/2+z
5 -x,y,-z
6 x,-y,-z
7 y,x,1/2-z
8 -y,-x,1/2-z
9 -x,-y,-z
10 x,y,-z
11 y,-x,1/2-z
12 -y,x,1/2-z
13 x,-y,z
14 -x,y,z
15 -y,-x,1/2+z
16 y,x,1/2+z
_cell_length_a                   9.9617(4)
_cell_length_b                   9.9617(4)
_cell_length_c                   26.747(2)
_cell_angle_alpha                90
_cell_angle_beta                 90
_cell_angle_gamma                90
_cell_volume                     2654.25
_exptl_crystal_colour            colorless
_exptl_crystal_description       octahedron
_cell_formula_units_Z            2
loop_
_atom_site_label
_atom_site_type_symbol
_atom_site_fract_x
_atom_site_fract_y
_atom_site_fract_z
In1 In 0.5000 0.5000 0.2500
O1 O 0.5000(5) 0.2575 0.25959(15)
O2 O 0.5000 0.3581(4) 0.18774(17)
C1 C 0.5000 0.2525(7) 0.2136(3)
C2 C 0.5000 0.1188(6) 0.1864(3)
C3 C 0.5000 0.0000 0.2131(3)
H1 H 0.5000 0.0000 0.2478
C4 C 0.5000 0.1202(7) 0.1350(2)
H2 H 0.5000 0.2012 0.1177
C5 C 0.5000 0.0000 0.1093(3)
C6 C 0.5000 0.0000 0.0514(5)
C7 C 0.3821(11) 0.0536(10) 0.02725(17)
C8 C 0.2555(18) 0.094(2) 0.0501(10)
H3 H 0.2485 0.0746 0.0852
C9 C 0.135(3) 0.148(2) 0.0272(2)
H4 H 0.0594 0.1830 0.0455
In1_2 In 0.5000 -0.5000 0.2500
In1B In 0.5000 0.5000 -0.2500
In1B_2 In 0.5000 -0.5000 -0.2500
O1A O 0.5000(5) -0.2575 0.25959(15)
O1D O 0.5000(5) 0.2575 -0.25959(15)
O1E O 0.5000(5) -0.2575 -0.25959(15)
O1A_2 O 0.5000(5) 0.7425 0.25959(15)
O1F O 0.2575 0.5000(5) 0.24041(15)
O1G O 0.7425 0.5000(5) 0.24041(15)
O2A O 0.5000 -0.3581(4) 0.18774(17)
O2D O 0.5000 0.3581(4) -0.18774(17)
O2E O 0.5000 -0.3581(4) -0.18774(17)
O2A_2 O 0.5000 0.6419(4) 0.18774(17)
O2F O 0.3581(4) 0.5000 0.31226(17)
O2G O 0.6419(4) 0.5000 0.31226(17)
C1A C 0.5000 -0.2525(7) 0.2136(3)
C1D C 0.5000 0.2525(7) -0.2136(3)
C1E C 0.5000 -0.2525(7) -0.2136(3)
C2A C 0.5000 -0.1188(6) 0.1864(3)
C2D C 0.5000 0.1188(6) -0.1864(3)
C2E C 0.5000 -0.1188(6) -0.1864(3)
C3D C 0.5000 0.0000 -0.2131(3)
H1D H 0.5000 0.0000 -0.2478
C4A C 0.5000 -0.1202(7) 0.1350(2)
C4D C 0.5000 0.1202(7) -0.1350(2)
C4E C 0.5000 -0.1202(7) -0.1350(2)
H2A H 0.5000 -0.2012 0.1177
H2E H 0.5000 -0.2012 -0.1177
H2D H 0.5000 0.2012 -0.1177
C5D C 0.5000 0.0000 -0.1093(3)
C6D C 0.5000 0.0000 -0.0514(5)
C7I C 0.3821(11) 0.0536(10) -0.02725(17)
C7H C 0.6179(11) -0.0536(10) -0.02725(17)
C7A C 0.6179(11) -0.0536(10) 0.02725(17)
C7L C 0.3821(11) -0.0536(10) 0.02725(17)
C7E C 0.3821(11) -0.0536(10) -0.02725(17)
C7D C 0.6179(11) 0.0536(10) -0.02725(17)
C7M C 0.6179(11) 0.0536(10) 0.02725(17)
C8I C 0.2555(18) 0.094(2) -0.0501(10)
C8D C 0.7445(18) 0.094(2) -0.0501(10)
C8M C 0.7445(18) 0.094(2) 0.0501(10)
C8E C 0.2555(18) -0.094(2) -0.0501(10)
C8L C 0.2555(18) -0.094(2) 0.0501(10)
C8A C 0.7445(18) -0.094(2) 0.0501(10)
C8H C 0.7445(18) -0.094(2) -0.0501(10)
H3D H 0.7515 0.0746 -0.0852
H3M H 0.7515 0.0746 0.0852
H3E H 0.2485 -0.0746 -0.0852
H3I H 0.2485 0.0746 -0.0852
H3L H 0.2485 -0.0746 0.0852
H3A H 0.7515 -0.0746 0.0852
H3H H 0.7515 -0.0746 -0.0852
C9I C 0.135(3) 0.148(2) -0.0272(2)
C9D C 0.865(3) 0.148(2) -0.0272(2)
C9M C 0.865(3) 0.148(2) 0.0272(2)
C9E C 0.135(3) -0.148(2) -0.0272(2)
C9L C 0.135(3) -0.148(2) 0.0272(2)
C9A C 0.865(3) -0.148(2) 0.0272(2)
C9H C 0.865(3) -0.148(2) -0.0272(2)
H4M H 0.9406 0.1830 0.0455
H4D H 0.9406 0.1830 -0.0455
H4E H 0.0594 -0.1830 -0.0455
H4I H 0.0594 0.1830 -0.0455
H4L H 0.0594 -0.1830 0.0455
H4A H 0.9406 -0.1830 0.0455
H4H H 0.9406 -0.1830 -0.0455
loop_
_geom_bond_atom_site_label_1
_geom_bond_atom_site_label_2
_geom_bond_site_symmetry_1
_geom_bond_site_symmetry_2
In1 O1 1_555 1_555
O1 C1 1_555 1_555
O2 In1 1_555 1_555
C1 O2 1_555 1_555
C2 C1 1_555 1_555
C3 C2 1_555 1_555
H1 C3 1_555 1_555
C4 C2 1_555 1_555
H2 C4 1_555 1_555
C5 C4 1_555 1_555
C6 C5 1_555 1_555
C7 C6 1_555 1_555
C8 C7 1_555 1_555
H3 C8 1_555 1_555
C9 C8 1_555 1_555
H4 C9 1_555 1_555
In1_2 O1A 1_555 1_555
In1B O1D 1_555 1_555
In1B_2 O1E 1_555 1_555
O1A C1A 1_555 1_555
O1D C1D 1_555 1_555
O1E C1E 1_555 1_555
O1A_2 In1 1_555 1_555
O1F In1 1_555 1_555
O1G In1 1_555 1_555
O2A In1_2 1_555 1_555
O2D In1B 1_555 1_555
O2E In1B_2 1_555 1_555
O2A_2 In1 1_555 1_555
O2F In1 1_555 1_555
O2G In1 1_555 1_555
C1A O2A 1_555 1_555
C1D O2D 1_555 1_555
C1E O2E 1_555 1_555
C2A C3 1_555 1_555
C2D C1D 1_555 1_555
C2E C1E 1_555 1_555
C3D C2D 1_555 1_555
H1D C3D 1_555 1_555
C4A C5 1_555 1_555
C4D C2D 1_555 1_555
C4E C2E 1_555 1_555
H2A C4A 1_555 1_555
H2E C4E 1_555 1_555
H2D C4D 1_555 1_555
C5D C4D 1_555 1_555
C6D C5D 1_555 1_555
C7I C7 1_555 1_555
C7H C6D 1_555 1_555
C7A C6 1_555 1_555
C7L C6 1_555 1_555
C7E C6D 1_555 1_555
C7D C6D 1_555 1_555
C7M C6 1_555 1_555
C8I C7I 1_555 1_555
C8D C7D 1_555 1_555
C8M C7M 1_555 1_555
C8E C7E 1_555 1_555
C8L C7L 1_555 1_555
C8A C7A 1_555 1_555
C8H C7H 1_555 1_555
H3D C8D 1_555 1_555
H3M C8M 1_555 1_555
H3E C8E 1_555 1_555
H3I C8I 1_555 1_555
H3L C8L 1_555 1_555
H3A C8A 1_555 1_555
H3H C8H 1_555 1_555
C9I C9 1_555 1_555
C9D C8D 1_555 1_555
C9M C8M 1_555 1_555
C9E C8E 1_555 1_555
C9L C8L 1_555 1_555
C9A C8A 1_555 1_555
C9H C8H 1_555 1_555
H4M C9M 1_555 1_555
H4D C9D 1_555 1_555
H4E C9E 1_555 1_555
H4I C9I 1_555 1_555
H4L C9L 1_555 1_555
H4A C9A 1_555 1_555
H4H C9H 1_555 1_555
C7 C7L 1_555 1_555
C1A C2A 1_555 1_555
C2A C4A 1_555 1_555
C2E C3D 1_555 1_555
C4E C5D 1_555 1_555
C6D C7I 1_555 1_555
C7I C7E 1_555 1_555
C7H C7A 1_555 1_555
C7H C7D 1_555 1_555
C7A C7M 1_555 1_555
C7L C7E 1_555 1_555
C7D C7M 1_555 1_555
C8I C9I 1_555 1_555
C9D C9M 1_555 1_555
C9E C9L 1_555 1_555
C9A C9H 1_555 1_555

#END
