
#######################################################################
#
#                 Cambridge Crystallographic Data Centre
#                                CCDC 
#
#######################################################################
#
# If this CIF has been generated from an entry in the Cambridge 
# Structural Database, then it will include bibliographic, chemical, 
# crystal, experimental, refinement or atomic coordinate data resulting 
# from the CCDC's data processing and validation procedures.
#
#######################################################################

data_MGFORD04
_chemical_formula_moiety         '(C4 H12 Mg2 O12)n'
_chemical_name_systematic        
catena-(tetrakis(\m~2~-formato)-tetraaqua-di-magnesium(ii))
_symmetry_cell_setting           monoclinic
_symmetry_space_group_name_H-M   'P 21/c'
_symmetry_Int_Tables_number      14
_space_group_name_Hall           '-P 2ybc'
loop_
_symmetry_equiv_pos_site_id
_symmetry_equiv_pos_as_xyz
1 x,y,z
2 -x,1/2+y,1/2-z
3 -x,-y,-z
4 x,1/2-y,1/2+z
_cell_length_a                   8.65107(31)
_cell_length_b                   7.15222(25)
_cell_length_c                   9.4041(4)
_cell_angle_alpha                90
_cell_angle_beta                 98.1659(30)
_cell_angle_gamma                90
_cell_volume                     575.973
_cell_formula_units_Z            2
loop_
_atom_site_label
_atom_site_type_symbol
_atom_site_fract_x
_atom_site_fract_y
_atom_site_fract_z
_atom_site_U_iso_or_equiv
_atom_site_thermal_displace_type
Mg1 Mg 0.5000 0.5000 1.0000 0.0246 Uiso
O1 O 0.7132(7) 0.6584(8) 1.0006(7) 0.0183 Uiso
C1 C 0.8185(10) 0.6052(11) 0.9363(10) 0.0183 Uiso
O2 O 0.9318(7) 0.7238(7) 0.9254(6) 0.0183 Uiso
O3 O 0.4179(7) 0.7304(7) 1.1043(6) 0.0183 Uiso
C2 C 0.4779(10) 0.7629(11) 1.2323(9) 0.0183 Uiso
O4 O 0.4039(8) 0.8838(8) 1.2988(6) 0.0183 Uiso
Mg2 Mg 1.0000 1.0000 1.0000 0.0371 Uiso
O5 O 1.0886(7) 0.8893(8) 1.2027(6) 0.0183 Uiso
O6 O 0.7712(6) 1.0213(7) 1.0621(5) 0.0183 Uiso
Mg1C Mg 0.5000 1.0000 1.5000 0.0246 Uiso
Mg1C_2 Mg 0.5000 0.0000 0.5000 0.0246 Uiso
O1B O 0.2868(7) 0.3416(8) 0.9994(7) 0.0183 Uiso
C1B C 0.1815(10) 0.3948(11) 1.0637(10) 0.0183 Uiso
O2B O 0.0682(7) 0.2762(7) 1.0746(6) 0.0183 Uiso
O2B_2 O 1.0682(7) 1.2762(7) 1.0746(6) 0.0183 Uiso
O3B O 0.5821(7) 0.2696(7) 0.8957(6) 0.0183 Uiso
C2B C 0.5221(10) 0.2371(11) 0.7677(9) 0.0183 Uiso
O4B O 0.5961(8) 0.1162(8) 0.7012(6) 0.0183 Uiso
O4C O 0.4039(8) 0.6162(8) 0.7988(6) 0.0183 Uiso
O4A O 0.5961(8) 0.3838(8) 1.2012(6) 0.0183 Uiso
Mg2_2 Mg 0.0000 0.0000 1.0000 0.0371 Uiso
O5B O 0.9114(7) 1.1107(8) 0.7973(6) 0.0183 Uiso
O6B O 1.2288(6) 0.9787(7) 0.9379(5) 0.0183 Uiso
loop_
_geom_bond_atom_site_label_1
_geom_bond_atom_site_label_2
_geom_bond_site_symmetry_1
_geom_bond_site_symmetry_2
Mg1 O1 1_555 1_555
O1 C1 1_555 1_555
C1 O2 1_555 1_555
O2 Mg2 1_555 1_555
O3 Mg1 1_555 1_555
C2 O3 1_555 1_555
O4 C2 1_555 1_555
Mg2 O5 1_555 1_555
O6 Mg2 1_555 1_555
Mg1C O4 1_555 1_555
Mg1C_2 O4B 1_555 1_555
O1B Mg1 1_555 1_555
C1B O1B 1_555 1_555
O2B C1B 1_555 1_555
O2B_2 Mg2 1_555 1_555
O3B Mg1 1_555 1_555
C2B O3B 1_555 1_555
O4B C2B 1_555 1_555
O4C Mg1 1_555 1_555
O4A Mg1 1_555 1_555
Mg2_2 O2B 1_555 1_555
O5B Mg2 1_555 1_555
O6B Mg2 1_555 1_555

#END
