
#######################################################################
#
#                 Cambridge Crystallographic Data Centre
#                                CCDC 
#
#######################################################################
#
# If this CIF has been generated from an entry in the Cambridge 
# Structural Database, then it will include bibliographic, chemical, 
# crystal, experimental, refinement or atomic coordinate data resulting 
# from the CCDC's data processing and validation procedures.
#
#######################################################################

data_GISMAY
_chemical_name_common            IFMC-69
_chemical_formula_moiety         '(C99 H74 O39 Zn8)n,n(H2 O1),4n(C3 H7 N1 O1)'
_chemical_name_systematic        
'catena-[tris(\m~8~-4-(3-(4-carboxylatophenoxy)-2,2-bis[(4-carboxylatophenoxy)methyl]propoxy)benzoato)-bis(\m~4~-oxo)-(\m~2~-aqua)-octa-zinc N,N-dimethylformamide solvate monohydrate]'
_symmetry_cell_setting           cubic
_symmetry_space_group_name_H-M   'P 2 3'
_symmetry_Int_Tables_number      195
_space_group_name_Hall           'P 2 2 3'
loop_
_symmetry_equiv_pos_site_id
_symmetry_equiv_pos_as_xyz
1 x,y,z
2 -x,-y,z
3 -x,y,-z
4 x,-y,-z
5 z,x,y
6 z,-x,-y
7 -z,-x,y
8 -z,x,-y
9 y,z,x
10 -y,z,-x
11 y,-z,-x
12 -y,-z,x
_cell_length_a                   23.9647(14)
_cell_length_b                   23.9647(14)
_cell_length_c                   23.9647(14)
_cell_angle_alpha                90
_cell_angle_beta                 90
_cell_angle_gamma                90
_cell_volume                     13763.1
_cell_formula_units_Z            4
loop_
_atom_site_label
_atom_site_type_symbol
_atom_site_fract_x
_atom_site_fract_y
_atom_site_fract_z
C1 C 0.8906(4) 0.6107(4) 0.2483(4)
C2 C 0.9403(6) 0.6458(6) 0.2692(7)
H1 H 0.9637 0.6556 0.2376
H2 H 0.9263 0.6802 0.2853
O1 O 0.9697(4) 0.6207(5) 0.3053(5)
C3 C 1.0264(5) 0.6267(5) 0.3117(6)
C4 C 1.0553(5) 0.5815(6) 0.3296(7)
H3 H 1.0370 0.5479 0.3364
C5 C 1.1148(5) 0.5861(6) 0.3381(6)
H4 H 1.1352 0.5551 0.3493
C6 C 1.1411(5) 0.6357(5) 0.3299(6)
C7 C 1.1122(5) 0.6811(5) 0.3106(6)
H5 H 1.1304 0.7147 0.3040
C8 C 1.0511(5) 0.6759(6) 0.3005(7)
H6 H 1.0305 0.7058 0.2867
C9 C 1.2025(5) 0.6388(6) 0.3332(6)
O2 O 1.2254(4) 0.5972(5) 0.3531(4)
O3 O 1.2246(4) 0.6824(4) 0.3191(4)
C10 C 0.9122(7) 0.5608(6) 0.2155(7)
H7 H 0.9333 0.5736 0.1834
H8 H 0.9368 0.5387 0.2388
O4 O 0.8703(5) 0.5300(4) 0.1986(5)
C11 C 0.8695(5) 0.4746(5) 0.1878(5)
C12 C 0.9156(6) 0.4477(5) 0.1717(7)
H9 H 0.9497 0.4660 0.1696
C13 C 0.9106(6) 0.3890(6) 0.1577(7)
H10 H 0.9399 0.3709 0.1398
C14 C 0.8629(5) 0.3597(4) 0.1708(5)
C15 C 0.8181(5) 0.3880(5) 0.1897(6)
H11 H 0.7847 0.3691 0.1959
C16 C 0.8212(6) 0.4474(5) 0.2005(7)
H12 H 0.7911 0.4665 0.2158
C17 C 0.8620(6) 0.2971(5) 0.1652(6)
O5 O 0.9017(5) 0.2743(5) 0.1468(5)
O6 O 0.8155(4) 0.2753(4) 0.1806(4)
C18 C 0.8578(6) 0.6506(7) 0.2051(6)
H13 H 0.8289 0.6305 0.1851
H14 H 0.8416 0.6827 0.2237
O7 O 0.9001(7) 0.6652(7) 0.1712(6)
C19 C 0.8857(7) 0.6994(10) 0.1269(8)
C20 C 0.8330(7) 0.7184(9) 0.1189(8)
H15 H 0.8049 0.7124 0.1451
C21 C 0.8223(8) 0.7498(10) 0.0649(9)
H16 H 0.7863 0.7555 0.0514
C22 C 0.8683(9) 0.7694(9) 0.0371(8)
C23 C 0.9215(8) 0.7499(9) 0.0463(8)
H17 H 0.9502 0.7573 0.0213
C24 C 0.9313(8) 0.7172(10) 0.0966(9)
H18 H 0.9674 0.7085 0.1080
C25 C 0.8696(9) 0.8020(8) -0.0171(7)
O8 O 0.9138(6) 0.8029(5) -0.0452(5)
O9 O 0.8178(6) 0.8306(7) -0.0187(6)
C26 C 0.8509(7) 0.5927(7) 0.2927(7)
H19 H 0.8221 0.5688 0.2773
H20 H 0.8704 0.5724 0.3218
O10 O 0.8278(7) 0.6415(6) 0.3138(6)
C27 C 0.8006(10) 0.6347(7) 0.3652(8)
C28 C 0.7744(9) 0.6814(7) 0.3852(8)
H21 H 0.7770 0.7150 0.3660
C29 C 0.7420(8) 0.6775(7) 0.4378(7)
H22 H 0.7260 0.7093 0.4533
C30 C 0.7357(7) 0.6267(7) 0.4636(6)
C31 C 0.7566(9) 0.5782(7) 0.4395(8)
H23 H 0.7484 0.5433 0.4544
C32 C 0.7930(9) 0.5843(7) 0.3885(8)
H24 H 0.8102 0.5531 0.3732
C33 C 0.7037(9) 0.6310(10) 0.5180(8)
O11 O 0.6991(5) 0.5844(6) 0.5487(5)
O12 O 0.6672(6) 0.6813(6) 0.5178(6)
O13 O 1.3488(3) 0.6512(3) 0.3488(3)
O14 O 1.1519(3) 0.8481(3) 0.1519(3)
O15 O 1.2460(16) 0.7540(16) 0.2460(16)
Zn1 Zn 1.30317(7) 0.69683(7) 0.30317(7)
Zn2 Zn 1.19636(7) 0.80364(7) 0.19636(7)
Zn3 Zn 1.30362(7) 0.58752(6) 0.37162(7)
Zn4 Zn 1.08743(6) 0.80379(7) 0.12868(7)
C1A C 1.1094(4) 0.3893(4) 0.2483(4)
C2A C 1.0597(6) 0.3542(6) 0.2692(7)
H1A H 1.0363 0.3444 0.2376
H2A H 1.0737 0.3198 0.2853
O1A O 1.0303(4) 0.3793(5) 0.3053(5)
C3A C 0.9736(5) 0.3733(5) 0.3117(6)
C4A C 0.9447(5) 0.4185(6) 0.3296(7)
H3A H 0.9630 0.4521 0.3364
C5A C 0.8852(5) 0.4139(6) 0.3381(6)
H4A H 0.8648 0.4449 0.3493
C6A C 0.8589(5) 0.3643(5) 0.3299(6)
C7A C 0.8878(5) 0.3189(5) 0.3106(6)
H5A H 0.8696 0.2853 0.3040
C8A C 0.9489(5) 0.3241(6) 0.3005(7)
H6A H 0.9695 0.2942 0.2867
C9A C 0.7975(5) 0.3612(6) 0.3332(6)
O2A O 0.7746(4) 0.4028(5) 0.3531(4)
O3A O 0.7754(4) 0.3176(4) 0.3191(4)
C10A C 1.0878(7) 0.4392(6) 0.2155(7)
H7A H 1.0667 0.4264 0.1834
H8A H 1.0632 0.4613 0.2388
O4A O 1.1297(5) 0.4700(4) 0.1986(5)
C11A C 1.1305(5) 0.5254(5) 0.1878(5)
C12A C 1.0844(6) 0.5523(5) 0.1717(7)
H9A H 1.0503 0.5340 0.1696
C13A C 1.0894(6) 0.6110(6) 0.1577(7)
H10A H 1.0601 0.6291 0.1398
C14A C 1.1371(5) 0.6403(4) 0.1708(5)
C15A C 1.1819(5) 0.6120(5) 0.1897(6)
H11A H 1.2153 0.6309 0.1959
C16A C 1.1788(6) 0.5526(5) 0.2005(7)
H12A H 1.2089 0.5335 0.2158
C17A C 1.1380(6) 0.7029(5) 0.1652(6)
O5A O 1.0983(5) 0.7257(5) 0.1468(5)
O6A O 1.1845(4) 0.7247(4) 0.1806(4)
C18A C 1.1422(6) 0.3494(7) 0.2051(6)
H13A H 1.1711 0.3695 0.1851
H14A H 1.1584 0.3173 0.2237
O7A O 1.0999(7) 0.3348(7) 0.1712(6)
C19A C 1.1143(7) 0.3006(10) 0.1269(8)
C20A C 1.1670(7) 0.2816(9) 0.1189(8)
H15A H 1.1951 0.2876 0.1451
C21A C 1.1777(8) 0.2502(10) 0.0649(9)
H16A H 1.2137 0.2445 0.0514
C22A C 1.1317(9) 0.2306(9) 0.0371(8)
C23A C 1.0785(8) 0.2501(9) 0.0463(8)
H17A H 1.0498 0.2427 0.0213
C24A C 1.0687(8) 0.2828(10) 0.0966(9)
H18A H 1.0326 0.2915 0.1080
C25A C 1.1304(9) 0.1980(8) -0.0171(7)
O8A O 1.0862(6) 0.1971(5) -0.0452(5)
O9A O 1.1822(6) 0.1694(7) -0.0187(6)
C26A C 1.1491(7) 0.4073(7) 0.2927(7)
H19A H 1.1779 0.4312 0.2773
H20A H 1.1296 0.4276 0.3218
O10A O 1.1722(7) 0.3585(6) 0.3138(6)
C27A C 1.1994(10) 0.3653(7) 0.3652(8)
C28A C 1.2256(9) 0.3186(7) 0.3852(8)
H21A H 1.2230 0.2850 0.3660
C29A C 1.2580(8) 0.3225(7) 0.4378(7)
H22A H 1.2740 0.2907 0.4533
C30A C 1.2643(7) 0.3733(7) 0.4636(6)
C31A C 1.2434(9) 0.4218(7) 0.4395(8)
H23A H 1.2516 0.4567 0.4544
C32A C 1.2070(9) 0.4157(7) 0.3885(8)
H24A H 1.1898 0.4469 0.3732
C33A C 1.2963(9) 0.3690(10) 0.5180(8)
O11A O 1.3009(5) 0.4156(6) 0.5487(5)
O12A O 1.3328(6) 0.3187(6) 0.5178(6)
Zn3A Zn 0.69638(7) 0.41248(6) 0.37162(7)
Zn4A Zn 0.91257(6) 0.19621(7) 0.12868(7)
C1B C 1.1094(4) 0.6107(4) -0.2483(4)
C2B C 1.0597(6) 0.6458(6) -0.2692(7)
H1B H 1.0363 0.6556 -0.2376
H2B H 1.0737 0.6802 -0.2853
O1B O 1.0303(4) 0.6207(5) -0.3053(5)
C3B C 0.9736(5) 0.6267(5) -0.3117(6)
C4B C 0.9447(5) 0.5815(6) -0.3296(7)
H3B H 0.9630 0.5479 -0.3364
C5B C 0.8852(5) 0.5861(6) -0.3381(6)
H4B H 0.8648 0.5551 -0.3493
C6B C 0.8589(5) 0.6357(5) -0.3299(6)
C7B C 0.8878(5) 0.6811(5) -0.3106(6)
H5B H 0.8696 0.7147 -0.3040
C8B C 0.9489(5) 0.6759(6) -0.3005(7)
H6B H 0.9695 0.7058 -0.2867
C9B C 0.7975(5) 0.6388(6) -0.3332(6)
O2B O 0.7746(4) 0.5972(5) -0.3531(4)
O3B O 0.7754(4) 0.6824(4) -0.3191(4)
C10B C 1.0878(7) 0.5608(6) -0.2155(7)
H7B H 1.0667 0.5736 -0.1834
H8B H 1.0632 0.5387 -0.2388
O4B O 1.1297(5) 0.5300(4) -0.1986(5)
C11B C 1.1305(5) 0.4746(5) -0.1878(5)
C12B C 1.0844(6) 0.4477(5) -0.1717(7)
H9B H 1.0503 0.4660 -0.1696
C13B C 1.0894(6) 0.3890(6) -0.1577(7)
H10B H 1.0601 0.3709 -0.1398
C14B C 1.1371(5) 0.3597(4) -0.1708(5)
C15B C 1.1819(5) 0.3880(5) -0.1897(6)
H11B H 1.2153 0.3691 -0.1959
C16B C 1.1788(6) 0.4474(5) -0.2005(7)
H12B H 1.2089 0.4665 -0.2158
C17B C 1.1380(6) 0.2971(5) -0.1652(6)
O5B O 1.0983(5) 0.2743(5) -0.1468(5)
O6B O 1.1845(4) 0.2753(4) -0.1806(4)
C18B C 1.1422(6) 0.6506(7) -0.2051(6)
H13B H 1.1711 0.6305 -0.1851
H14B H 1.1584 0.6827 -0.2237
O7B O 1.0999(7) 0.6652(7) -0.1712(6)
C19B C 1.1143(7) 0.6994(10) -0.1269(8)
C20B C 1.1670(7) 0.7184(9) -0.1189(8)
H15B H 1.1951 0.7124 -0.1451
C21B C 1.1777(8) 0.7498(10) -0.0649(9)
H16B H 1.2137 0.7555 -0.0514
C22B C 1.1317(9) 0.7694(9) -0.0371(8)
C23B C 1.0785(8) 0.7499(9) -0.0463(8)
H17B H 1.0498 0.7573 -0.0213
C24B C 1.0687(8) 0.7172(10) -0.0966(9)
H18B H 1.0326 0.7085 -0.1080
C25B C 1.1304(9) 0.8020(8) 0.0171(7)
O8B O 1.0862(6) 0.8029(5) 0.0452(5)
O9B O 1.1822(6) 0.8306(7) 0.0187(6)
C26B C 1.1491(7) 0.5927(7) -0.2927(7)
H19B H 1.1779 0.5688 -0.2773
H20B H 1.1296 0.5724 -0.3218
O10B O 1.1722(7) 0.6415(6) -0.3138(6)
C27B C 1.1994(10) 0.6347(7) -0.3652(8)
C28B C 1.2256(9) 0.6814(7) -0.3852(8)
H21B H 1.2230 0.7150 -0.3660
C29B C 1.2580(8) 0.6775(7) -0.4378(7)
H22B H 1.2740 0.7093 -0.4533
C30B C 1.2643(7) 0.6267(7) -0.4636(6)
C31B C 1.2434(9) 0.5782(7) -0.4395(8)
H23B H 1.2516 0.5433 -0.4544
C32B C 1.2070(9) 0.5843(7) -0.3885(8)
H24B H 1.1898 0.5531 -0.3732
C33B C 1.2963(9) 0.6310(10) -0.5180(8)
O11B O 1.3009(5) 0.5844(6) -0.5487(5)
O12B O 1.3328(6) 0.6813(6) -0.5178(6)
Zn3B Zn 0.69638(7) 0.58752(6) -0.37162(7)
Zn4B Zn 0.91257(6) 0.80379(7) -0.12868(7)
O3E O 1.3191(4) 0.7754(4) 0.3176(4)
O3K O 1.3176(4) 0.6809(4) 0.2246(4)
O5C O 0.9017(5) 0.7257(5) -0.1468(5)
O6D O 1.1806(4) 0.8155(4) 0.2753(4)
O6J O 1.2753(4) 0.8194(4) 0.1845(4)
O8C O 0.9138(6) 0.1971(5) 0.0452(5)
O9D O 0.9813(6) 0.8178(6) -0.1694(7)
O9E O 0.9813(6) 0.1822(6) 0.1694(7)
O9G O 1.0187(6) 0.8178(6) 0.1694(7)
O11_2 O 0.6991(5) 0.5844(6) -0.4513(5)
O11B_2 O 1.3009(5) 0.5844(6) 0.4513(5)
O11C O 0.6991(5) 0.4156(6) 0.4513(5)
O12H O 0.6813(6) 0.5178(6) -0.3328(6)
O12I O 1.3187(6) 0.5178(6) 0.3328(6)
O12J O 0.6813(6) 0.4822(6) 0.3328(6)
O13A O 0.6512(3) 0.3488(3) 0.3488(3)
O13B O 0.6512(3) 0.6512(3) -0.3488(3)
O14A O 0.8481(3) 0.1519(3) 0.1519(3)
O14B O 0.8481(3) 0.8481(3) -0.1519(3)
Zn1A Zn 0.69683(7) 0.30317(7) 0.30317(7)
Zn1B Zn 0.69683(7) 0.69683(7) -0.30317(7)
Zn2A Zn 0.80364(7) 0.19636(7) 0.19636(7)
Zn2C Zn 1.19636(7) 0.19636(7) -0.19636(7)
Zn3_2 Zn 1.30362(7) 0.58752(6) -0.62838(7)
Zn3B_2 Zn 0.69638(7) 0.58752(6) 0.62838(7)
Zn3C Zn 1.30362(7) 0.41248(6) 0.62838(7)
Zn3D Zn 1.37162(7) 0.30362(7) 0.58752(6)
Zn3E Zn 1.37162(7) 0.69638(7) -0.58752(6)
Zn3E_2 Zn 1.37162(7) 0.69638(7) 0.41248(6)
Zn3F Zn 0.62838(7) 0.69638(7) 0.58752(6)
Zn3K Zn 1.41248(6) 0.62838(7) 0.30362(7)
Zn4C Zn 1.08743(6) 0.19621(7) -0.12868(7)
Zn4E Zn 1.12868(7) 0.91257(6) 0.19621(7)
Zn4I Zn 1.19621(7) 0.12868(7) -0.08743(6)
Zn4J Zn 0.80379(7) 0.87132(7) -0.08743(6)
Zn4K Zn 1.19621(7) 0.87132(7) 0.08743(6)
H25? H 1.2229 0.7302 0.2704
loop_
_geom_bond_atom_site_label_1
_geom_bond_atom_site_label_2
_geom_bond_site_symmetry_1
_geom_bond_site_symmetry_2
C1 C2 1_555 1_555
C2 H1 1_555 1_555
H2 C2 1_555 1_555
O1 C2 1_555 1_555
C3 O1 1_555 1_555
C4 C3 1_555 1_555
H3 C4 1_555 1_555
C5 C4 1_555 1_555
H4 C5 1_555 1_555
C6 C5 1_555 1_555
C7 C6 1_555 1_555
H5 C7 1_555 1_555
C8 C3 1_555 1_555
H6 C8 1_555 1_555
C9 C6 1_555 1_555
O2 C9 1_555 1_555
O3 C9 1_555 1_555
C10 C1 1_555 1_555
H7 C10 1_555 1_555
H8 C10 1_555 1_555
O4 C10 1_555 1_555
C11 O4 1_555 1_555
C12 C11 1_555 1_555
H9 C12 1_555 1_555
C13 C12 1_555 1_555
H10 C13 1_555 1_555
C14 C13 1_555 1_555
C15 C14 1_555 1_555
H11 C15 1_555 1_555
C16 C11 1_555 1_555
H12 C16 1_555 1_555
C17 C14 1_555 1_555
O5 C17 1_555 1_555
O6 C17 1_555 1_555
C18 C1 1_555 1_555
H13 C18 1_555 1_555
H14 C18 1_555 1_555
O7 C18 1_555 1_555
C19 O7 1_555 1_555
C20 C19 1_555 1_555
H15 C20 1_555 1_555
C21 C20 1_555 1_555
H16 C21 1_555 1_555
C22 C21 1_555 1_555
C23 C22 1_555 1_555
H17 C23 1_555 1_555
C24 C19 1_555 1_555
H18 C24 1_555 1_555
C25 C22 1_555 1_555
O8 C25 1_555 1_555
O9 C25 1_555 1_555
C26 C1 1_555 1_555
H19 C26 1_555 1_555
H20 C26 1_555 1_555
O10 C26 1_555 1_555
C27 O10 1_555 1_555
C28 C27 1_555 1_555
H21 C28 1_555 1_555
C29 C28 1_555 1_555
H22 C29 1_555 1_555
C30 C29 1_555 1_555
C31 C30 1_555 1_555
H23 C31 1_555 1_555
C32 C27 1_555 1_555
H24 C32 1_555 1_555
C33 C30 1_555 1_555
O11 C33 1_555 1_555
O12 C33 1_555 1_555
O13 Zn1 1_555 1_555
O14 Zn2 1_555 1_555
O15 Zn1 1_555 1_555
Zn1 O3 1_555 1_555
Zn2 O15 1_555 1_555
Zn3 O2 1_555 1_555
Zn4 O14 1_555 1_555
C1A C2A 1_555 1_555
C2A H1A 1_555 1_555
H2A C2A 1_555 1_555
O1A C2A 1_555 1_555
C3A O1A 1_555 1_555
C4A C3A 1_555 1_555
H3A C4A 1_555 1_555
C5A C4A 1_555 1_555
H4A C5A 1_555 1_555
C6A C5A 1_555 1_555
C7A C6A 1_555 1_555
H5A C7A 1_555 1_555
C8A C3A 1_555 1_555
H6A C8A 1_555 1_555
C9A C6A 1_555 1_555
O2A C9A 1_555 1_555
O3A C9A 1_555 1_555
C10A C1A 1_555 1_555
H7A C10A 1_555 1_555
H8A C10A 1_555 1_555
O4A C10A 1_555 1_555
C11A O4A 1_555 1_555
C12A C11A 1_555 1_555
H9A C12A 1_555 1_555
C13A C12A 1_555 1_555
H10A C13A 1_555 1_555
C14A C13A 1_555 1_555
C15A C14A 1_555 1_555
H11A C15A 1_555 1_555
C16A C11A 1_555 1_555
H12A C16A 1_555 1_555
C17A C14A 1_555 1_555
O5A Zn4 1_555 1_555
O6A Zn2 1_555 1_555
C18A C1A 1_555 1_555
H13A C18A 1_555 1_555
H14A C18A 1_555 1_555
O7A C18A 1_555 1_555
C19A O7A 1_555 1_555
C20A C19A 1_555 1_555
H15A C20A 1_555 1_555
C21A C20A 1_555 1_555
H16A C21A 1_555 1_555
C22A C21A 1_555 1_555
C23A C22A 1_555 1_555
H17A C23A 1_555 1_555
C24A C19A 1_555 1_555
H18A C24A 1_555 1_555
C25A C22A 1_555 1_555
O8A C25A 1_555 1_555
O9A C25A 1_555 1_555
C26A C1A 1_555 1_555
H19A C26A 1_555 1_555
H20A C26A 1_555 1_555
O10A C26A 1_555 1_555
C27A O10A 1_555 1_555
C28A C27A 1_555 1_555
H21A C28A 1_555 1_555
C29A C28A 1_555 1_555
H22A C29A 1_555 1_555
C30A C29A 1_555 1_555
C31A C30A 1_555 1_555
H23A C31A 1_555 1_555
C32A C27A 1_555 1_555
H24A C32A 1_555 1_555
C33A C30A 1_555 1_555
O11A C33A 1_555 1_555
O12A C33A 1_555 1_555
Zn3A O2A 1_555 1_555
Zn4A O5 1_555 1_555
C1B C2B 1_555 1_555
C2B H1B 1_555 1_555
H2B C2B 1_555 1_555
O1B C2B 1_555 1_555
C3B O1B 1_555 1_555
C4B C3B 1_555 1_555
H3B C4B 1_555 1_555
C5B C4B 1_555 1_555
H4B C5B 1_555 1_555
C6B C5B 1_555 1_555
C7B C6B 1_555 1_555
H5B C7B 1_555 1_555
C8B C3B 1_555 1_555
H6B C8B 1_555 1_555
C9B C6B 1_555 1_555
O2B C9B 1_555 1_555
O3B C9B 1_555 1_555
C10B C1B 1_555 1_555
H7B C10B 1_555 1_555
H8B C10B 1_555 1_555
O4B C10B 1_555 1_555
C11B O4B 1_555 1_555
C12B C11B 1_555 1_555
H9B C12B 1_555 1_555
C13B C12B 1_555 1_555
H10B C13B 1_555 1_555
C14B C13B 1_555 1_555
C15B C14B 1_555 1_555
H11B C15B 1_555 1_555
C16B C11B 1_555 1_555
H12B C16B 1_555 1_555
C17B C14B 1_555 1_555
O5B C17B 1_555 1_555
O6B C17B 1_555 1_555
C18B C1B 1_555 1_555
H13B C18B 1_555 1_555
H14B C18B 1_555 1_555
O7B C18B 1_555 1_555
C19B O7B 1_555 1_555
C20B C19B 1_555 1_555
H15B C20B 1_555 1_555
C21B C20B 1_555 1_555
H16B C21B 1_555 1_555
C22B C21B 1_555 1_555
C23B C22B 1_555 1_555
H17B C23B 1_555 1_555
C24B C19B 1_555 1_555
H18B C24B 1_555 1_555
C25B C22B 1_555 1_555
O8B Zn4 1_555 1_555
O9B C25B 1_555 1_555
C26B C1B 1_555 1_555
H19B C26B 1_555 1_555
H20B C26B 1_555 1_555
O10B C26B 1_555 1_555
C27B O10B 1_555 1_555
C28B C27B 1_555 1_555
H21B C28B 1_555 1_555
C29B C28B 1_555 1_555
H22B C29B 1_555 1_555
C30B C29B 1_555 1_555
C31B C30B 1_555 1_555
H23B C31B 1_555 1_555
C32B C27B 1_555 1_555
H24B C32B 1_555 1_555
C33B C30B 1_555 1_555
O11B C33B 1_555 1_555
O12B C33B 1_555 1_555
Zn3B O2B 1_555 1_555
Zn4B O8 1_555 1_555
O3E Zn1 1_555 1_555
O3K Zn1 1_555 1_555
O5C Zn4B 1_555 1_555
O6D Zn2 1_555 1_555
O6J Zn2 1_555 1_555
O8C Zn4A 1_555 1_555
O9D Zn4B 1_555 1_555
O9E Zn4A 1_555 1_555
O9G Zn4 1_555 1_555
O11_2 Zn3B 1_555 1_555
O11B_2 Zn3 1_555 1_555
O11C Zn3A 1_555 1_555
O12H Zn3B 1_555 1_555
O12I Zn3 1_555 1_555
O12J Zn3A 1_555 1_555
O13A Zn3A 1_555 1_555
O13B Zn3B 1_555 1_555
O14A Zn4A 1_555 1_555
O14B Zn4B 1_555 1_555
Zn1A O3A 1_555 1_555
Zn1B O3B 1_555 1_555
Zn2A O6 1_555 1_555
Zn2C O6B 1_555 1_555
Zn3_2 O11B 1_555 1_555
Zn3B_2 O11 1_555 1_555
Zn3C O11A 1_555 1_555
Zn3D O12A 1_555 1_555
Zn3E O12B 1_555 1_555
Zn3E_2 O13 1_555 1_555
Zn3F O12 1_555 1_555
Zn3K O13 1_555 1_555
Zn4C O8A 1_555 1_555
Zn4E O14 1_555 1_555
Zn4I O9A 1_555 1_555
Zn4J O9 1_555 1_555
Zn4K O14 1_555 1_555
C7 C8 1_555 1_555
C15 C16 1_555 1_555
C23 C24 1_555 1_555
C31 C32 1_555 1_555
O13 Zn3 1_555 1_555
C7A C8A 1_555 1_555
C15A C16A 1_555 1_555
C17A O5A 1_555 1_555
C17A O6A 1_555 1_555
C23A C24A 1_555 1_555
C31A C32A 1_555 1_555
C7B C8B 1_555 1_555
C15B C16B 1_555 1_555
O5B Zn4C 1_555 1_555
C23B C24B 1_555 1_555
C25B O8B 1_555 1_555
O9B Zn4K 1_555 1_555
C31B C32B 1_555 1_555
O13A Zn1A 1_555 1_555
O13B Zn1B 1_555 1_555
O14A Zn2A 1_555 1_555
O14B Zn4J 1_555 1_555

#END
