
#######################################################################
#
#                 Cambridge Crystallographic Data Centre
#                                CCDC 
#
#######################################################################
#
# If this CIF has been generated from an entry in the Cambridge 
# Structural Database, then it will include bibliographic, chemical, 
# crystal, experimental, refinement or atomic coordinate data resulting 
# from the CCDC's data processing and validation procedures.
#
#######################################################################

data_MIHHIV
_chemical_name_common            ZIF-22
_chemical_formula_moiety         '(C24 H16 N12 Zn2)n,8.33n(H2 O1)'
_chemical_name_systematic        
'catena-(tetrakis(\m~2~-5-Azabenzimidazolate-N^1^,N^3^)-di-zinc hydrate)'
_symmetry_cell_setting           cubic
_symmetry_space_group_name_H-M   'F m -3 m'
_symmetry_Int_Tables_number      225
_space_group_name_Hall           '-F 4 2 3'
loop_
_symmetry_equiv_pos_site_id
_symmetry_equiv_pos_as_xyz
1 x,y,z
2 -y,x,z
3 x,-y,-z
4 z,x,y
5 -x,-y,z
6 y,x,-z
7 -x,z,y
8 y,-x,z
9 -x,y,-z
10 -z,-x,y
11 -y,-x,-z
12 x,-z,y
13 z,-x,-y
14 -x,-z,-y
15 -z,x,-y
16 x,z,-y
17 y,z,x
18 z,-y,x
19 -z,y,x
20 z,y,-x
21 y,-z,-x
22 -z,-y,-x
23 -y,z,-x
24 -y,-z,x
25 x,1/2+y,1/2+z
26 -y,1/2+x,1/2+z
27 x,1/2-y,1/2-z
28 z,1/2+x,1/2+y
29 -x,1/2-y,1/2+z
30 y,1/2+x,1/2-z
31 -x,1/2+z,1/2+y
32 y,1/2-x,1/2+z
33 -x,1/2+y,1/2-z
34 -z,1/2-x,1/2+y
35 -y,1/2-x,1/2-z
36 x,1/2-z,1/2+y
37 z,1/2-x,1/2-y
38 -x,1/2-z,1/2-y
39 -z,1/2+x,1/2-y
40 x,1/2+z,1/2-y
41 y,1/2+z,1/2+x
42 z,1/2-y,1/2+x
43 -z,1/2+y,1/2+x
44 z,1/2+y,1/2-x
45 y,1/2-z,1/2-x
46 -z,1/2-y,1/2-x
47 -y,1/2+z,1/2-x
48 -y,1/2-z,1/2+x
49 1/2+x,y,1/2+z
50 1/2-y,x,1/2+z
51 1/2+x,-y,1/2-z
52 1/2+z,x,1/2+y
53 1/2-x,-y,1/2+z
54 1/2+y,x,1/2-z
55 1/2-x,z,1/2+y
56 1/2+y,-x,1/2+z
57 1/2-x,y,1/2-z
58 1/2-z,-x,1/2+y
59 1/2-y,-x,1/2-z
60 1/2+x,-z,1/2+y
61 1/2+z,-x,1/2-y
62 1/2-x,-z,1/2-y
63 1/2-z,x,1/2-y
64 1/2+x,z,1/2-y
65 1/2+y,z,1/2+x
66 1/2+z,-y,1/2+x
67 1/2-z,y,1/2+x
68 1/2+z,y,1/2-x
69 1/2+y,-z,1/2-x
70 1/2-z,-y,1/2-x
71 1/2-y,z,1/2-x
72 1/2-y,-z,1/2+x
73 1/2+x,1/2+y,z
74 1/2-y,1/2+x,z
75 1/2+x,1/2-y,-z
76 1/2+z,1/2+x,y
77 1/2-x,1/2-y,z
78 1/2+y,1/2+x,-z
79 1/2-x,1/2+z,y
80 1/2+y,1/2-x,z
81 1/2-x,1/2+y,-z
82 1/2-z,1/2-x,y
83 1/2-y,1/2-x,-z
84 1/2+x,1/2-z,y
85 1/2+z,1/2-x,-y
86 1/2-x,1/2-z,-y
87 1/2-z,1/2+x,-y
88 1/2+x,1/2+z,-y
89 1/2+y,1/2+z,x
90 1/2+z,1/2-y,x
91 1/2-z,1/2+y,x
92 1/2+z,1/2+y,-x
93 1/2+y,1/2-z,-x
94 1/2-z,1/2-y,-x
95 1/2-y,1/2+z,-x
96 1/2-y,1/2-z,x
97 -x,-y,-z
98 y,-x,-z
99 -x,y,z
100 -z,-x,-y
101 x,y,-z
102 -y,-x,z
103 x,-z,-y
104 -y,x,-z
105 x,-y,z
106 z,x,-y
107 y,x,z
108 -x,z,-y
109 -z,x,y
110 x,z,y
111 z,-x,y
112 -x,-z,y
113 -y,-z,-x
114 -z,y,-x
115 z,-y,-x
116 -z,-y,x
117 -y,z,x
118 z,y,x
119 y,-z,x
120 y,z,-x
121 -x,1/2-y,1/2-z
122 y,1/2-x,1/2-z
123 -x,1/2+y,1/2+z
124 -z,1/2-x,1/2-y
125 x,1/2+y,1/2-z
126 -y,1/2-x,1/2+z
127 x,1/2-z,1/2-y
128 -y,1/2+x,1/2-z
129 x,1/2-y,1/2+z
130 z,1/2+x,1/2-y
131 y,1/2+x,1/2+z
132 -x,1/2+z,1/2-y
133 -z,1/2+x,1/2+y
134 x,1/2+z,1/2+y
135 z,1/2-x,1/2+y
136 -x,1/2-z,1/2+y
137 -y,1/2-z,1/2-x
138 -z,1/2+y,1/2-x
139 z,1/2-y,1/2-x
140 -z,1/2-y,1/2+x
141 -y,1/2+z,1/2+x
142 z,1/2+y,1/2+x
143 y,1/2-z,1/2+x
144 y,1/2+z,1/2-x
145 1/2-x,-y,1/2-z
146 1/2+y,-x,1/2-z
147 1/2-x,y,1/2+z
148 1/2-z,-x,1/2-y
149 1/2+x,y,1/2-z
150 1/2-y,-x,1/2+z
151 1/2+x,-z,1/2-y
152 1/2-y,x,1/2-z
153 1/2+x,-y,1/2+z
154 1/2+z,x,1/2-y
155 1/2+y,x,1/2+z
156 1/2-x,z,1/2-y
157 1/2-z,x,1/2+y
158 1/2+x,z,1/2+y
159 1/2+z,-x,1/2+y
160 1/2-x,-z,1/2+y
161 1/2-y,-z,1/2-x
162 1/2-z,y,1/2-x
163 1/2+z,-y,1/2-x
164 1/2-z,-y,1/2+x
165 1/2-y,z,1/2+x
166 1/2+z,y,1/2+x
167 1/2+y,-z,1/2+x
168 1/2+y,z,1/2-x
169 1/2-x,1/2-y,-z
170 1/2+y,1/2-x,-z
171 1/2-x,1/2+y,z
172 1/2-z,1/2-x,-y
173 1/2+x,1/2+y,-z
174 1/2-y,1/2-x,z
175 1/2+x,1/2-z,-y
176 1/2-y,1/2+x,-z
177 1/2+x,1/2-y,z
178 1/2+z,1/2+x,-y
179 1/2+y,1/2+x,z
180 1/2-x,1/2+z,-y
181 1/2-z,1/2+x,y
182 1/2+x,1/2+z,y
183 1/2+z,1/2-x,y
184 1/2-x,1/2-z,y
185 1/2-y,1/2-z,-x
186 1/2-z,1/2+y,-x
187 1/2+z,1/2-y,-x
188 1/2-z,1/2-y,x
189 1/2-y,1/2+z,x
190 1/2+z,1/2+y,x
191 1/2+y,1/2-z,x
192 1/2+y,1/2+z,-x
_cell_length_a                   45.6001(2)
_cell_length_b                   45.6001(2)
_cell_length_c                   45.6001(2)
_cell_angle_alpha                90
_cell_angle_beta                 90
_cell_angle_gamma                90
_cell_volume                     94819.4
_cell_formula_units_Z            96
loop_
_atom_site_label
_atom_site_type_symbol
_atom_site_fract_x
_atom_site_fract_y
_atom_site_fract_z
_atom_site_U_iso_or_equiv
_atom_site_thermal_displace_type
O2 O 0.2500 0.2500 0.0366(11) 0.2430 Uiso
O3 O 0.1871(8) 0.3129(8) 0.1871(8) 0.2900 Uiso
O4 O 0.3487(8) 0.1513(8) 0.0000 0.2750 Uiso
O5 O 0.3773(7) 0.1797(8) 0.0000 0.3280 Uiso
O6 O 0.343(2) 0.0000 0.0000 0.4600 Uiso
O7 O 0.1915(12) 0.3085(12) 0.2318(18) 0.6400 Uiso
O8 O 0.2044(8) 0.3546(5) 0.1454(5) 0.3300 Uiso
C1 C 0.2030(2) 0.2030(2) 0.0687(3) 0.0673 Uani
H1 H 0.1984 0.1984 0.0493 0.0810 Uiso
C2 C 0.2238(2) 0.2019(2) 0.1104(2) 0.0590 Uani
C3 C 0.2395(3) 0.1968(3) 0.1347(3) 0.0920 Uani
H2 H 0.2535 0.1820 0.1348 0.1100 Uiso
C4 C 0.2353(3) 0.2128(3) 0.1585(3) 0.1167 Uani
H3 H 0.2467 0.2096 0.1752 0.1400 Uiso
C5 C 0.2483(3) 0.1625(3) 0.0000 0.0597 Uani
H4 H 0.2654 0.1737 0.0000 0.0720 Uiso
C6 C 0.2109(3) 0.1386(2) 0.0153(2) 0.0777 Uani
C7 C 0.1880(3) 0.1246(3) 0.0282(4) 0.1233 Uani
H5 H 0.1881 0.1227 0.0485 0.1480 Uiso
C8 C 0.1664(3) 0.1139(4) 0.0139(3) 0.1670 Uani
H6 H 0.1505 0.1061 0.0240 0.2000 Uiso
C9 C 0.2969(2) 0.2031(2) 0.0656(3) 0.0600 Uani
H7 H 0.2825 0.2175 0.0646 0.0720 Uiso
C10 C 0.3173(2) 0.1614(2) 0.0679(2) 0.0757 Uani
C11 C 0.3246(3) 0.1331(3) 0.0708(3) 0.1163 Uani
H8 H 0.3100 0.1189 0.0715 0.1390 Uiso
C12 C 0.3529(3) 0.1249(3) 0.0728(3) 0.1273 Uani
H9 H 0.3579 0.1051 0.0741 0.1530 Uiso
C13 C 0.2447(3) 0.1123(2) 0.1123(2) 0.0630 Uani
H10 H 0.2406 0.1265 0.1265 0.0760 Uiso
C14 C 0.2547(2) 0.0928(2) 0.0718(2) 0.0687 Uani
C15 C 0.2610(3) 0.0851(3) 0.0431(2) 0.1027 Uani
H11 H 0.2602 0.0993 0.0284 0.1230 Uiso
C16 C 0.2679(3) 0.0584(3) 0.0364(2) 0.1143 Uani
H12 H 0.2729 0.0537 0.0172 0.1370 Uiso
N1 N 0.22374(18) 0.18910(17) 0.0830(2) 0.0707 Uani
N2 N 0.23483(19) 0.15371(17) 0.02483(18) 0.0670 Uani
N3 N 0.28978(18) 0.17475(18) 0.06633(18) 0.0663 Uani
N4 N 0.24761(16) 0.11929(18) 0.08465(18) 0.0647 Uani
Zn1 Zn 0.24978(3) 0.15875(3) 0.06554(3) 0.0663 Uani
C2BD C 0.2019(2) 0.2238(2) 0.1104(2) 0.0590 Uani
C3BD C 0.1968(3) 0.2395(3) 0.1347(3) 0.0920 Uani
C4BD C 0.2128(3) 0.2353(3) 0.1585(3) 0.1167 Uani
H3BD H 0.2096 0.2467 0.1752 0.1400 Uiso
C6VC C 0.2109(3) 0.1386(2) -0.0153(2) 0.0777 Uani
C7VC C 0.1880(3) 0.1246(3) -0.0282(4) 0.1233 Uani
C8VC C 0.1664(3) 0.1139(4) -0.0139(3) 0.1670 Uani
H6VC H 0.1505 0.1061 -0.0240 0.2000 Uiso
C10QF C 0.3386(2) 0.1827(2) 0.0679(2) 0.0757 Uani
C11QF C 0.3669(3) 0.1754(3) 0.0708(3) 0.1163 Uani
C12QF C 0.3751(3) 0.1471(3) 0.0728(3) 0.1273 Uani
H9QF H 0.3949 0.1421 0.0741 0.1530 Uiso
C14ED C 0.2547(2) 0.0718(2) 0.0928(2) 0.0687 Uani
C15ED C 0.2610(3) 0.0431(2) 0.0851(3) 0.1027 Uani
C16ED C 0.2679(3) 0.0364(2) 0.0584(3) 0.1143 Uani
H12ED H 0.2729 0.0172 0.0537 0.1370 Uiso
N1BD N 0.18910(17) 0.22374(18) 0.0830(2) 0.0707 Uani
N2VC N 0.23483(19) 0.15371(17) -0.02483(18) 0.0670 Uani
N3QF N 0.32525(18) 0.21022(18) 0.06633(18) 0.0663 Uani
N4ED N 0.24761(16) 0.08465(18) 0.11929(18) 0.0647 Uani
Zn1BD Zn 0.15875(3) 0.24978(3) 0.06554(3) 0.0663 Uani
Zn1VC Zn 0.24978(3) 0.15875(3) -0.06554(3) 0.0663 Uani
Zn1QF Zn 0.34125(3) 0.25022(3) 0.06554(3) 0.0663 Uani
Zn1ED Zn 0.24978(3) 0.06554(3) 0.15875(3) 0.0663 Uani
O1 O 0.1474(7) 0.1474(7) 0.1474(7) 0.2700 Uiso
N5? N 0.2353(3) 0.2128(3) 0.1585(3) 0.1167 Uani
N6? N 0.1664(3) 0.1139(4) 0.0139(3) 0.1670 Uani
N7? N 0.3529(3) 0.1249(3) 0.0728(3) 0.1273 Uani
N8? N 0.2679(3) 0.0584(3) 0.0364(2) 0.1143 Uani
O9? O 0.3237(6) 0.1763(6) 0.0000 0.2080 Uiso
O10? O 0.1662(4) 0.3338(4) 0.1662(4) 0.1300 Uiso
O11? O 0.2500 0.2500 0.0000 0.3200 Uiso
O12? O 0.1657(6) 0.1657(6) 0.1657(6) 0.2060 Uiso
O13? O 0.3665(8) 0.1098(9) 0.0000 0.4100 Uiso
O14? O 0.296(3) 0.204(3) 0.0000 0.8300 Uiso
O15? O 0.2754(15) 0.2246(15) 0.0000 0.4200 Uiso
loop_
_atom_site_aniso_label
_atom_site_aniso_U_11
_atom_site_aniso_U_22
_atom_site_aniso_U_33
_atom_site_aniso_U_23
_atom_site_aniso_U_13
_atom_site_aniso_U_12
C1 0.070(6) 0.070(6) 0.062(10) 0.009(6) 0.009(6) 0.016(9)
C2 0.055(6) 0.067(6) 0.055(6) 0.006(5) -0.002(5) -0.005(5)
C3 0.097(9) 0.076(9) 0.103(11) -0.002(8) 0.002(9) -0.002(7)
C4 0.132(10) 0.115(10) 0.103(10) 0.017(8) -0.025(8) -0.013(9)
C5 0.062(9) 0.049(9) 0.068(11) 0.000 0.000 0.010(7)
C6 0.065(7) 0.070(7) 0.098(8) 0.012(6) 0.000(6) -0.011(6)
C7 0.090(11) 0.123(12) 0.157(15) 0.037(11) 0.021(11) 0.000(9)
C8 0.103(10) 0.228(18) 0.170(18) 0.012(11) -0.003(9) -0.079(12)
C9 0.064(6) 0.064(6) 0.052(9) 0.003(4) -0.003(4) 0.027(8)
C10 0.064(7) 0.058(6) 0.105(9) 0.015(6) 0.001(5) 0.036(5)
C11 0.087(10) 0.113(12) 0.149(13) 0.022(10) 0.018(9) 0.028(9)
C12 0.101(9) 0.108(9) 0.173(13) 0.034(8) -0.009(8) 0.038(8)
C13 0.065(10) 0.062(6) 0.062(6) 0.000(8) 0.006(5) 0.006(5)
C14 0.097(8) 0.055(7) 0.054(7) 0.005(5) 0.005(5) 0.006(5)
C15 0.186(13) 0.073(9) 0.049(8) 0.011(7) 0.017(8) 0.044(9)
C16 0.206(14) 0.080(8) 0.057(7) -0.005(6) 0.009(8) 0.015(9)
N1 0.072(6) 0.059(6) 0.081(7) 0.016(5) 0.005(5) 0.008(4)
N2 0.057(5) 0.063(6) 0.081(6) 0.019(5) 0.004(5) 0.005(5)
N3 0.072(6) 0.056(5) 0.071(6) 0.021(4) 0.004(4) 0.015(5)
N4 0.092(7) 0.054(6) 0.048(6) 0.009(4) 0.005(4) 0.002(4)
Zn1 0.0727(13) 0.0563(13) 0.0699(13) 0.0161(7) 0.0080(6) 0.0120(6)
C2BD 0.067 0.055 0.055 -0.002 0.006 -0.005
C3BD 0.076 0.097 0.103 0.002 -0.002 -0.002
C4BD 0.115 0.132 0.103 -0.025 0.017 -0.013
C6VC 0.065 0.07 0.098 -0.012 0 -0.011
C7VC 0.09 0.123 0.157 -0.037 -0.021 0
C8VC 0.103 0.228 0.17 -0.012 0.003 -0.079
C10QF 0.058 0.064 0.105 -0.001 -0.015 0.036
C11QF 0.113 0.087 0.149 -0.018 -0.022 0.028
C12QF 0.108 0.101 0.173 0.009 -0.034 0.038
C14ED 0.097 0.054 0.055 0.005 0.006 0.005
C15ED 0.186 0.049 0.073 0.011 0.044 0.017
C16ED 0.206 0.057 0.08 -0.005 0.015 0.009
N1BD 0.059 0.072 0.081 0.005 0.016 0.008
N2VC 0.057 0.063 0.081 -0.019 -0.004 0.005
N3QF 0.056 0.072 0.071 -0.004 -0.021 0.015
N4ED 0.092 0.048 0.054 0.009 0.002 0.005
Zn1BD 0.0563 0.0727 0.0699 0.008 0.0161 0.012
Zn1VC 0.0727 0.0563 0.0699 -0.0161 -0.008 0.012
Zn1QF 0.0563 0.0727 0.0699 -0.008 -0.0161 0.012
Zn1ED 0.0727 0.0699 0.0563 0.0161 0.012 0.008
N5? 0.132(10) 0.115(10) 0.103(10) 0.017(8) -0.025(8) -0.013(9)
N6? 0.103(10) 0.228(18) 0.170(18) 0.012(11) -0.003(9) -0.079(12)
N7? 0.101(9) 0.108(9) 0.173(13) 0.034(8) -0.009(8) 0.038(8)
N8? 0.206(14) 0.080(8) 0.057(7) -0.005(6) 0.009(8) 0.015(9)
loop_
_geom_bond_atom_site_label_1
_geom_bond_atom_site_label_2
_geom_bond_site_symmetry_1
_geom_bond_site_symmetry_2
C1 H1 1_555 1_555
C2 C3 1_555 1_555
C3 H2 1_555 1_555
C4 C3 1_555 1_555
H3 C4 1_555 1_555
C5 H4 1_555 1_555
C6 C7 1_555 1_555
C7 H5 1_555 1_555
C8 C7 1_555 1_555
H6 C8 1_555 1_555
C9 H7 1_555 1_555
C10 C11 1_555 1_555
C11 H8 1_555 1_555
C12 C11 1_555 1_555
H9 C12 1_555 1_555
C13 H10 1_555 1_555
C14 C15 1_555 1_555
C15 H11 1_555 1_555
C16 C15 1_555 1_555
H12 C16 1_555 1_555
N1 C1 1_555 1_555
N2 C5 1_555 1_555
N3 C9 1_555 1_555
N4 C13 1_555 1_555
Zn1 N1 1_555 1_555
C2BD C2 1_555 1_555
C3BD C2BD 1_555 1_555
C4BD C4 1_555 1_555
H3BD C4BD 1_555 1_555
C6VC C6 1_555 1_555
C7VC C6VC 1_555 1_555
C8VC C8 1_555 1_555
H6VC C8VC 1_555 1_555
C10QF C10 1_555 1_555
C11QF C10QF 1_555 1_555
C12QF C12 1_555 1_555
H9QF C12QF 1_555 1_555
C14ED C14 1_555 1_555
C15ED C14ED 1_555 1_555
C16ED C16 1_555 1_555
H12ED C16ED 1_555 1_555
N1BD C1 1_555 1_555
N2VC C5 1_555 1_555
N3QF C9 1_555 1_555
N4ED C13 1_555 1_555
Zn1BD N1BD 1_555 1_555
Zn1VC N2VC 1_555 1_555
Zn1QF N3QF 1_555 1_555
Zn1ED N4ED 1_555 1_555
C2 N1 1_555 1_555
C6 N2 1_555 1_555
C10 N3 1_555 1_555
C14 N4 1_555 1_555
N2 Zn1 1_555 1_555
N3 Zn1 1_555 1_555
N4 Zn1 1_555 1_555
C2BD N1BD 1_555 1_555
C3BD C4BD 1_555 1_555
C6VC N2VC 1_555 1_555
C7VC C8VC 1_555 1_555
C10QF N3QF 1_555 1_555
C11QF C12QF 1_555 1_555
C14ED N4ED 1_555 1_555
C15ED C16ED 1_555 1_555

#END
