
#######################################################################
#
#                 Cambridge Crystallographic Data Centre
#                                CCDC 
#
#######################################################################
#
# If this CIF has been generated from an entry in the Cambridge 
# Structural Database, then it will include bibliographic, chemical, 
# crystal, experimental, refinement or atomic coordinate data resulting 
# from the CCDC's data processing and validation procedures.
#
#######################################################################

data_MIHHAN
_chemical_name_common            ZIF-20
_chemical_formula_moiety         '(C20 H12 N16 Zn2)n,8.8n(H2 O1)'
_chemical_name_systematic        
'catena-(tetrakis(\m~2~-Purinate-N^7^,N^9^)-di-zinc unknown solvate hydrate)'
_symmetry_cell_setting           cubic
_symmetry_space_group_name_H-M   'F m -3 m'
_symmetry_Int_Tables_number      225
_space_group_name_Hall           '-F 4 2 3'
loop_
_symmetry_equiv_pos_site_id
_symmetry_equiv_pos_as_xyz
1 x,y,z
2 z,x,y
3 y,z,x
4 y,x,-z
5 y,-x,z
6 -y,x,z
7 x,z,-y
8 -x,z,y
9 x,-z,y
10 z,y,-x
11 z,-y,x
12 -z,y,x
13 x,1/2+y,1/2+z
14 z,1/2+x,1/2+y
15 y,1/2+z,1/2+x
16 y,1/2+x,1/2-z
17 y,1/2-x,1/2+z
18 -y,1/2+x,1/2+z
19 x,1/2+z,1/2-y
20 -x,1/2+z,1/2+y
21 x,1/2-z,1/2+y
22 z,1/2+y,1/2-x
23 z,1/2-y,1/2+x
24 -z,1/2+y,1/2+x
25 1/2+x,y,1/2+z
26 1/2+z,x,1/2+y
27 1/2+y,z,1/2+x
28 1/2+y,x,1/2-z
29 1/2+y,-x,1/2+z
30 1/2-y,x,1/2+z
31 1/2+x,z,1/2-y
32 1/2-x,z,1/2+y
33 1/2+x,-z,1/2+y
34 1/2+z,y,1/2-x
35 1/2+z,-y,1/2+x
36 1/2-z,y,1/2+x
37 1/2+x,1/2+y,z
38 1/2+z,1/2+x,y
39 1/2+y,1/2+z,x
40 1/2+y,1/2+x,-z
41 1/2+y,1/2-x,z
42 1/2-y,1/2+x,z
43 1/2+x,1/2+z,-y
44 1/2-x,1/2+z,y
45 1/2+x,1/2-z,y
46 1/2+z,1/2+y,-x
47 1/2+z,1/2-y,x
48 1/2-z,1/2+y,x
49 -x,-y,z
50 -x,y,-z
51 x,-y,-z
52 z,-x,-y
53 -z,-x,y
54 -z,x,-y
55 -y,z,-x
56 y,-z,-x
57 -y,-z,x
58 -y,-x,-z
59 -x,-z,-y
60 -z,-y,-x
61 -x,1/2-y,1/2+z
62 -x,1/2+y,1/2-z
63 x,1/2-y,1/2-z
64 z,1/2-x,1/2-y
65 -z,1/2-x,1/2+y
66 -z,1/2+x,1/2-y
67 -y,1/2+z,1/2-x
68 y,1/2-z,1/2-x
69 -y,1/2-z,1/2+x
70 -y,1/2-x,1/2-z
71 -x,1/2-z,1/2-y
72 -z,1/2-y,1/2-x
73 1/2-x,-y,1/2+z
74 1/2-x,y,1/2-z
75 1/2+x,-y,1/2-z
76 1/2+z,-x,1/2-y
77 1/2-z,-x,1/2+y
78 1/2-z,x,1/2-y
79 1/2-y,z,1/2-x
80 1/2+y,-z,1/2-x
81 1/2-y,-z,1/2+x
82 1/2-y,-x,1/2-z
83 1/2-x,-z,1/2-y
84 1/2-z,-y,1/2-x
85 1/2-x,1/2-y,z
86 1/2-x,1/2+y,-z
87 1/2+x,1/2-y,-z
88 1/2+z,1/2-x,-y
89 1/2-z,1/2-x,y
90 1/2-z,1/2+x,-y
91 1/2-y,1/2+z,-x
92 1/2+y,1/2-z,-x
93 1/2-y,1/2-z,x
94 1/2-y,1/2-x,-z
95 1/2-x,1/2-z,-y
96 1/2-z,1/2-y,-x
97 -x,-y,-z
98 -z,-x,-y
99 -y,-z,-x
100 -y,-x,z
101 -y,x,-z
102 y,-x,-z
103 -x,-z,y
104 x,-z,-y
105 -x,z,-y
106 -z,-y,x
107 -z,y,-x
108 z,-y,-x
109 -x,1/2-y,1/2-z
110 -z,1/2-x,1/2-y
111 -y,1/2-z,1/2-x
112 -y,1/2-x,1/2+z
113 -y,1/2+x,1/2-z
114 y,1/2-x,1/2-z
115 -x,1/2-z,1/2+y
116 x,1/2-z,1/2-y
117 -x,1/2+z,1/2-y
118 -z,1/2-y,1/2+x
119 -z,1/2+y,1/2-x
120 z,1/2-y,1/2-x
121 1/2-x,-y,1/2-z
122 1/2-z,-x,1/2-y
123 1/2-y,-z,1/2-x
124 1/2-y,-x,1/2+z
125 1/2-y,x,1/2-z
126 1/2+y,-x,1/2-z
127 1/2-x,-z,1/2+y
128 1/2+x,-z,1/2-y
129 1/2-x,z,1/2-y
130 1/2-z,-y,1/2+x
131 1/2-z,y,1/2-x
132 1/2+z,-y,1/2-x
133 1/2-x,1/2-y,-z
134 1/2-z,1/2-x,-y
135 1/2-y,1/2-z,-x
136 1/2-y,1/2-x,z
137 1/2-y,1/2+x,-z
138 1/2+y,1/2-x,-z
139 1/2-x,1/2-z,y
140 1/2+x,1/2-z,-y
141 1/2-x,1/2+z,-y
142 1/2-z,1/2-y,x
143 1/2-z,1/2+y,-x
144 1/2+z,1/2-y,-x
145 x,y,-z
146 x,-y,z
147 -x,y,z
148 -z,x,y
149 z,x,-y
150 z,-x,y
151 y,-z,x
152 -y,z,x
153 y,z,-x
154 y,x,z
155 x,z,y
156 z,y,x
157 x,1/2+y,1/2-z
158 x,1/2-y,1/2+z
159 -x,1/2+y,1/2+z
160 -z,1/2+x,1/2+y
161 z,1/2+x,1/2-y
162 z,1/2-x,1/2+y
163 y,1/2-z,1/2+x
164 -y,1/2+z,1/2+x
165 y,1/2+z,1/2-x
166 y,1/2+x,1/2+z
167 x,1/2+z,1/2+y
168 z,1/2+y,1/2+x
169 1/2+x,y,1/2-z
170 1/2+x,-y,1/2+z
171 1/2-x,y,1/2+z
172 1/2-z,x,1/2+y
173 1/2+z,x,1/2-y
174 1/2+z,-x,1/2+y
175 1/2+y,-z,1/2+x
176 1/2-y,z,1/2+x
177 1/2+y,z,1/2-x
178 1/2+y,x,1/2+z
179 1/2+x,z,1/2+y
180 1/2+z,y,1/2+x
181 1/2+x,1/2+y,-z
182 1/2+x,1/2-y,z
183 1/2-x,1/2+y,z
184 1/2-z,1/2+x,y
185 1/2+z,1/2+x,-y
186 1/2+z,1/2-x,y
187 1/2+y,1/2-z,x
188 1/2-y,1/2+z,x
189 1/2+y,1/2+z,-x
190 1/2+y,1/2+x,z
191 1/2+x,1/2+z,y
192 1/2+z,1/2+y,x
_cell_length_a                   45.4725(2)
_cell_length_b                   45.4725(2)
_cell_length_c                   45.4725(2)
_cell_angle_alpha                90
_cell_angle_beta                 90
_cell_angle_gamma                90
_cell_volume                     94025.7
_exptl_crystal_colour            colorless
_exptl_crystal_description       prism
_cell_formula_units_Z            96
loop_
_atom_site_label
_atom_site_type_symbol
_atom_site_fract_x
_atom_site_fract_y
_atom_site_fract_z
_atom_site_U_iso_or_equiv
_atom_site_thermal_displace_type
O2 O 0.2500 0.2500 0.2500 0.1440 Uani
O3 O 0.3335 0.3335 0.1665 0.1460 Uani
O4 O 0.3246 0.3839 0.0000 0.2230 Uiso
O5 O 0.3565 0.3565 0.0000 0.2513 Uani
O6 O 0.2500 0.2500 0.0737 2.0000 Uiso
O7 O 0.0000 0.5000 0.0000 0.4070 Uani
O8 O 0.5000 0.3279 0.0000 0.3350 Uiso
O9 O 0.4294 0.4294 0.0706 0.4860 Uani
O10 O 0.2500 0.2500 0.0000 0.5907 Uani
O11 O 0.1923 0.3077 0.0000 0.9820 Uiso
O12 O 0.2973 0.3495 0.1505 0.2380 Uani
O13 O 0.2855 0.2855 0.2145 0.8740 Uani
O14 O 0.3387 0.1613 0.1613 0.2570 Uiso
C1 C 0.29709(14) 0.20291(14) 0.0689(2) 0.0573 Uani
H1 H 0.3010 0.1990 0.0488 0.0690 Uiso
C2 C 0.29884(13) 0.22289(13) 0.11082(15) 0.0583 Uani
N1 N 0.30464(19) 0.2392(2) 0.13480(19) 0.1000 Uani
C3 C 0.2875(2) 0.2328(3) 0.1581(2) 0.1467 Uani
H2 H 0.2903 0.2437 0.1756 0.1760 Uiso
C4 C 0.3379(2) 0.24836(16) 0.0000 0.0490 Uani
H3 H 0.3272 0.2663 0.0000 0.0590 Uiso
C5 C 0.36060(16) 0.21046(15) 0.01508(14) 0.0717 Uani
C6 C 0.3734(2) 0.1890(2) 0.0310(2) 0.1310 Uani
H4 H 0.3740 0.1889 0.0518 0.1570 Uiso
N2 N 0.3852(3) 0.1675(2) 0.0140(2) 0.2203 Uani
C7 C 0.38726(16) 0.24542(17) 0.11274(16) 0.0533 Uani
H5 H 0.3729 0.2406 0.1271 0.0640 Uiso
C8 C 0.40717(14) 0.25644(15) 0.07150(16) 0.0560 Uani
C9 C 0.41297(16) 0.2642(2) 0.04301(14) 0.0867 Uani
H6 H 0.3983 0.2648 0.0282 0.1040 Uiso
N3 N 0.44204(16) 0.2710(2) 0.03779(14) 0.1013 Uani
C10 C 0.29619(13) 0.29619(13) 0.06395(17) 0.0460 Uani
H7 H 0.2815 0.2815 0.0616 0.0550 Uiso
C11 C 0.33804(14) 0.31665(14) 0.06946(14) 0.0647 Uani
N4 N 0.36726(16) 0.32319(17) 0.07291(15) 0.0940 Uani
C12 C 0.37260(15) 0.35224(19) 0.07543(18) 0.1070 Uani
H8 H 0.3925 0.3584 0.0773 0.1280 Uiso
N5 N 0.31178(10) 0.22342(10) 0.08376(11) 0.0537 Uani
N6 N 0.34590(10) 0.23484(12) 0.02488(10) 0.0567 Uani
N7 N 0.38061(13) 0.24908(9) 0.08429(13) 0.0560 Uani
N8 N 0.32475(11) 0.28941(11) 0.06569(10) 0.0553 Uani
Zn1 Zn 0.341660(18) 0.249527(15) 0.06560(2) 0.0538 Uani
C2EE C 0.27711(13) 0.20116(13) 0.11082(15) 0.0583 Uani
N1EE N 0.2608(2) 0.19536(19) 0.13480(19) 0.1000 Uani
C3EE C 0.2672(3) 0.2125(2) 0.1581(2) 0.1467 Uani
H2EE H 0.2563 0.2097 0.1756 0.1760 Uiso
C5NE C 0.36060(16) 0.21046(15) -0.01508(14) 0.0717 Uani
C6NE C 0.3734(2) 0.1890(2) -0.0310(2) 0.1310 Uani
H4NE H 0.3740 0.1889 -0.0518 0.1570 Uiso
N2NE N 0.3852(3) 0.1675(2) -0.0140(2) 0.2203 Uani
C8ZD C 0.42850(16) 0.25644(15) 0.09283(14) 0.0560 Uani
C9ZD C 0.45699(14) 0.2642(2) 0.08703(16) 0.0867 Uani
H6ZD H 0.4718 0.2648 0.1017 0.1040 Uiso
N3ZD N 0.46221(14) 0.2710(2) 0.05796(16) 0.1013 Uani
C11WE C 0.31665(14) 0.33804(14) 0.06946(14) 0.0647 Uani
N4WE N 0.32319(17) 0.36726(16) 0.07291(15) 0.0940 Uani
C12WE C 0.35224(19) 0.37260(15) 0.07543(18) 0.1070 Uani
H8WE H 0.3584 0.3925 0.0773 0.1280 Uiso
N5EE N 0.27658(10) 0.18822(10) 0.08376(11) 0.0537 Uani
N5NE N 0.31178(10) 0.22342(10) -0.08376(11) 0.0537 Uani
N5ZD N 0.41624(11) 0.22342(10) 0.18822(10) 0.0537 Uani
N5WE N 0.22342(10) 0.31178(10) 0.08376(11) 0.0537 Uani
N6NE N 0.34590(10) 0.23484(12) -0.02488(10) 0.0567 Uani
N6EE N 0.26516(12) 0.15410(10) 0.02488(10) 0.0567 Uani
N6ZD N 0.47512(10) 0.23484(12) 0.15410(10) 0.0567 Uani
N6WE N 0.23484(12) 0.34590(10) 0.02488(10) 0.0567 Uani
N7ZD N 0.41571(13) 0.24908(9) 0.11939(13) 0.0560 Uani
N7EE N 0.25092(9) 0.11939(13) 0.08429(13) 0.0560 Uani
N7NE N 0.38061(13) 0.24908(9) -0.08429(13) 0.0560 Uani
N7WE N 0.24908(9) 0.38061(13) 0.08429(13) 0.0560 Uani
N8WE N 0.28941(11) 0.32475(11) 0.06569(10) 0.0553 Uani
N8EE N 0.21059(11) 0.17525(11) 0.06569(10) 0.0553 Uani
N8NE N 0.32475(11) 0.28941(11) -0.06569(10) 0.0553 Uani
N8ZD N 0.43431(10) 0.28941(11) 0.17525(11) 0.0553 Uani
Zn1EE Zn 0.250473(15) 0.158340(18) 0.06560(2) 0.0538 Uani
Zn1NE Zn 0.341660(18) 0.249527(15) -0.06560(2) 0.0538 Uani
Zn1ZD Zn 0.43440(2) 0.249527(15) 0.158340(18) 0.0538 Uani
Zn1WE Zn 0.249527(15) 0.341660(18) 0.06560(2) 0.0538 Uani
O1 O 0.3197 0.3197 0.0000 0.0800 Uani
C13? C 0.30464(19) 0.2392(2) 0.13480(19) 0.1000 Uani
H9? H 0.3195 0.2538 0.1353 0.1200 Uiso
N9? N 0.2875(2) 0.2328(3) 0.1581(2) 0.1467 Uani
N10? N 0.3734(2) 0.1890(2) 0.0310(2) 0.1310 Uani
C14? C 0.3852(3) 0.1675(2) 0.0140(2) 0.2203 Uani
H10? H 0.3942 0.1513 0.0237 0.2640 Uiso
N11? N 0.41297(16) 0.2642(2) 0.04301(14) 0.0867 Uani
C15? C 0.44204(16) 0.2710(2) 0.03779(14) 0.1013 Uani
H11? H 0.4476 0.2760 0.0183 0.1220 Uiso
C16? C 0.36726(16) 0.32319(17) 0.07291(15) 0.0940 Uani
H12? H 0.3823 0.3087 0.0735 0.1120 Uiso
N12? N 0.37260(15) 0.35224(19) 0.07543(18) 0.1070 Uani
O15? O 0.2500 0.2500 0.0244 0.2480 Uani
O16? O 0.3758 0.3758 0.0000 0.3673 Uani
O17? O 0.2860 0.3762 0.0000 0.9057 Uani
O18? O 0.5000 0.3464 0.0000 1.0113 Uani
O19? O 0.3340 0.3471 0.0000 0.3120 Uiso
loop_
_atom_site_aniso_label
_atom_site_aniso_U_11
_atom_site_aniso_U_22
_atom_site_aniso_U_33
_atom_site_aniso_U_23
_atom_site_aniso_U_13
_atom_site_aniso_U_12
O2 0.144 0.144 0.144 0.000 0.000 0.000
O3 0.146 0.146 0.146 -0.020 -0.020 0.020
O5 0.291 0.291 0.172 0.000 0.000 -0.265
O7 0.407 0.407 0.407 0.000 0.000 0.000
O9 0.486 0.486 0.486 0.071 0.071 -0.071
O10 0.847 0.847 0.078 0.000 0.000 -0.781
O12 0.300 0.207 0.207 0.025 0.017 -0.017
O13 0.874 0.874 0.874 -0.389 -0.389 0.389
C1 0.057(4) 0.057(4) 0.058(6) 0.005(3) -0.005(3) -0.007(5)
C2 0.059(4) 0.055(4) 0.061(5) -0.006(3) -0.003(3) -0.004(3)
N1 0.108(7) 0.108(6) 0.084(7) -0.024(5) 0.004(5) -0.022(5)
C3 0.179(10) 0.159(9) 0.102(8) -0.063(6) 0.024(7) -0.036(7)
C4 0.044(4) 0.054(6) 0.049(7) 0.000 0.000 -0.005(3)
C5 0.080(5) 0.056(4) 0.079(5) 0.002(3) -0.009(4) 0.015(4)
C6 0.198(11) 0.091(7) 0.104(8) 0.007(5) -0.023(7) 0.057(7)
N2 0.364(17) 0.145(10) 0.152(11) 0.013(7) -0.027(9) 0.146(10)
C7 0.052(4) 0.056(6) 0.052(4) 0.009(3) -0.006(5) -0.009(3)
C8 0.043(4) 0.072(4) 0.053(5) 0.000(4) -0.002(3) -0.010(3)
C9 0.081(6) 0.131(6) 0.048(5) 0.020(4) -0.006(3) -0.033(5)
N3 0.077(5) 0.172(8) 0.055(4) 0.023(4) 0.003(3) -0.019(5)
C10 0.043(3) 0.043(3) 0.052(5) -0.003(3) -0.003(3) -0.013(4)
C11 0.060(4) 0.068(4) 0.066(4) -0.002(3) -0.011(3) -0.018(3)
N4 0.072(5) 0.099(7) 0.111(6) 0.004(4) -0.018(4) -0.031(4)
C12 0.074(5) 0.129(8) 0.118(6) -0.007(4) -0.022(4) -0.047(5)
N5 0.053(3) 0.054(3) 0.054(4) 0.002(3) -0.005(3) -0.014(2)
N6 0.051(3) 0.062(4) 0.057(3) 0.006(3) -0.011(2) -0.007(3)
N7 0.051(4) 0.070(4) 0.047(4) 0.008(2) -0.010(3) -0.013(2)
N8 0.057(4) 0.051(3) 0.058(3) 0.000(2) -0.011(2) -0.021(3)
Zn1 0.0484(9) 0.0600(9) 0.0531(9) 0.0068(3) -0.0113(4) -0.0142(3)
C2EE 0.055 0.059 0.061 0.003 0.006 -0.004
N1EE 0.108 0.108 0.084 -0.004 0.024 -0.022
C3EE 0.159 0.179 0.102 -0.024 0.063 -0.036
C5NE 0.08 0.056 0.079 -0.002 0.009 0.015
C6NE 0.198 0.091 0.104 -0.007 0.023 0.057
N2NE 0.364 0.145 0.152 -0.013 0.027 0.146
C8ZD 0.053 0.072 0.043 0.01 -0.002 0
C9ZD 0.048 0.131 0.081 0.033 -0.006 -0.02
N3ZD 0.055 0.172 0.077 0.019 0.003 -0.023
C11WE 0.068 0.06 0.066 -0.011 -0.002 -0.018
N4WE 0.099 0.072 0.111 -0.018 0.004 -0.031
C12WE 0.129 0.074 0.118 -0.022 -0.007 -0.047
N5EE 0.054 0.053 0.054 0.005 -0.002 -0.014
N5NE 0.053 0.054 0.054 -0.002 0.005 -0.014
N5ZD 0.054 0.054 0.053 0.014 -0.005 -0.002
N5WE 0.054 0.053 0.054 -0.005 0.002 -0.014
N6NE 0.051 0.062 0.057 -0.006 0.011 -0.007
N6EE 0.062 0.051 0.057 0.011 -0.006 -0.007
N6ZD 0.057 0.062 0.051 0.007 -0.011 -0.006
N6WE 0.062 0.051 0.057 -0.011 0.006 -0.007
N7ZD 0.047 0.07 0.051 0.013 -0.01 -0.008
N7EE 0.07 0.051 0.047 0.01 -0.008 -0.013
N7NE 0.051 0.07 0.047 -0.008 0.01 -0.013
N7WE 0.07 0.051 0.047 -0.01 0.008 -0.013
N8WE 0.051 0.057 0.058 -0.011 0 -0.021
N8EE 0.051 0.057 0.058 0.011 0 -0.021
N8NE 0.057 0.051 0.058 0 0.011 -0.021
N8ZD 0.058 0.051 0.057 0.021 -0.011 0
Zn1EE 0.06 0.0484 0.0531 0.0113 -0.0068 -0.0142
Zn1NE 0.0484 0.06 0.0531 -0.0068 0.0113 -0.0142
Zn1ZD 0.0531 0.06 0.0484 0.0142 -0.0113 -0.0068
Zn1WE 0.06 0.0484 0.0531 -0.0113 0.0068 -0.0142
O1 0.079 0.079 0.082 0.000 0.000 -0.007
C13? 0.108(7) 0.108(6) 0.084(7) -0.024(5) 0.004(5) -0.022(5)
N9? 0.179(10) 0.159(9) 0.102(8) -0.063(6) 0.024(7) -0.036(7)
N10? 0.198(11) 0.091(7) 0.104(8) 0.007(5) -0.023(7) 0.057(7)
C14? 0.364(17) 0.145(10) 0.152(11) 0.013(7) -0.027(9) 0.146(10)
N11? 0.081(6) 0.131(6) 0.048(5) 0.020(4) -0.006(3) -0.033(5)
C15? 0.077(5) 0.172(8) 0.055(4) 0.023(4) 0.003(3) -0.019(5)
C16? 0.072(5) 0.099(7) 0.111(6) 0.004(4) -0.018(4) -0.031(4)
N12? 0.074(5) 0.129(8) 0.118(6) -0.007(4) -0.022(4) -0.047(5)
O15? 0.296 0.296 0.152 0.000 0.000 -0.218
O16? 0.464 0.464 0.174 0.000 0.000 -0.317
O17? 0.344 0.373 2.000 0.000 0.000 0.067
O18? 1.483 0.068 1.483 0.000 0.000 0.000
loop_
_geom_bond_atom_site_label_1
_geom_bond_atom_site_label_2
_geom_bond_site_symmetry_1
_geom_bond_site_symmetry_2
C1 H1 1_555 1_555
C2 N1 1_555 1_555
N1 C3 1_555 1_555
C3 H2 1_555 1_555
C4 H3 1_555 1_555
C5 C6 1_555 1_555
C6 H4 1_555 1_555
N2 C6 1_555 1_555
C7 H5 1_555 1_555
C8 C9 1_555 1_555
C9 H6 1_555 1_555
N3 C9 1_555 1_555
C10 H7 1_555 1_555
C11 N4 1_555 1_555
N4 C12 1_555 1_555
C12 H8 1_555 1_555
N5 C1 1_555 1_555
N6 C4 1_555 1_555
N7 C7 1_555 1_555
N8 C10 1_555 1_555
Zn1 N5 1_555 1_555
C2EE C2 1_555 1_555
N1EE C2EE 1_555 1_555
C3EE C3 1_555 1_555
H2EE C3EE 1_555 1_555
C5NE C5 1_555 1_555
C6NE C5NE 1_555 1_555
H4NE C6NE 1_555 1_555
N2NE N2 1_555 1_555
C8ZD C8 1_555 1_555
C9ZD C8ZD 1_555 1_555
H6ZD C9ZD 1_555 1_555
N3ZD N3 1_555 1_555
C11WE C11 1_555 1_555
N4WE C11WE 1_555 1_555
C12WE C12 1_555 1_555
H8WE C12WE 1_555 1_555
N5EE C1 1_555 1_555
N5NE Zn1NE 1_555 1_555
N5ZD Zn1ZD 1_555 1_555
N5WE Zn1WE 1_555 1_555
N6NE C4 1_555 1_555
N6EE Zn1EE 1_555 1_555
N6ZD Zn1ZD 1_555 1_555
N6WE Zn1WE 1_555 1_555
N7ZD C7 1_555 1_555
N7EE Zn1EE 1_555 1_555
N7NE Zn1NE 1_555 1_555
N7WE Zn1WE 1_555 1_555
N8WE C10 1_555 1_555
N8EE Zn1EE 1_555 1_555
N8NE Zn1NE 1_555 1_555
N8ZD Zn1ZD 1_555 1_555
Zn1EE N5EE 1_555 1_555
Zn1NE N6NE 1_555 1_555
Zn1ZD N7ZD 1_555 1_555
Zn1WE N8WE 1_555 1_555
C2 N5 1_555 1_555
C5 N6 1_555 1_555
C8 N7 1_555 1_555
C11 N8 1_555 1_555
N6 Zn1 1_555 1_555
N7 Zn1 1_555 1_555
N8 Zn1 1_555 1_555
C2EE N5EE 1_555 1_555
N1EE C3EE 1_555 1_555
C5NE N6NE 1_555 1_555
C6NE N2NE 1_555 1_555
C8ZD N7ZD 1_555 1_555
C9ZD N3ZD 1_555 1_555
C11WE N8WE 1_555 1_555
N4WE C12WE 1_555 1_555

#END
