
#######################################################################
#
#                 Cambridge Crystallographic Data Centre
#                                CCDC 
#
#######################################################################
#
# If this CIF has been generated from an entry in the Cambridge 
# Structural Database, then it will include bibliographic, chemical, 
# crystal, experimental, refinement or atomic coordinate data resulting 
# from the CCDC's data processing and validation procedures.
#
#######################################################################

data_MIHHOB
_chemical_name_common            ZIF-23
_chemical_formula_moiety         '(C12 H8 N6 Zn1)n'
_chemical_name_systematic        
catena-(bis(\m~2~-4-Azabenzimidazolate-N,N')-zinc)
_symmetry_cell_setting           orthorhombic
_symmetry_space_group_name_H-M   'P 21 21 21'
_symmetry_Int_Tables_number      19
_space_group_name_Hall           'P 2ac 2ab'
loop_
_symmetry_equiv_pos_site_id
_symmetry_equiv_pos_as_xyz
1 x,y,z
2 1/2-x,-y,1/2+z
3 -x,1/2+y,1/2-z
4 1/2+x,1/2-y,-z
_cell_length_a                   9.5477(4)
_cell_length_b                   10.1461(4)
_cell_length_c                   12.4459(6)
_cell_angle_alpha                90
_cell_angle_beta                 90
_cell_angle_gamma                90
_cell_volume                     1205.66
_exptl_crystal_colour            colorless
_exptl_crystal_description       cube
_cell_formula_units_Z            4
loop_
_atom_site_label
_atom_site_type_symbol
_atom_site_fract_x
_atom_site_fract_y
_atom_site_fract_z
_atom_site_U_iso_or_equiv
_atom_site_thermal_displace_type
C1 C 0.1960(5) 0.2496(5) 0.4975(4) 0.0243 Uani
H1 H 0.2369 0.2092 0.5588 0.0290 Uiso
C2 C 0.0513(5) 0.3547(4) 0.3990(3) 0.0230 Uani
C3 C -0.0474(7) 0.4604(5) 0.2605(5) 0.0533 Uani
H2 H -0.1208 0.5121 0.2308 0.0640 Uiso
C4 C 0.0636(8) 0.4263(6) 0.1933(4) 0.0540 Uani
H3 H 0.0634 0.4554 0.1208 0.0650 Uiso
C5 C 0.1740(5) 0.3511(5) 0.2303(3) 0.0310 Uani
H4 H 0.2491 0.3245 0.1852 0.0370 Uiso
C6 C 0.1676(4) 0.3176(4) 0.3359(3) 0.0227 Uani
C7 C 0.4930(5) -0.0802(4) 0.2483(4) 0.0213 Uani
H5 H 0.5561 -0.0380 0.2003 0.0260 Uiso
C8 C 0.3468(4) -0.1108(4) 0.3783(3) 0.0207 Uani
C9 C 0.2546(5) -0.1034(4) 0.4622(4) 0.0273 Uani
H6 H 0.2368 -0.0238 0.5000 0.0330 Uiso
C10 C 0.1891(6) -0.2218(5) 0.4877(5) 0.0417 Uani
H7 H 0.1237 -0.2244 0.5452 0.0500 Uiso
C11 C 0.2177(5) -0.3367(6) 0.4305(4) 0.0470 Uani
H8 H 0.1692 -0.4145 0.4509 0.0570 Uiso
C12 C 0.3674(5) -0.2297(4) 0.3238(3) 0.0223 Uani
N1 N 0.0718(4) 0.3092(3) 0.5020(3) 0.0231 Uani
N2 N 0.2598(4) 0.2498(3) 0.4022(3) 0.0231 Uani
N3 N 0.4278(4) -0.0152(3) 0.3273(2) 0.0210 Uani
N4 N 0.4632(4) -0.2097(3) 0.2416(3) 0.0223 Uani
N5 N -0.0583(4) 0.4254(4) 0.3643(3) 0.0413 Uani
N6 N 0.3088(4) -0.3454(4) 0.3487(3) 0.0410 Uani
Zn1 Zn 0.44905(5) 0.17323(5) 0.36826(4) 0.0193 Uani
N1C N 0.5718(4) 0.1908(3) 0.4980(3) 0.0231 Uani
N4B N 0.5368(4) 0.2903(3) 0.2584(3) 0.0223 Uani
Zn1C Zn -0.05095(5) 0.32677(5) 0.63174(4) 0.0193 Uani
Zn1B Zn 0.55095(5) -0.32677(5) 0.13174(4) 0.0193 Uani
loop_
_atom_site_aniso_label
_atom_site_aniso_U_11
_atom_site_aniso_U_22
_atom_site_aniso_U_33
_atom_site_aniso_U_23
_atom_site_aniso_U_13
_atom_site_aniso_U_12
C1 0.028(3) 0.020(2) 0.025(3) 0.0024(17) -0.001(2) 0.001(2)
C2 0.026(3) 0.019(2) 0.024(3) 0.0012(19) -0.009(2) -0.001(2)
C3 0.057(4) 0.039(3) 0.064(4) 0.002(3) -0.033(4) 0.008(3)
C4 0.068(4) 0.072(4) 0.022(3) 0.013(3) -0.014(4) -0.020(4)
C5 0.033 0.044 0.016 -0.001 0.007 -0.008
C6 0.022 0.017 0.029 -0.004 0.001 -0.001
C7 0.019 0.022 0.023 0.0013 0.0025 -0.0002
C8 0.023 0.016 0.023 -0.002 -0.004 -0.003
C9 0.031 0.027 0.024 -0.007 0.004 0.004
C10 0.034 0.056 0.035 0.004 0.015 -0.008
C11 0.056 0.031 0.054 0.004 0.006 -0.027
C12 0.025 0.018 0.024 0.001 -0.006 -0.003
N1 0.018(2) 0.0182(19) 0.033(2) -0.0049(16) -0.0012(17) 0.002(2)
N2 0.0203 0.023 0.026 -0.0005 0.001 0.0002
N3 0.025 0.0141 0.024 -0.0037 0.0029 -0.003
N4 0.024 0.013 0.03 -0.0015 0.0056 -0.0025
N5 0.038(2) 0.040(2) 0.046(3) -0.005(2) -0.017(3) 0.006(2)
N6 0.061 0.027 0.035 0.002 0.008 -0.012
Zn1 0.0212 0.0138 0.0229 -0.001 0.0027 -0.0005
N1C 0.018 0.0182 0.033 -0.0049 0.0012 -0.002
N4B 0.024 0.013 0.03 0.0015 0.0056 0.0025
Zn1C 0.0212(3) 0.0138(3) 0.0229(3) -0.0010(2) -0.0027(2) 0.0005(3)
Zn1B 0.0212 0.0138 0.0229 0.001 0.0027 0.0005
loop_
_geom_bond_atom_site_label_1
_geom_bond_atom_site_label_2
_geom_bond_site_symmetry_1
_geom_bond_site_symmetry_2
C1 H1 1_555 1_555
C2 C6 1_555 1_555
C3 H2 1_555 1_555
C4 C3 1_555 1_555
H3 C4 1_555 1_555
C5 C4 1_555 1_555
H4 C5 1_555 1_555
C6 C5 1_555 1_555
C7 H5 1_555 1_555
C8 C9 1_555 1_555
C9 H6 1_555 1_555
C10 C9 1_555 1_555
H7 C10 1_555 1_555
C11 C10 1_555 1_555
H8 C11 1_555 1_555
C12 C8 1_555 1_555
N1 C1 1_555 1_555
N2 C1 1_555 1_555
N3 C7 1_555 1_555
N4 C7 1_555 1_555
N5 C2 1_555 1_555
N6 C11 1_555 1_555
Zn1 N2 1_555 1_555
N1C Zn1 1_555 1_555
N4B Zn1 1_555 1_555
Zn1C N1 1_555 1_555
Zn1B N4 1_555 1_555
C2 N1 1_555 1_555
C3 N5 1_555 1_555
C6 N2 1_555 1_555
C8 N3 1_555 1_555
C12 N4 1_555 1_555
C12 N6 1_555 1_555
N3 Zn1 1_555 1_555

#END
