
#######################################################################
#
#                 Cambridge Crystallographic Data Centre
#                                CCDC 
#
#######################################################################
#
# If this CIF has been generated from an entry in the Cambridge 
# Structural Database, then it will include bibliographic, chemical, 
# crystal, experimental, refinement or atomic coordinate data resulting 
# from the CCDC's data processing and validation procedures.
#
#######################################################################

data_ULIKUX
_chemical_formula_moiety         '(C52 H36 N24 O2 Zn2)n,6(H2 O1)'
_chemical_name_systematic        
"catena-[bis(\m-1,1'-(1,4-phenylene)di(1H-imidazole))-bis(\m-5,5'-(oxydi(4,1-phenylene))bis(tetrazolyl))-di-zinc hexahydrate]"
_symmetry_cell_setting           triclinic
_symmetry_space_group_name_H-M   'P -1'
_symmetry_Int_Tables_number      2
_space_group_name_Hall           '-P 1'
loop_
_symmetry_equiv_pos_site_id
_symmetry_equiv_pos_as_xyz
1 x,y,z
2 -x,-y,-z
_cell_length_a                   11.2652(15)
_cell_length_b                   12.2246(15)
_cell_length_c                   12.2787(18)
_cell_angle_alpha                94.758(11)
_cell_angle_beta                 115.462(14)
_cell_angle_gamma                111.252(12)
_cell_volume                     1364.38
_exptl_crystal_colour            colorless
_exptl_crystal_description       block
_cell_formula_units_Z            1
loop_
_atom_site_label
_atom_site_type_symbol
_atom_site_fract_x
_atom_site_fract_y
_atom_site_fract_z
C1 C 0.3497(4) 0.3091(4) 0.3802(4)
C2 C 0.3047(4) 0.4037(4) 0.4078(4)
C3 C 0.3290(5) 0.4492(4) 0.5257(4)
H1 H 0.3708 0.4174 0.5902
C4 C 0.2923(5) 0.5415(4) 0.5503(4)
H2 H 0.3111 0.5723 0.6309
C5 C 0.2273(5) 0.5875(4) 0.4537(4)
C6 C 0.2031(5) 0.5440(4) 0.3355(4)
H3 H 0.1597 0.5749 0.2706
C7 C 0.2437(5) 0.4544(4) 0.3140(4)
H4 H 0.2299 0.4271 0.2346
C8 C 0.0814(5) 0.6924(4) 0.3891(4)
C9 C -0.0605(6) 0.6012(5) 0.3392(5)
H5 H -0.0774 0.5307 0.3655
C10 C -0.1763(5) 0.6159(5) 0.2503(5)
H6 H -0.2715 0.5550 0.2172
C11 C -0.1522(5) 0.7217(4) 0.2091(4)
C12 C -0.0096(6) 0.8102(4) 0.2595(5)
H7 H 0.0079 0.8807 0.2331
C13 C 0.1085(5) 0.7966(4) 0.3488(5)
H8 H 0.2040 0.8565 0.3807
C14 C -0.2745(5) 0.7361(4) 0.1127(5)
C15 C 0.7375(6) 0.1968(5) 0.2133(5)
H9 H 0.7328 0.2530 0.1670
C16 C 0.8569(6) 0.1797(5) 0.2793(6)
H10 H 0.9485 0.2212 0.2865
C17 C 0.6798(5) 0.0571(4) 0.3002(4)
H11 H 0.6269 -0.0020 0.3260
C18 C 1.0609(5) 0.1102(5) 0.4808(5)
H12 H 1.1023 0.1850 0.4672
C19 C 0.9117(5) 0.0432(4) 0.4176(4)
C20 C 0.8493(5) -0.0689(4) 0.4358(5)
H13 H 0.7481 -0.1156 0.3924
C21 C 0.1181(5) -0.0685(4) 0.0039(5)
H14 H 0.0931 -0.0063 -0.0200
C22 C 0.0222(5) -0.1875(4) -0.0301(5)
H15 H -0.0792 -0.2218 -0.0801
C23 C 0.2469(5) -0.1641(4) 0.0912(4)
H16 H 0.3254 -0.1804 0.1385
C24 C 0.1343(5) -0.4356(4) 0.0040(4)
H17 H 0.2229 -0.3926 0.0064
C25 C 0.0528(5) -0.3768(4) 0.0131(4)
C26 C -0.0800(5) -0.4398(4) 0.0086(4)
H18 H -0.1329 -0.3983 0.0141
O1 O 0.1978(4) 0.6821(3) 0.4852(3)
Zn1 Zn 0.42723(5) 0.11258(4) 0.16041(5)
N1 N 0.3459(4) 0.2772(3) 0.2738(3)
N2 N 0.3973(4) 0.1918(3) 0.2885(4)
N3 N 0.4283(5) 0.1747(4) 0.4015(4)
N4 N 0.3977(5) 0.2471(4) 0.4603(4)
N5 N -0.4147(6) 0.6713(6) 0.0755(7)
N6 N -0.4900(5) 0.7107(5) -0.0146(6)
N7 N -0.3952(4) 0.7962(3) -0.0312(4)
N8 N -0.2597(4) 0.8132(4) 0.0463(4)
N9 N 0.2585(4) -0.0536(3) 0.0794(4)
N10 N 0.1064(4) -0.2484(3) 0.0253(3)
N11 N 0.6239(4) 0.1180(3) 0.2251(4)
N12 N 0.8184(4) 0.0895(3) 0.3342(4)
C15A C 1.2625(6) -0.1968(5) 0.7867(5)
H9A H 1.2672 -0.2530 0.8330
C16A C 1.1431(6) -0.1797(5) 0.7207(6)
H10A H 1.0515 -0.2212 0.7135
C17A C 1.3202(5) -0.0571(4) 0.6998(4)
H11A H 1.3731 0.0020 0.6740
C18A C 0.9391(5) -0.1102(5) 0.5192(5)
H12A H 0.8977 -0.1850 0.5328
C19A C 1.0883(5) -0.0432(4) 0.5824(4)
C20A C 1.1507(5) 0.0689(4) 0.5642(5)
H13A H 1.2519 0.1156 0.6076
N11A N 1.3761(4) -0.1180(3) 0.7749(4)
N12A N 1.1816(4) -0.0895(3) 0.6658(4)
C21A C -0.1181(5) -0.9315(4) -0.0039(5)
H14A H -0.0931 -0.9937 0.0200
C22A C -0.0222(5) -0.8125(4) 0.0301(5)
H15A H 0.0792 -0.7782 0.0801
C23A C -0.2469(5) -0.8359(4) -0.0912(4)
H16A H -0.3254 -0.8196 -0.1385
C24A C -0.1343(5) -0.5644(4) -0.0040(4)
H17A H -0.2229 -0.6074 -0.0064
C25A C -0.0528(5) -0.6232(4) -0.0131(4)
C26A C 0.0800(5) -0.5602(4) -0.0086(4)
H18A H 0.1329 -0.6017 -0.0141
N9A N -0.2585(4) -0.9464(3) -0.0794(4)
N10A N -0.1064(4) -0.7516(3) -0.0253(3)
C1A C -0.3497(4) -1.3091(4) -0.3802(4)
C2A C -0.3047(4) -1.4037(4) -0.4078(4)
C3A C -0.3290(5) -1.4492(4) -0.5257(4)
H1A H -0.3708 -1.4174 -0.5902
C4A C -0.2923(5) -1.5415(4) -0.5503(4)
H2A H -0.3111 -1.5723 -0.6309
C5A C -0.2273(5) -1.5875(4) -0.4537(4)
C6A C -0.2031(5) -1.5440(4) -0.3355(4)
H3A H -0.1597 -1.5749 -0.2706
C7A C -0.2437(5) -1.4544(4) -0.3140(4)
H4A H -0.2299 -1.4271 -0.2346
C8A C -0.0814(5) -1.6924(4) -0.3891(4)
C9A C 0.0605(6) -1.6012(5) -0.3392(5)
H5A H 0.0774 -1.5307 -0.3655
C10A C 0.1763(5) -1.6159(5) -0.2503(5)
H6A H 0.2715 -1.5550 -0.2172
C11A C 0.1522(5) -1.7217(4) -0.2091(4)
C12A C 0.0096(6) -1.8102(4) -0.2595(5)
H7A H -0.0079 -1.8807 -0.2331
C13A C -0.1085(5) -1.7966(4) -0.3488(5)
H8A H -0.2040 -1.8565 -0.3807
C14A C 0.2745(5) -1.7361(4) -0.1127(5)
O1A O -0.1978(4) -1.6821(3) -0.4852(3)
Zn1A Zn -0.42723(5) -1.11258(4) -0.16041(5)
N1A N -0.3459(4) -1.2772(3) -0.2738(3)
N2A N -0.3973(4) -1.1918(3) -0.2885(4)
N3A N -0.4283(5) -1.1747(4) -0.4015(4)
N4A N -0.3977(5) -1.2471(4) -0.4603(4)
N5A N 0.4147(6) -1.6713(6) -0.0755(7)
N6A N 0.4900(5) -1.7107(5) 0.0146(6)
N7A N 0.3952(4) -1.7962(3) 0.0312(4)
N8A N 0.2597(4) -1.8132(4) -0.0463(4)
Zn1_2 Zn 0.42723(5) -1.88742(4) 0.16041(5)
Zn1A_2 Zn -0.42723(5) 0.88742(4) -0.16041(5)
Zn1A_3 Zn 1.57277(5) -0.11258(4) 0.83959(5)
N7_2 N -0.3952(4) -1.2038(3) -0.0312(4)
N7A_2 N 0.3952(4) 0.2038(3) 0.0312(4)
N11A_2 N -0.6239(4) -1.1180(3) -0.2251(4)
O2 O 0.5244(4) 0.2525(3) 0.7304(3)
H19 H 0.5676 0.3125 0.7984
H20 H 0.5256 0.2975 0.6656
O3 O 0.4211(7) 0.4992(5) 0.1555(6)
H21 H 0.4407 0.4689 0.1042
H22 H 0.3922 0.4444 0.1887
O4 O 0.4793(13) 0.9635(8) 0.4280(9)
H23 H 0.4414 0.9195 0.3545
H24 H 0.5016 1.0384 0.4314
loop_
_geom_bond_atom_site_label_1
_geom_bond_atom_site_label_2
_geom_bond_site_symmetry_1
_geom_bond_site_symmetry_2
C1 C2 1_555 1_555
C2 C3 1_555 1_555
C3 H1 1_555 1_555
C4 C3 1_555 1_555
H2 C4 1_555 1_555
C5 C4 1_555 1_555
C6 C5 1_555 1_555
H3 C6 1_555 1_555
C7 C2 1_555 1_555
H4 C7 1_555 1_555
C8 C9 1_555 1_555
C9 H5 1_555 1_555
C10 C9 1_555 1_555
H6 C10 1_555 1_555
C11 C10 1_555 1_555
C12 C11 1_555 1_555
H7 C12 1_555 1_555
C13 C8 1_555 1_555
H8 C13 1_555 1_555
C14 C11 1_555 1_555
C15 H9 1_555 1_555
C16 C15 1_555 1_555
H10 C16 1_555 1_555
C17 H11 1_555 1_555
C18 H12 1_555 1_555
C19 C18 1_555 1_555
C20 C19 1_555 1_555
H13 C20 1_555 1_555
C21 H14 1_555 1_555
C22 C21 1_555 1_555
H15 C22 1_555 1_555
C23 H16 1_555 1_555
C24 H17 1_555 1_555
C25 C24 1_555 1_555
C26 C25 1_555 1_555
H18 C26 1_555 1_555
O1 C5 1_555 1_555
Zn1 N2 1_555 1_555
N1 C1 1_555 1_555
N2 N1 1_555 1_555
N3 N2 1_555 1_555
N4 C1 1_555 1_555
N5 C14 1_555 1_555
N6 N5 1_555 1_555
N7 N6 1_555 1_555
N8 C14 1_555 1_555
N9 C21 1_555 1_555
N10 C22 1_555 1_555
N11 C15 1_555 1_555
N12 C16 1_555 1_555
O2 H19 1_555 1_555
H20 O2 1_555 1_555
O3 H21 1_555 1_555
H22 O3 1_555 1_555
O4 H23 1_555 1_555
H24 O4 1_555 1_555
C15A H9A 1_555 1_555
C16A C15A 1_555 1_555
H10A C16A 1_555 1_555
C17A H11A 1_555 1_555
C18A C20 1_555 1_555
H12A C18A 1_555 1_555
C19A C18A 1_555 1_555
C20A C18 1_555 1_555
H13A C20A 1_555 1_555
N11A C15A 1_555 1_555
N12A C16A 1_555 1_555
C21A H14A 1_555 1_555
C22A C21A 1_555 1_555
H15A C22A 1_555 1_555
C23A H16A 1_555 1_555
C24A C26 1_555 1_555
H17A C24A 1_555 1_555
C25A C24A 1_555 1_555
C26A C24 1_555 1_555
H18A C26A 1_555 1_555
N9A C21A 1_555 1_555
N10A C22A 1_555 1_555
C1A C2A 1_555 1_555
C2A C3A 1_555 1_555
C3A H1A 1_555 1_555
C4A C3A 1_555 1_555
H2A C4A 1_555 1_555
C5A C4A 1_555 1_555
C6A C5A 1_555 1_555
H3A C6A 1_555 1_555
C7A C2A 1_555 1_555
H4A C7A 1_555 1_555
C8A C9A 1_555 1_555
C9A H5A 1_555 1_555
C10A C9A 1_555 1_555
H6A C10A 1_555 1_555
C11A C10A 1_555 1_555
C12A C11A 1_555 1_555
H7A C12A 1_555 1_555
C13A C8A 1_555 1_555
H8A C13A 1_555 1_555
C14A C11A 1_555 1_555
O1A C5A 1_555 1_555
Zn1A N9A 1_555 1_555
N1A C1A 1_555 1_555
N2A Zn1A 1_555 1_555
N3A N2A 1_555 1_555
N4A C1A 1_555 1_555
N5A C14A 1_555 1_555
N6A N5A 1_555 1_555
N7A N6A 1_555 1_555
N8A C14A 1_555 1_555
Zn1_2 N7A 1_555 1_555
Zn1A_2 N7 1_555 1_555
Zn1A_3 N11A 1_555 1_555
N7_2 Zn1A 1_555 1_555
N7A_2 Zn1 1_555 1_555
N11A_2 Zn1A 1_555 1_555
C6 C7 1_555 1_555
C8 O1 1_555 1_555
C12 C13 1_555 1_555
C17 N11 1_555 1_555
C17 N12 1_555 1_555
C19 N12 1_555 1_555
C23 N9 1_555 1_555
C23 N10 1_555 1_555
C25 N10 1_555 1_555
Zn1 N9 1_555 1_555
Zn1 N11 1_555 1_555
N3 N4 1_555 1_555
N7 N8 1_555 1_555
C17A N11A 1_555 1_555
C17A N12A 1_555 1_555
C19A C20A 1_555 1_555
C19A N12A 1_555 1_555
C23A N9A 1_555 1_555
C23A N10A 1_555 1_555
C25A C26A 1_555 1_555
C25A N10A 1_555 1_555
C6A C7A 1_555 1_555
C8A O1A 1_555 1_555
C12A C13A 1_555 1_555
N1A N2A 1_555 1_555
N3A N4A 1_555 1_555
N7A N8A 1_555 1_555

#END
