
#######################################################################
#
#                 Cambridge Crystallographic Data Centre
#                                CCDC 
#
#######################################################################
#
# If this CIF has been generated from an entry in the Cambridge 
# Structural Database, then it will include bibliographic, chemical, 
# crystal, experimental, refinement or atomic coordinate data resulting 
# from the CCDC's data processing and validation procedures.
#
#######################################################################

data_ULILAE
_chemical_formula_moiety         '(C40 H26 Cd2 N20 O2)n'
_chemical_name_systematic        
catena-[bis(\m-1,1'-(1,4-phenylene)di(1H-imidazole))-bis(\m-5,5'-(oxydi(4,1-phenylene))bis(tetrazolyl))-di-cadmium]
_symmetry_cell_setting           triclinic
_symmetry_space_group_name_H-M   'P -1'
_symmetry_Int_Tables_number      2
_space_group_name_Hall           '-P 1'
loop_
_symmetry_equiv_pos_site_id
_symmetry_equiv_pos_as_xyz
1 x,y,z
2 -x,-y,-z
_cell_length_a                   8.2082(6)
_cell_length_b                   10.6317(8)
_cell_length_c                   12.4526(10)
_cell_angle_alpha                79.480(7)
_cell_angle_beta                 74.303(7)
_cell_angle_gamma                69.897(7)
_cell_volume                     977.602
_exptl_crystal_colour            colorless
_exptl_crystal_description       block
_cell_formula_units_Z            1
loop_
_atom_site_label
_atom_site_type_symbol
_atom_site_fract_x
_atom_site_fract_y
_atom_site_fract_z
C1 C 0.3891(4) 0.5753(3) 1.2905(2)
C2 C 0.3221(4) 0.6073(3) 1.4073(2)
C3 C 0.3737(4) 0.6989(3) 1.4447(3)
H1 H 0.4527 0.7394 1.3953
C4 C 0.3105(4) 0.7321(3) 1.5541(3)
H2 H 0.3459 0.7950 1.5773
C5 C 0.1960(4) 0.6722(3) 1.6277(2)
C6 C 0.1445(5) 0.5776(3) 1.5939(3)
H3 H 0.0684 0.5354 1.6444
C7 C 0.2079(4) 0.5465(3) 1.4837(3)
H4 H 0.1727 0.4833 1.4607
C8 C 0.0133(4) 0.9380(3) 1.7223(3)
H5 H -0.0417 0.9355 1.6669
C9 C 0.1182(4) 0.8207(3) 1.7688(2)
C10 C 0.2015(4) 0.8215(3) 1.8500(2)
H6 H 0.2727 0.7415 1.8799
C11 C 0.1783(4) 0.9434(3) 1.8872(2)
H7 H 0.2331 0.9445 1.9431
C12 C 0.0743(3) 1.0633(3) 1.8419(2)
C13 C -0.0096(4) 1.0603(3) 1.7591(2)
H8 H -0.0808 1.1399 1.7286
C14 C 0.0521(3) 1.1925(2) 1.8808(2)
C15 C 0.6550(4) 0.7951(3) 0.7489(2)
H9 H 0.6804 0.7223 0.7088
C16 C 0.6239(4) 0.9152(3) 0.8786(2)
H10 H 0.6261 0.9392 0.9462
C17 C 0.5713(4) 1.0024(3) 0.7926(2)
H11 H 0.5285 1.0958 0.7902
C18 C 0.6539(4) 0.8970(3) 0.5111(2)
H12 H 0.7580 0.8280 0.5188
C19 C 0.5479(4) 0.9661(3) 0.6020(2)
C20 C 0.3941(4) 1.0697(3) 0.5914(2)
H13 H 0.3234 1.1168 0.6525
O1 O 0.1334(3) 0.69493(19) 1.73972(17)
Cd1 Cd 0.72935(2) 0.590190(18) 0.962194(16)
N1 N 0.4985(3) 0.6310(2) 1.21260(19)
N2 N 0.5221(3) 0.5733(2) 1.12004(19)
N3 N 0.4319(3) 0.4864(2) 1.14175(19)
N4 N 0.3462(3) 0.4860(2) 1.24964(19)
N5 N 0.1697(3) 1.2127(2) 1.9269(2)
N6 N 0.0971(3) 1.3402(2) 1.95264(19)
N7 N -0.0568(3) 1.3929(2) 1.92220(19)
N8 N -0.0887(3) 1.3016(2) 1.8767(2)
N9 N 0.6745(3) 0.7841(2) 0.85189(18)
N10 N 0.5937(3) 0.9251(2) 0.70855(18)
C15A C 0.3450(4) 1.2049(3) 0.2511(2)
H9A H 0.3196 1.2777 0.2912
C16A C 0.3761(4) 1.0848(3) 0.1214(2)
H10A H 0.3739 1.0608 0.0538
C17A C 0.4287(4) 0.9976(3) 0.2074(2)
H11A H 0.4715 0.9042 0.2098
C18A C 0.3461(4) 1.1030(3) 0.4889(2)
H12A H 0.2420 1.1720 0.4812
C19A C 0.4521(4) 1.0339(3) 0.3980(2)
C20A C 0.6059(4) 0.9303(3) 0.4086(2)
H13A H 0.6766 0.8832 0.3475
N9A N 0.3255(3) 1.2159(2) 0.14811(18)
N10A N 0.4063(3) 1.0749(2) 0.29145(18)
C1A C 0.6109(4) 0.4247(3) 0.7095(2)
C2A C 0.6779(4) 0.3927(3) 0.5927(2)
C3A C 0.6263(4) 0.3011(3) 0.5553(3)
H1A H 0.5473 0.2606 0.6047
C4A C 0.6895(4) 0.2679(3) 0.4459(3)
H2A H 0.6541 0.2050 0.4227
C5A C 0.8040(4) 0.3278(3) 0.3723(2)
C6A C 0.8555(5) 0.4224(3) 0.4061(3)
H3A H 0.9316 0.4646 0.3556
C7A C 0.7921(4) 0.4535(3) 0.5163(3)
H4A H 0.8273 0.5167 0.5393
C8A C 0.9867(4) 0.0620(3) 0.2777(3)
H5A H 1.0417 0.0645 0.3331
C9A C 0.8818(4) 0.1793(3) 0.2312(2)
C10A C 0.7985(4) 0.1785(3) 0.1500(2)
H6A H 0.7273 0.2585 0.1201
C11A C 0.8217(4) 0.0566(3) 0.1128(2)
H7A H 0.7669 0.0555 0.0569
C12A C 0.9257(3) -0.0633(3) 0.1581(2)
C13A C 1.0096(4) -0.0603(3) 0.2409(2)
H8A H 1.0808 -0.1399 0.2714
C14A C 0.9479(3) -0.1925(2) 0.1192(2)
O1A O 0.8666(3) 0.30507(19) 0.26028(17)
Cd1A Cd 0.27065(2) 0.409810(18) 1.037806(16)
N1A N 0.5015(3) 0.3690(2) 0.78740(19)
N2A N 0.4779(3) 0.4267(2) 0.87996(19)
N3A N 0.5681(3) 0.5136(2) 0.85825(19)
N4A N 0.6538(3) 0.5140(2) 0.75036(19)
N5A N 0.8303(3) -0.2127(2) 0.0731(2)
N6A N 0.9029(3) -0.3402(2) 0.04736(19)
N7A N 1.0568(3) -0.3929(2) 0.07780(19)
N8A N 1.0887(3) -0.3016(2) 0.1233(2)
Cd1_2 Cd -0.27065(2) 1.590190(18) 1.962194(16)
Cd1_3 Cd 0.72935(2) -0.409810(18) -0.037806(16)
Cd1A_2 Cd 0.27065(2) 1.409810(18) 0.037806(16)
Cd1A_3 Cd 0.27065(2) 1.409810(18) 2.037806(16)
Cd1A_4 Cd 1.27065(2) -0.590190(18) 0.037806(16)
N6_2 N 0.0971(3) 0.3402(2) 0.95264(19)
N6A_2 N 0.9029(3) 0.6598(2) 1.04736(19)
N7_2 N 0.9432(3) 0.3929(2) 0.92220(19)
N7A_2 N 0.0568(3) 0.6071(2) 1.07780(19)
N9A_2 N 0.3255(3) 0.2159(2) 1.14811(18)
loop_
_geom_bond_atom_site_label_1
_geom_bond_atom_site_label_2
_geom_bond_site_symmetry_1
_geom_bond_site_symmetry_2
C1 C2 1_555 1_555
C2 C3 1_555 1_555
C3 H1 1_555 1_555
C4 C3 1_555 1_555
H2 C4 1_555 1_555
C5 C4 1_555 1_555
C6 C5 1_555 1_555
H3 C6 1_555 1_555
C7 C2 1_555 1_555
H4 C7 1_555 1_555
C8 H5 1_555 1_555
C9 C8 1_555 1_555
C10 C9 1_555 1_555
H6 C10 1_555 1_555
C11 C10 1_555 1_555
H7 C11 1_555 1_555
C12 C11 1_555 1_555
C13 C8 1_555 1_555
H8 C13 1_555 1_555
C14 C12 1_555 1_555
C15 H9 1_555 1_555
C16 H10 1_555 1_555
C17 C16 1_555 1_555
H11 C17 1_555 1_555
C18 H12 1_555 1_555
C19 C18 1_555 1_555
C20 C19 1_555 1_555
H13 C20 1_555 1_555
O1 C5 1_555 1_555
Cd1 N2 1_555 1_555
N1 C1 1_555 1_555
N2 N1 1_555 1_555
N3 N2 1_555 1_555
N4 C1 1_555 1_555
N5 C14 1_555 1_555
N6 N5 1_555 1_555
N7 N6 1_555 1_555
N8 C14 1_555 1_555
N9 C15 1_555 1_555
N10 C15 1_555 1_555
C15A H9A 1_555 1_555
C16A H10A 1_555 1_555
C17A C16A 1_555 1_555
H11A C17A 1_555 1_555
C18A C20 1_555 1_555
H12A C18A 1_555 1_555
C19A C18A 1_555 1_555
C20A C18 1_555 1_555
H13A C20A 1_555 1_555
N9A C15A 1_555 1_555
N10A C15A 1_555 1_555
C1A C2A 1_555 1_555
C2A C3A 1_555 1_555
C3A H1A 1_555 1_555
C4A C3A 1_555 1_555
H2A C4A 1_555 1_555
C5A C4A 1_555 1_555
C6A C5A 1_555 1_555
H3A C6A 1_555 1_555
C7A C2A 1_555 1_555
H4A C7A 1_555 1_555
C8A H5A 1_555 1_555
C9A C8A 1_555 1_555
C10A C9A 1_555 1_555
H6A C10A 1_555 1_555
C11A C10A 1_555 1_555
H7A C11A 1_555 1_555
C12A C11A 1_555 1_555
C13A C8A 1_555 1_555
H8A C13A 1_555 1_555
C14A C12A 1_555 1_555
O1A C5A 1_555 1_555
Cd1A N3 1_555 1_555
N1A C1A 1_555 1_555
N2A Cd1A 1_555 1_555
N3A Cd1 1_555 1_555
N4A C1A 1_555 1_555
N5A C14A 1_555 1_555
N6A N5A 1_555 1_555
N7A N6A 1_555 1_555
N8A C14A 1_555 1_555
Cd1_2 N7 1_555 1_555
Cd1_3 N6A 1_555 1_555
Cd1A_2 N9A 1_555 1_555
Cd1A_3 N6 1_555 1_555
Cd1A_4 N7A 1_555 1_555
N6_2 Cd1A 1_555 1_555
N6A_2 Cd1 1_555 1_555
N7_2 Cd1 1_555 1_555
N7A_2 Cd1A 1_555 1_555
N9A_2 Cd1A 1_555 1_555
C6 C7 1_555 1_555
C9 O1 1_555 1_555
C12 C13 1_555 1_555
C16 N9 1_555 1_555
C17 N10 1_555 1_555
C19 N10 1_555 1_555
Cd1 N9 1_555 1_555
N3 N4 1_555 1_555
N7 N8 1_555 1_555
C16A N9A 1_555 1_555
C17A N10A 1_555 1_555
C19A C20A 1_555 1_555
C19A N10A 1_555 1_555
C6A C7A 1_555 1_555
C9A O1A 1_555 1_555
C12A C13A 1_555 1_555
N1A N2A 1_555 1_555
N2A N3A 1_555 1_555
N3A N4A 1_555 1_555
N7A N8A 1_555 1_555

#END
