
#######################################################################
#
#                 Cambridge Crystallographic Data Centre
#                                CCDC 
#
#######################################################################
#
# If this CIF has been generated from an entry in the Cambridge 
# Structural Database, then it will include bibliographic, chemical, 
# crystal, experimental, refinement or atomic coordinate data resulting 
# from the CCDC's data processing and validation procedures.
#
#######################################################################

data_CAMPOY
_chemical_formula_moiety         '(C58 H54 N12 O18 S2 Zn4)n,3.5(H2 O1)'
_chemical_name_systematic        
"catena-[bis(\m-5-sulfonatobenzene-1,3-dicarboxylato)-bis(\m-hydroxo)-tris(\m-1,1'-(1,4-phenylenebis(methylene))bis(1H-imidazole))-diaqua-tetra-zinc hydrate]"
_symmetry_cell_setting           triclinic
_symmetry_space_group_name_H-M   'P -1'
_symmetry_Int_Tables_number      2
_space_group_name_Hall           '-P 1'
loop_
_symmetry_equiv_pos_site_id
_symmetry_equiv_pos_as_xyz
1 x,y,z
2 -x,-y,-z
_cell_length_a                   10.2200(5)
_cell_length_b                   10.3423(4)
_cell_length_c                   16.3533(7)
_cell_angle_alpha                75.093(4)
_cell_angle_beta                 83.179(4)
_cell_angle_gamma                74.128(4)
_cell_volume                     1604.48
_exptl_crystal_colour            colorless
_exptl_crystal_description       plate
_cell_formula_units_Z            1
loop_
_atom_site_label
_atom_site_type_symbol
_atom_site_fract_x
_atom_site_fract_y
_atom_site_fract_z
C1 C 0.2198(3) 0.5005(3) 0.4306(2)
H1 H 0.298(3) 0.440(3) 0.4333(19)
C2 C 0.1569(3) 0.5771(3) 0.4853(2)
H2 H 0.184(3) 0.585(3) 0.533(2)
C3 C 0.0317(3) 0.6254(3) 0.37717(16)
H3 H -0.040(3) 0.668(3) 0.3403(17)
C4 C -0.0712(4) 0.7534(3) 0.4884(2)
H4 H -0.147(3) 0.774(3) 0.452(2)
H5 H -0.097(4) 0.705(4) 0.543(2)
C5 C -0.0323(3) 0.8802(3) 0.49376(16)
C6 C -0.0143(3) 0.9805(3) 0.42117(16)
H6 H -0.017(3) 0.961(3) 0.3699(19)
C7 C 0.0179(3) 1.0979(3) 0.42765(16)
H7 H 0.035(3) 1.168(3) 0.3769(17)
C8 C 0.9738(3) 0.3720(3) 0.01925(18)
H8 H 0.956(3) 0.285(3) 0.0333(17)
C9 C 0.8722(4) 0.4854(3) 0.03080(17)
H9 H 0.783(3) 0.477(3) 0.0516(19)
C10 C 0.8966(3) 0.6158(3) 0.01208(16)
C11 C 0.7909(4) 0.7416(4) 0.0276(2)
H10 H 0.800(4) 0.820(4) -0.013(2)
H11 H 0.800(3) 0.752(3) 0.082(2)
C12 C 0.2730(3) 0.9850(3) 0.22651(17)
H12 H 0.246(3) 1.051(3) 0.1756(18)
C13 C 0.2928(3) 1.0071(3) 0.30119(17)
H13 H 0.289(3) 1.088(3) 0.3168(16)
C14 C 0.3254(4) 0.7865(3) 0.31214(18)
H14 H 0.350(3) 0.692(3) 0.3350(19)
C15 C 0.3431(4) 0.8447(4) 0.44714(18)
H15 H 0.249(4) 0.855(4) 0.482(2)
H16 H 0.394(4) 0.752(4) 0.458(2)
C16 C 0.4254(3) 0.9267(3) 0.47242(16)
C17 C 0.5330(3) 0.9668(3) 0.42251(18)
H17 H 0.555(3) 0.943(3) 0.370(2)
C18 C 0.3929(3) 0.9615(3) 0.54971(17)
H18 H 0.322(4) 0.931(3) 0.585(2)
C19 C 0.4631(4) 0.7133(3) -0.01065(19)
H19 H 0.386(3) 0.704(3) -0.0390(19)
C20 C 0.5912(4) 0.7132(4) -0.0382(2)
H20 H 0.647(4) 0.697(4) -0.089(2)
C21 C 0.5572(3) 0.7451(3) 0.08973(18)
H21 H 0.573(3) 0.766(3) 0.1393(18)
C22 C 0.4472(3) 0.4131(3) 0.24311(16)
C23 C 0.5949(2) 0.3382(2) 0.23610(14)
C24 C 0.6938(3) 0.4024(3) 0.24289(15)
H22 H 0.671(3) 0.490(3) 0.2513(15)
C25 C 0.8315(3) 0.3370(2) 0.23622(15)
C26 C 0.8692(3) 0.2053(2) 0.22124(14)
H23 H 0.959(3) 0.164(3) 0.2154(15)
C27 C 0.7702(2) 0.1418(2) 0.21248(13)
C28 C 0.6333(3) 0.2071(2) 0.22106(14)
H24 H 0.574(3) 0.165(3) 0.2162(15)
C29 C 0.9359(3) 0.4109(3) 0.24291(16)
N1 N 0.1403(2) 0.5302(2) 0.36202(13)
N2 N 0.0367(2) 0.6571(2) 0.45059(13)
N3 N 0.2933(2) 0.8460(2) 0.23350(13)
N4 N 0.3260(3) 0.8786(2) 0.35549(13)
N5 N 0.4403(3) 0.7341(2) 0.06988(14)
N6 N 0.6522(3) 0.7326(2) 0.02654(14)
O1 O 0.8781(2) 0.0090(2) 0.09844(11)
O2 O 0.9240(2) -0.10802(18) 0.24279(11)
O3 O 0.6989(2) -0.06902(19) 0.19168(13)
O4 O 0.35948(18) 0.34582(18) 0.24472(12)
O5 O 0.4165(7) 0.5390(8) 0.238(2)
O6 O 0.89950(19) 0.53418(19) 0.24589(13)
O7 O 1.06029(18) 0.34267(18) 0.24478(12)
O8 O 0.1597(2) 0.6282(2) 0.15893(14)
O9 O 0.1546(3) 0.9271(2) 0.06997(14)
H25 H 0.160(4) 0.937(4) 0.021(2)
H26 H 0.070(5) 0.954(4) 0.085(2)
S1 S 0.82103(7) -0.02110(6) 0.18590(4)
Zn1 Zn 0.17345(3) 0.46789(3) 0.25190(2)
Zn2 Zn 0.27427(4) 0.74889(3) 0.14686(2)
H27 H 0.076(2) 0.671(4) 0.154(2)
C1A C -0.2198(3) 1.4995(3) 0.5694(2)
H1A H -0.298(3) 1.560(3) 0.5667(19)
C2A C -0.1569(3) 1.4229(3) 0.5147(2)
H2A H -0.184(3) 1.415(3) 0.467(2)
C3A C -0.0317(3) 1.3746(3) 0.62283(16)
H3A H 0.040(3) 1.332(3) 0.6597(17)
C4A C 0.0712(4) 1.2466(3) 0.5116(2)
H4A H 0.147(3) 1.226(3) 0.548(2)
H5A H 0.097(4) 1.295(4) 0.457(2)
C5A C 0.0323(3) 1.1198(3) 0.50624(16)
C6A C 0.0143(3) 1.0195(3) 0.57883(16)
H6A H 0.017(3) 1.039(3) 0.6301(19)
C7A C -0.0179(3) 0.9021(3) 0.57235(16)
H7A H -0.035(3) 0.832(3) 0.6231(17)
N1A N -0.1403(2) 1.4698(2) 0.63798(13)
N2A N -0.0367(2) 1.3429(2) 0.54941(13)
C8A C 1.0262(3) 0.6280(3) -0.01925(18)
H8A H 1.044(3) 0.715(3) -0.0333(17)
C9A C 1.1278(4) 0.5146(3) -0.03080(17)
H9A H 1.217(3) 0.523(3) -0.0516(19)
C10A C 1.1034(3) 0.3842(3) -0.01208(16)
C11A C 1.2091(4) 0.2584(4) -0.0276(2)
H10A H 1.200(4) 0.180(4) 0.013(2)
H11A H 1.200(3) 0.248(3) -0.082(2)
C19A C 1.5369(4) 0.2867(3) 0.01065(19)
H19A H 1.614(3) 0.296(3) 0.0390(19)
C20A C 1.4088(4) 0.2868(4) 0.0382(2)
H20A H 1.353(4) 0.303(4) 0.089(2)
C21A C 1.4428(3) 0.2549(3) -0.08973(18)
H21A H 1.427(3) 0.234(3) -0.1393(18)
N5A N 1.5597(3) 0.2659(2) -0.06988(14)
N6A N 1.3478(3) 0.2674(2) -0.02654(14)
C12A C 0.7270(3) 1.0150(3) 0.77349(17)
H12A H 0.754(3) 0.949(3) 0.8244(18)
C13A C 0.7072(3) 0.9929(3) 0.69881(17)
H13A H 0.711(3) 0.912(3) 0.6832(16)
C14A C 0.6746(4) 1.2135(3) 0.68786(18)
H14A H 0.650(3) 1.308(3) 0.6650(19)
C15A C 0.6569(4) 1.1553(4) 0.55286(18)
H15A H 0.751(4) 1.145(4) 0.518(2)
H16A H 0.606(4) 1.248(4) 0.542(2)
C16A C 0.5746(3) 1.0733(3) 0.52758(16)
C17A C 0.4670(3) 1.0332(3) 0.57749(18)
H17A H 0.445(3) 1.057(3) 0.630(2)
C18A C 0.6071(3) 1.0385(3) 0.45029(17)
H18A H 0.678(4) 1.069(3) 0.415(2)
N3A N 0.7067(2) 1.1540(2) 0.76650(13)
N4A N 0.6740(3) 1.1214(2) 0.64451(13)
C22A C -0.4472(3) 1.5869(3) 0.75689(16)
C23A C -0.5949(2) 1.6618(2) 0.76390(14)
C24A C -0.6938(3) 1.5976(3) 0.75711(15)
H22A H -0.671(3) 1.510(3) 0.7487(15)
C25A C -0.8315(3) 1.6630(2) 0.76378(15)
C26A C -0.8692(3) 1.7947(2) 0.77876(14)
H23A H -0.959(3) 1.836(3) 0.7846(15)
C27A C -0.7702(2) 1.8582(2) 0.78752(13)
C28A C -0.6333(3) 1.7929(2) 0.77894(14)
H24A H -0.574(3) 1.835(3) 0.7838(15)
C29A C -0.9359(3) 1.5891(3) 0.75709(16)
O1A O -0.8781(2) 1.9910(2) 0.90156(11)
O2A O -0.9240(2) 2.10802(18) 0.75721(11)
O3A O -0.6989(2) 2.06902(19) 0.80832(13)
O4A O -0.35948(18) 1.65418(18) 0.75528(12)
O5A O -0.4165(7) 1.4610(8) 0.762(2)
O6A O -0.89950(19) 1.46582(19) 0.75411(13)
O7A O -1.06029(18) 1.65733(18) 0.75522(12)
O8A O -0.1597(2) 1.3718(2) 0.84107(14)
O9A O -0.1546(3) 1.0729(2) 0.93003(14)
H25A H -0.160(4) 1.063(4) 0.979(2)
H26A H -0.070(5) 1.046(4) 0.915(2)
S1A S -0.82103(7) 2.02110(6) 0.81410(4)
Zn1A Zn -0.17345(3) 1.53211(3) 0.74810(2)
Zn2A Zn -0.27427(4) 1.25111(3) 0.85314(2)
H27A H -0.076(2) 1.329(4) 0.846(2)
N3A_2 N -0.2933(2) 1.1540(2) 0.76650(13)
N5A_2 N -0.4403(3) 1.2659(2) 0.93012(14)
O7_2 O 0.06029(18) 0.34267(18) 0.24478(12)
O7A_2 O -0.06029(18) 1.65733(18) 0.75522(12)
Zn1_2 Zn 1.17345(3) 0.46789(3) 0.25190(2)
Zn1A_2 Zn -1.17345(3) 1.53211(3) 0.74810(2)
Zn2A_2 Zn 0.72573(4) 1.25111(3) 0.85314(2)
Zn2A_3 Zn 1.72573(4) 0.25111(3) -0.14686(2)
O11 O 0.6902(3) 0.6942(3) 0.3261(2)
H28 H 0.675(4) 0.771(5) 0.292(3)
H29 H 0.747(5) 0.645(5) 0.302(3)
O12 O 0.5519(4) 0.5086(4) 0.4167(2)
H30 H 0.5033 0.5386 0.4587
H31 H 0.5926 0.5707 0.3873
O10? O 0.423(2) 0.526(3) 0.270(4)
loop_
_geom_bond_atom_site_label_1
_geom_bond_atom_site_label_2
_geom_bond_site_symmetry_1
_geom_bond_site_symmetry_2
C1 H1 1_555 1_555
C2 C1 1_555 1_555
H2 C2 1_555 1_555
C3 H3 1_555 1_555
C4 H4 1_555 1_555
H5 C4 1_555 1_555
C5 C4 1_555 1_555
C6 C5 1_555 1_555
H6 C6 1_555 1_555
C7 C6 1_555 1_555
H7 C7 1_555 1_555
C8 H8 1_555 1_555
C9 C8 1_555 1_555
H9 C9 1_555 1_555
C10 C9 1_555 1_555
C11 C10 1_555 1_555
H10 C11 1_555 1_555
H11 C11 1_555 1_555
C12 H12 1_555 1_555
C13 C12 1_555 1_555
H13 C13 1_555 1_555
C14 H14 1_555 1_555
C15 H15 1_555 1_555
H16 C15 1_555 1_555
C16 C15 1_555 1_555
C17 C16 1_555 1_555
H17 C17 1_555 1_555
C18 C16 1_555 1_555
H18 C18 1_555 1_555
C19 H19 1_555 1_555
C20 C19 1_555 1_555
H20 C20 1_555 1_555
C21 H21 1_555 1_555
C22 C23 1_555 1_555
C23 C24 1_555 1_555
C24 H22 1_555 1_555
C25 C24 1_555 1_555
C26 C25 1_555 1_555
H23 C26 1_555 1_555
C27 C26 1_555 1_555
C28 C23 1_555 1_555
H24 C28 1_555 1_555
C29 C25 1_555 1_555
N1 C1 1_555 1_555
N2 C2 1_555 1_555
N3 C12 1_555 1_555
N4 C13 1_555 1_555
N5 C19 1_555 1_555
N6 C11 1_555 1_555
O1 S1 1_555 1_555
O2 S1 1_555 1_555
O3 S1 1_555 1_555
O4 C22 1_555 1_555
O5 C22 1_555 1_555
O6 C29 1_555 1_555
O7 C29 1_555 1_555
O8 Zn1 1_555 1_555
O9 H25 1_555 1_555
H26 O9 1_555 1_555
S1 C27 1_555 1_555
Zn1 N1 1_555 1_555
Zn2 N3 1_555 1_555
H27 O8 1_555 1_555
O11 H28 1_555 1_555
H29 O11 1_555 1_555
O12 H30 1_555 1_555
H31 O12 1_555 1_555
C1A H1A 1_555 1_555
C2A C1A 1_555 1_555
H2A C2A 1_555 1_555
C3A H3A 1_555 1_555
C4A H4A 1_555 1_555
H5A C4A 1_555 1_555
C5A C7 1_555 1_555
C6A C5A 1_555 1_555
H6A C6A 1_555 1_555
C7A C5 1_555 1_555
H7A C7A 1_555 1_555
N1A C1A 1_555 1_555
N2A C2A 1_555 1_555
C8A C10 1_555 1_555
H8A C8A 1_555 1_555
C9A C8A 1_555 1_555
H9A C9A 1_555 1_555
C10A C8 1_555 1_555
C11A C10A 1_555 1_555
H10A C11A 1_555 1_555
H11A C11A 1_555 1_555
C19A H19A 1_555 1_555
C20A C19A 1_555 1_555
H20A C20A 1_555 1_555
C21A H21A 1_555 1_555
N5A C19A 1_555 1_555
N6A C11A 1_555 1_555
C12A H12A 1_555 1_555
C13A C12A 1_555 1_555
H13A C13A 1_555 1_555
C14A H14A 1_555 1_555
C15A H15A 1_555 1_555
H16A C15A 1_555 1_555
C16A C15A 1_555 1_555
C17A C18 1_555 1_555
H17A C17A 1_555 1_555
C18A C17 1_555 1_555
H18A C18A 1_555 1_555
N3A C12A 1_555 1_555
N4A C13A 1_555 1_555
C22A C23A 1_555 1_555
C23A C24A 1_555 1_555
C24A H22A 1_555 1_555
C25A C24A 1_555 1_555
C26A C25A 1_555 1_555
H23A C26A 1_555 1_555
C27A C26A 1_555 1_555
C28A C23A 1_555 1_555
H24A C28A 1_555 1_555
C29A C25A 1_555 1_555
O1A S1A 1_555 1_555
O2A S1A 1_555 1_555
O3A S1A 1_555 1_555
O4A C22A 1_555 1_555
O5A C22A 1_555 1_555
O6A C29A 1_555 1_555
O7A C29A 1_555 1_555
O8A Zn1A 1_555 1_555
O9A H25A 1_555 1_555
H26A O9A 1_555 1_555
S1A C27A 1_555 1_555
Zn1A N1A 1_555 1_555
Zn2A O5A 1_555 1_555
H27A O8A 1_555 1_555
N3A_2 Zn2A 1_555 1_555
N5A_2 Zn2A 1_555 1_555
O7_2 Zn1 1_555 1_555
O7A_2 Zn1A 1_555 1_555
Zn1_2 O7 1_555 1_555
Zn1A_2 O7A 1_555 1_555
Zn2A_2 N3A 1_555 1_555
Zn2A_3 N5A 1_555 1_555
C3 N1 1_555 1_555
C3 N2 1_555 1_555
C4 N2 1_555 1_555
C14 N3 1_555 1_555
C14 N4 1_555 1_555
C15 N4 1_555 1_555
C20 N6 1_555 1_555
C21 N5 1_555 1_555
C21 N6 1_555 1_555
C27 C28 1_555 1_555
N5 Zn2 1_555 1_555
O4 Zn1 1_555 1_555
O5 Zn2 1_555 1_555
O8 Zn2 1_555 1_555
O9 Zn2 1_555 1_555
C3A N1A 1_555 1_555
C3A N2A 1_555 1_555
C4A C5A 1_555 1_555
C4A N2A 1_555 1_555
C6A C7A 1_555 1_555
C9A C10A 1_555 1_555
C20A N6A 1_555 1_555
C21A N5A 1_555 1_555
C21A N6A 1_555 1_555
C14A N3A 1_555 1_555
C14A N4A 1_555 1_555
C15A N4A 1_555 1_555
C16A C17A 1_555 1_555
C16A C18A 1_555 1_555
C27A C28A 1_555 1_555
O4A Zn1A 1_555 1_555
O8A Zn2A 1_555 1_555
O9A Zn2A 1_555 1_555

#END
