
#######################################################################
#
#                 Cambridge Crystallographic Data Centre
#                                CCDC 
#
#######################################################################
#
# If this CIF has been generated from an entry in the Cambridge 
# Structural Database, then it will include bibliographic, chemical, 
# crystal, experimental, refinement or atomic coordinate data resulting 
# from the CCDC's data processing and validation procedures.
#
#######################################################################

data_DOQPAB02
_chemical_formula_moiety         '(C33 H26 N2 O8 Rh2)n'
_chemical_name_systematic        
catena-(tetrakis(\m~2~-benzoato)-(\m~2~-2-methylpyrazine)-di-rhodium(ii))
_symmetry_cell_setting           triclinic
_symmetry_space_group_name_H-M   'P -1'
_symmetry_Int_Tables_number      2
_space_group_name_Hall           '-P 1'
loop_
_symmetry_equiv_pos_site_id
_symmetry_equiv_pos_as_xyz
1 x,y,z
2 -x,-y,-z
_cell_length_a                   10.2076(9)
_cell_length_b                   10.4184(10)
_cell_length_c                   15.7516(15)
_cell_angle_alpha                79.434(2)
_cell_angle_beta                 81.217(2)
_cell_angle_gamma                86.212(2)
_cell_volume                     1626.17
_exptl_crystal_colour            red
_exptl_crystal_description       plate
_cell_formula_units_Z            2
loop_
_atom_site_label
_atom_site_type_symbol
_atom_site_fract_x
_atom_site_fract_y
_atom_site_fract_z
_atom_site_U_iso_or_equiv
_atom_site_thermal_displace_type
C1 C 0.4010(6) 0.7073(6) 0.5609(4) 0.0218 Uani
C2 C 0.3446(6) 0.8251(7) 0.5971(4) 0.0228 Uani
C3 C 0.3411(7) 0.9462(7) 0.5438(5) 0.0288 Uani
H1 H 0.3810 0.9555 0.4845 0.0340 Uiso
C4 C 0.2808(7) 1.0526(7) 0.5752(5) 0.0304 Uani
H2 H 0.2804 1.1358 0.5384 0.0370 Uiso
C5 C 0.2209(8) 1.0380(7) 0.6607(5) 0.0345 Uani
H3 H 0.1741 1.1102 0.6819 0.0420 Uiso
C6 C 0.2282(8) 0.9199(8) 0.7156(5) 0.0377 Uani
H4 H 0.1905 0.9119 0.7752 0.0450 Uiso
C7 C 0.2908(7) 0.8120(7) 0.6841(5) 0.0314 Uani
H5 H 0.2966 0.7302 0.7219 0.0380 Uiso
C8 C 0.2911(7) 0.4749(7) 0.4298(5) 0.0314 Uani
C9 C 0.1817(8) 0.4441(8) 0.3838(6) 0.0421 Uani
C10 C 0.1905(9) 0.4817(9) 0.2946(6) 0.0466 Uani
H6 H 0.2616 0.5332 0.2634 0.0560 Uiso
C11 C 0.0948(9) 0.4443(10) 0.2496(7) 0.0589 Uani
H7 H 0.1001 0.4707 0.1882 0.0710 Uiso
C12 C -0.0060(11) 0.3693(10) 0.2958(8) 0.0661 Uani
H8 H -0.0690 0.3401 0.2656 0.0790 Uiso
C13 C -0.0180(10) 0.3351(10) 0.3858(8) 0.0655 Uani
H9 H -0.0917 0.2871 0.4168 0.0790 Uiso
C14 C 0.0772(9) 0.3703(9) 0.4317(7) 0.0546 Uani
H10 H 0.0709 0.3448 0.4932 0.0650 Uiso
C15 C 0.1264(6) 0.0419(6) 1.1246(4) 0.0226 Uani
C16 C 0.1937(7) 0.0698(7) 1.1958(5) 0.0322 Uani
C17 C 0.1406(9) 0.0281(9) 1.2807(6) 0.0523 Uani
H11 H 0.0641 -0.0231 1.2932 0.0630 Uiso
C18 C 0.1975(10) 0.0601(10) 1.3503(7) 0.0589 Uani
H12 H 0.1594 0.0329 1.4093 0.0710 Uiso
C19 C 0.3119(9) 0.1332(9) 1.3292(6) 0.0512 Uani
H13 H 0.3566 0.1505 1.3743 0.0610 Uiso
C20 C 0.3591(7) 0.1792(8) 1.2449(5) 0.0346 Uani
H14 H 0.4358 0.2301 1.2311 0.0410 Uiso
C21 C 0.2962(7) 0.1524(7) 1.1787(5) 0.0289 Uani
H15 H 0.3250 0.1924 1.1201 0.0350 Uiso
C22 C 0.1451(6) -0.2117(6) 0.9802(4) 0.0193 Uani
C23 C 0.2230(6) -0.3327(6) 0.9638(4) 0.0224 Uani
C24 C 0.1703(7) -0.4550(7) 0.9968(5) 0.0278 Uani
H16 H 0.0853 -0.4608 1.0313 0.0330 Uiso
C25 C 0.2400(7) -0.5668(7) 0.9801(5) 0.0327 Uani
H17 H 0.2021 -0.6493 1.0018 0.0390 Uiso
C26 C 0.3641(8) -0.5602(8) 0.9320(5) 0.0367 Uani
H18 H 0.4120 -0.6382 0.9211 0.0440 Uiso
C27 C 0.4198(8) -0.4405(8) 0.8994(5) 0.0393 Uani
H19 H 0.5062 -0.4356 0.8668 0.0470 Uiso
C28 C 0.3471(7) -0.3275(7) 0.9152(5) 0.0337 Uani
H20 H 0.3840 -0.2449 0.8919 0.0410 Uiso
C29 C 0.2281(7) 0.3509(7) 0.7178(4) 0.0248 Uani
H21 H 0.1841 0.4184 0.6821 0.0300 Uiso
C30 C 0.1594(6) 0.2864(6) 0.7933(4) 0.0207 Uani
H22 H 0.0693 0.3121 0.8093 0.0250 Uiso
C31 C 0.3434(7) 0.1602(6) 0.8211(4) 0.0235 Uani
C32 C 0.4142(6) 0.2255(7) 0.7454(4) 0.0234 Uani
C33 C 0.4268(13) 0.0739(13) 0.8801(9) 0.0275 Uani
H23 H 0.3978 0.0861 0.9404 0.0410 Uiso
H24 H 0.5200 0.0965 0.8630 0.0410 Uiso
H25 H 0.4174 -0.0176 0.8757 0.0410 Uiso
N1 N 0.3567(5) 0.3208(5) 0.6930(4) 0.0233 Uani
N2 N 0.2144(5) 0.1889(5) 0.8450(3) 0.0160 Uani
O1 O 0.4658(4) 0.7252(4) 0.4850(3) 0.0255 Uani
O2 O 0.3785(4) 0.5977(4) 0.6098(3) 0.0231 Uani
O3 O 0.3784(5) 0.5475(5) 0.3842(3) 0.0294 Uani
O4 O 0.2895(4) 0.4205(4) 0.5094(3) 0.0263 Uani
O5 O 0.0270(4) -0.0315(4) 1.1460(3) 0.0207 Uani
O6 O 0.1725(4) 0.0918(4) 1.0471(3) 0.0208 Uani
O7 O 0.0400(4) -0.2257(4) 1.0351(3) 0.0221 Uani
O8 O 0.1880(4) -0.1052(4) 0.9367(3) 0.0188 Uani
Rh1 Rh 0.45293(5) 0.43318(5) 0.56650(3) 0.0204 Uani
Rh2 Rh 0.07787(5) 0.06503(5) 0.94755(3) 0.0163 Uani
O1A O 0.5342(4) 0.2748(4) 0.5150(3) 0.0255 Uani
O3A O 0.6216(5) 0.4525(5) 0.6158(3) 0.0294 Uani
O5A O -0.0270(4) 0.0315(4) 0.8540(3) 0.0207 Uani
O7A O -0.0400(4) 0.2257(4) 0.9649(3) 0.0221 Uani
Rh1A Rh 0.54707(5) 0.56682(5) 0.43350(3) 0.0204 Uani
Rh2A Rh -0.07787(5) -0.06503(5) 1.05245(3) 0.0163 Uani
C34? C 0.5528(12) 0.1727(13) 0.7248(9) 0.0240 Uani
H26? H 0.5634 0.1432 0.6684 0.0360 Uiso
H27? H 0.5705 0.0989 0.7705 0.0360 Uiso
H28? H 0.6153 0.2413 0.7220 0.0360 Uiso
loop_
_atom_site_aniso_label
_atom_site_aniso_U_11
_atom_site_aniso_U_22
_atom_site_aniso_U_33
_atom_site_aniso_U_23
_atom_site_aniso_U_13
_atom_site_aniso_U_12
C1 0.023 0.02 0.019 0.002 0.002 -0.002
C2 0.025 0.024 0.019 -0.0031 -0.0005 -0.0071
C3 0.033 0.027 0.024 -0.002 0.002 -0.005
C4 0.035 0.028 0.028 -0.006 -0.001 -0.004
C5 0.041 0.032 0.031 -0.01 0 -0.005
C6 0.047 0.036 0.029 -0.008 0.003 -0.007
C7 0.038 0.03 0.025 -0.004 0.002 -0.01
C8 0.033(3) 0.030(3) 0.031(3) -0.007(2) -0.003(2) 0.001(2)
C9 0.042(2) 0.040(2) 0.046(3) -0.010(2) -0.010(2) 0.002(2)
C10 0.045(3) 0.048(3) 0.050(3) -0.013(2) -0.015(2) 0.006(2)
C11 0.058(3) 0.060(3) 0.062(3) -0.014(3) -0.019(3) 0.008(3)
C12 0.066(3) 0.062(3) 0.074(3) -0.012(3) -0.022(3) -0.001(3)
C13 0.063(3) 0.060(3) 0.075(3) -0.007(3) -0.018(3) -0.008(3)
C14 0.051(3) 0.052(3) 0.062(3) -0.005(3) -0.016(3) -0.006(2)
C15 0.026 0.02 0.02 -0.001 0.001 -0.005
C16 0.034 0.034 0.027 -0.002 -0.001 -0.008
C17 0.053 0.059 0.045 -0.004 -0.007 -0.017
C18 0.059 0.068 0.05 -0.005 -0.009 -0.016
C19 0.049 0.059 0.046 -0.003 -0.01 -0.015
C20 0.033 0.037 0.033 -0.004 -0.002 -0.008
C21 0.031 0.027 0.027 -0.001 -0.001 -0.006
C22 0.022(2) 0.020(2) 0.015(2) -0.003(2) 0.000(2) -0.001(2)
C23 0.026(2) 0.021(2) 0.019(2) -0.0032(19) 0.0011(19) -0.0020(19)
C24 0.028(2) 0.025(2) 0.028(2) -0.002(2) 0.000(2) -0.001(2)
C25 0.035(2) 0.027(2) 0.035(3) -0.003(2) -0.004(2) -0.003(2)
C26 0.040(3) 0.030(3) 0.039(3) -0.008(2) -0.001(2) 0.001(2)
C27 0.040(3) 0.034(3) 0.040(3) -0.007(2) 0.006(2) 0.001(2)
C28 0.035(2) 0.029(2) 0.033(3) -0.005(2) 0.007(2) -0.001(2)
C29 0.027(2) 0.022(3) 0.020(3) 0.005(2) 0.001(2) 0.003(2)
C30 0.022(2) 0.021(2) 0.017(2) -0.003(2) 0.003(2) 0.000(2)
C31 0.027(2) 0.023(2) 0.019(2) -0.003(2) 0.000(2) 0.001(2)
C32 0.025(2) 0.023(2) 0.021(2) -0.004(2) 0.001(2) -0.001(2)
C33 0.026(4) 0.027(4) 0.027(4) -0.003(3) 0.001(3) 0.001(3)
N1 0.025(3) 0.017(3) 0.024(3) 0.003(2) 0.003(2) -0.005(2)
N2 0.020(2) 0.016(2) 0.011(2) -0.002(2) 0.001(2) -0.0020(19)
O1 0.031 0.02 0.019 0.0034 0.009 -0.0021
O2 0.028 0.021 0.015 0.0048 0.005 -0.0038
O3 0.027(2) 0.036(3) 0.021(3) 0.004(2) -0.001(2) -0.002(2)
O4 0.025(2) 0.025(2) 0.027(3) -0.001(2) 0.001(2) -0.0077(19)
O5 0.026 0.023 0.009 0.0034 0.0048 -0.006
O6 0.028 0.019 0.013 -0.0004 0.0046 -0.0084
O7 0.029(2) 0.014(2) 0.018(2) 0.0023(18) 0.0087(19) -0.0052(18)
O8 0.025(2) 0.012(2) 0.016(2) 0.0008(17) 0.0044(18) -0.0022(17)
Rh1 0.0230(3) 0.0199(3) 0.0121(3) 0.0050(2) 0.0089(2) -0.0049(2)
Rh2 0.0234(3) 0.0125(3) 0.0090(3) 0.00181(19) 0.0076(2) -0.00587(19)
O1A 0.031(2) 0.020(2) 0.019(2) 0.0034(19) 0.009(2) -0.0021(19)
O3A 0.027 0.036 0.021 0.004 -0.001 -0.002
O5A 0.026(2) 0.023(2) 0.009(2) 0.0034(18) 0.0048(18) -0.0060(18)
O7A 0.029 0.014 0.018 0.0023 0.0087 -0.0052
Rh1A 0.023 0.0199 0.0121 0.005 0.0089 -0.0049
Rh2A 0.0234 0.0125 0.009 0.00181 0.0076 -0.00587
C34? 0.022(4) 0.023(4) 0.023(4) 0.000(3) 0.004(3) 0.000(3)
loop_
_geom_bond_atom_site_label_1
_geom_bond_atom_site_label_2
_geom_bond_site_symmetry_1
_geom_bond_site_symmetry_2
C1 C2 1_555 1_555
C2 C3 1_555 1_555
C3 H1 1_555 1_555
C4 C3 1_555 1_555
H2 C4 1_555 1_555
C5 C4 1_555 1_555
H3 C5 1_555 1_555
C6 C5 1_555 1_555
H4 C6 1_555 1_555
C7 C2 1_555 1_555
H5 C7 1_555 1_555
C8 C9 1_555 1_555
C9 C10 1_555 1_555
C10 H6 1_555 1_555
C11 C10 1_555 1_555
H7 C11 1_555 1_555
C12 C11 1_555 1_555
H8 C12 1_555 1_555
C13 C12 1_555 1_555
H9 C13 1_555 1_555
C14 C9 1_555 1_555
H10 C14 1_555 1_555
C15 C16 1_555 1_555
C16 C17 1_555 1_555
C17 H11 1_555 1_555
C18 C17 1_555 1_555
H12 C18 1_555 1_555
C19 C18 1_555 1_555
H13 C19 1_555 1_555
C20 C19 1_555 1_555
H14 C20 1_555 1_555
C21 C16 1_555 1_555
H15 C21 1_555 1_555
C22 C23 1_555 1_555
C23 C24 1_555 1_555
C24 H16 1_555 1_555
C25 C24 1_555 1_555
H17 C25 1_555 1_555
C26 C25 1_555 1_555
H18 C26 1_555 1_555
C27 C26 1_555 1_555
H19 C27 1_555 1_555
C28 C23 1_555 1_555
H20 C28 1_555 1_555
C29 H21 1_555 1_555
C30 C29 1_555 1_555
H22 C30 1_555 1_555
C31 C32 1_555 1_555
C32 N1 1_555 1_555
C33 C31 1_555 1_555
H23 C33 1_555 1_555
H24 C33 1_555 1_555
H25 C33 1_555 1_555
N1 C29 1_555 1_555
N2 C30 1_555 1_555
O1 C1 1_555 1_555
O2 C1 1_555 1_555
O3 C8 1_555 1_555
O4 C8 1_555 1_555
O5 C15 1_555 1_555
O6 C15 1_555 1_555
O7 C22 1_555 1_555
O8 C22 1_555 1_555
Rh1 N1 1_555 1_555
Rh2 N2 1_555 1_555
O1A Rh1 1_555 1_555
O3A Rh1 1_555 1_555
O5A Rh2 1_555 1_555
O7A Rh2 1_555 1_555
Rh1A O1 1_555 1_555
Rh2A O5 1_555 1_555
C6 C7 1_555 1_555
C13 C14 1_555 1_555
C20 C21 1_555 1_555
C27 C28 1_555 1_555
C31 N2 1_555 1_555
O2 Rh1 1_555 1_555
O3 Rh1A 1_555 1_555
O4 Rh1 1_555 1_555
O6 Rh2 1_555 1_555
O7 Rh2A 1_555 1_555
O8 Rh2 1_555 1_555
Rh1 Rh1A 1_555 1_555
Rh2 Rh2A 1_555 1_555

#END
