
#######################################################################
#
#                 Cambridge Crystallographic Data Centre
#                                CCDC 
#
#######################################################################
#
# If this CIF has been generated from an entry in the Cambridge 
# Structural Database, then it will include bibliographic, chemical, 
# crystal, experimental, refinement or atomic coordinate data resulting 
# from the CCDC's data processing and validation procedures.
#
#######################################################################

data_DOQPAB01
_chemical_formula_moiety         '(C33 H26 N2 O8 Rh2)n'
_chemical_name_systematic        
catena-(tetrakis(\m~2~-benzoato)-(\m~2~-2-methylpyrazine)-di-rhodium(ii))
_symmetry_cell_setting           triclinic
_symmetry_space_group_name_H-M   'P -1'
_symmetry_Int_Tables_number      2
_space_group_name_Hall           '-P 1'
loop_
_symmetry_equiv_pos_site_id
_symmetry_equiv_pos_as_xyz
1 x,y,z
2 -x,-y,-z
_cell_length_a                   10.463(3)
_cell_length_b                   10.502(3)
_cell_length_c                   15.753(5)
_cell_angle_alpha                79.896(7)
_cell_angle_beta                 80.852(7)
_cell_angle_gamma                87.276(7)
_cell_volume                     1682.11
_exptl_crystal_colour            red
_cell_formula_units_Z            2
loop_
_atom_site_label
_atom_site_type_symbol
_atom_site_fract_x
_atom_site_fract_y
_atom_site_fract_z
_atom_site_U_iso_or_equiv
_atom_site_thermal_displace_type
C1 C 0.5993(6) 0.2941(7) 0.4397(4) 0.0462 Uani
C2 C 0.6561(7) 0.1797(7) 0.4051(4) 0.0496 Uani
C3 C 0.6569(7) 0.0604(7) 0.4583(5) 0.0591 Uani
H1 H 0.6164 0.0516 0.5159 0.0710 Uiso
C4 C 0.7162(8) -0.0451(8) 0.4278(5) 0.0676 Uani
H2 H 0.7159 -0.1250 0.4643 0.0810 Uiso
C5 C 0.7756(8) -0.0318(8) 0.3432(5) 0.0702 Uani
H3 H 0.8199 -0.1021 0.3230 0.0840 Uiso
C6 C 0.7710(8) 0.0844(8) 0.2875(6) 0.0710 Uani
H4 H 0.8074 0.0913 0.2291 0.0860 Uiso
C7 C 0.7120(7) 0.1902(8) 0.3189(5) 0.0629 Uani
H5 H 0.7099 0.2693 0.2817 0.0750 Uiso
C8 C 0.7059(8) 0.5316(8) 0.5688(5) 0.0616 Uani
C9 C 0.8147(10) 0.5597(10) 0.6110(7) 0.0825 Uani
C10 C 0.8085(11) 0.5189(11) 0.7008(7) 0.0986 Uani
H6 H 0.7399 0.4696 0.7327 0.1180 Uiso
C11 C 0.9086(12) 0.5542(12) 0.7423(8) 0.1151 Uani
H7 H 0.9050 0.5292 0.8022 0.1380 Uiso
C12 C 1.0064(13) 0.6217(12) 0.6972(9) 0.1211 Uani
H8 H 1.0685 0.6464 0.7270 0.1450 Uiso
C13 C 1.0217(12) 0.6577(12) 0.6082(8) 0.1162 Uani
H9 H 1.0955 0.7001 0.5778 0.1400 Uiso
C14 C 0.9187(10) 0.6275(11) 0.5623(8) 0.1013 Uani
H10 H 0.9233 0.6533 0.5023 0.1210 Uiso
C15 C -0.1261(7) -0.0423(7) 0.8763(4) 0.0480 Uani
C16 C -0.1935(8) -0.0693(8) 0.8075(5) 0.0606 Uani
C17 C -0.1416(10) -0.0276(10) 0.7233(6) 0.0856 Uani
H11 H -0.0664 0.0205 0.7099 0.1030 Uiso
C18 C -0.2034(10) -0.0580(11) 0.6561(7) 0.0986 Uani
H12 H -0.1691 -0.0294 0.5980 0.1180 Uiso
C19 C -0.3154(10) -0.1306(10) 0.6763(7) 0.0930 Uani
H13 H -0.3580 -0.1482 0.6323 0.1120 Uiso
C20 C -0.3607(9) -0.1744(10) 0.7597(6) 0.0809 Uani
H14 H -0.4356 -0.2228 0.7743 0.0980 Uiso
C21 C -0.2968(8) -0.1482(8) 0.8242(5) 0.0667 Uani
H15 H -0.3255 -0.1861 0.8816 0.0800 Uiso
C22 C -0.1393(7) 0.2096(6) 1.0201(4) 0.0468 Uani
C23 C -0.2142(7) 0.3275(7) 1.0342(5) 0.0570 Uani
C24 C -0.1637(8) 0.4479(8) 1.0002(5) 0.0672 Uani
H16 H -0.0822 0.4539 0.9663 0.0800 Uiso
C25 C -0.2313(9) 0.5591(9) 1.0152(6) 0.0777 Uani
H17 H -0.1954 0.6394 0.9917 0.0930 Uiso
C26 C -0.3501(9) 0.5518(10) 1.0643(6) 0.0863 Uani
H18 H -0.3962 0.6270 1.0742 0.1040 Uiso
C27 C -0.4022(10) 0.4343(10) 1.0989(6) 0.0896 Uani
H19 H -0.4838 0.4295 1.1327 0.1080 Uiso
C28 C -0.3344(9) 0.3219(9) 1.0843(6) 0.0785 Uani
H20 H -0.3706 0.2420 1.1086 0.0940 Uiso
C29 C 0.2327(6) 0.3477(7) 0.7176(4) 0.0468 Uani
H21 H 0.1930 0.4133 0.6826 0.0560 Uiso
C30 C 0.1616(6) 0.2820(6) 0.7907(4) 0.0454 Uani
H22 H 0.0747 0.3045 0.8047 0.0540 Uiso
C31 C 0.3390(6) 0.1607(7) 0.8216(4) 0.0453 Uani
C32 C 0.4121(7) 0.2262(7) 0.7466(4) 0.0482 Uani
C33 C 0.5481(12) 0.1814(13) 0.7285(9) 0.0630 Uani
H23 H 0.6035 0.2548 0.7118 0.0940 Uiso
H24 H 0.5576 0.1320 0.6819 0.0940 Uiso
H25 H 0.5717 0.1282 0.7799 0.0940 Uiso
N1 N 0.3595(5) 0.3201(5) 0.6948(3) 0.0460 Uani
N2 N 0.2137(5) 0.1856(5) 0.8428(3) 0.0425 Uani
O1 O 0.5346(4) 0.2776(4) 0.5160(3) 0.0508 Uani
O2 O 0.6202(4) 0.4033(4) 0.3912(3) 0.0496 Uani
O3 O 0.6184(5) 0.4598(5) 0.6146(3) 0.0602 Uani
O4 O 0.7046(5) 0.5837(5) 0.4895(3) 0.0575 Uani
O5 O -0.0263(4) 0.0278(5) 0.8551(3) 0.0495 Uani
O6 O -0.1700(4) -0.0928(4) 0.9541(3) 0.0491 Uani
O7 O -0.0362(4) 0.2218(4) 0.9648(3) 0.0485 Uani
O8 O -0.1817(4) 0.1031(4) 1.0638(3) 0.0466 Uani
Rh1 Rh 0.45425(5) 0.43397(5) 0.56685(3) 0.0427 Uani
Rh2 Rh 0.07674(5) 0.06401(5) 0.94687(3) 0.0387 Uani
O2A O 0.3798(4) 0.5967(4) 0.6088(3) 0.0496 Uani
O4A O 0.2954(5) 0.4163(5) 0.5105(3) 0.0575 Uani
O6A O 0.1700(4) 0.0928(4) 1.0459(3) 0.0491 Uani
O8A O 0.1817(4) -0.1031(4) 0.9362(3) 0.0466 Uani
Rh1A Rh 0.54575(5) 0.56603(5) 0.43315(3) 0.0427 Uani
Rh2A Rh -0.07674(5) -0.06401(5) 1.05313(3) 0.0387 Uani
C34? C 0.4186(17) 0.0827(18) 0.8780(11) 0.0601 Uani
H26? H 0.4053 0.1103 0.9338 0.0900 Uiso
H27? H 0.5080 0.0922 0.8525 0.0900 Uiso
H28? H 0.3956 -0.0064 0.8853 0.0900 Uiso
loop_
_atom_site_aniso_label
_atom_site_aniso_U_11
_atom_site_aniso_U_22
_atom_site_aniso_U_33
_atom_site_aniso_U_23
_atom_site_aniso_U_13
_atom_site_aniso_U_12
C1 0.050(2) 0.045(2) 0.037(2) -0.001(2) 0.007(2) -0.003(2)
C2 0.053(3) 0.050(3) 0.042(2) -0.006(2) 0.004(2) -0.006(2)
C3 0.066(3) 0.056(3) 0.051(3) -0.007(2) 0.002(3) -0.003(3)
C4 0.076(3) 0.059(3) 0.065(3) -0.012(3) -0.001(3) -0.001(3)
C5 0.078(3) 0.064(3) 0.069(3) -0.022(3) 0.000(3) -0.003(3)
C6 0.080(3) 0.069(3) 0.062(3) -0.018(3) 0.004(3) -0.005(3)
C7 0.070(3) 0.061(3) 0.054(3) -0.010(3) 0.003(3) -0.005(3)
C8 0.06 0.063 0.059 -0.007 -0.004 -0.003
C9 0.081 0.082 0.085 -0.015 -0.014 0.002
C10 0.098 0.101 0.1 -0.019 -0.023 0
C11 0.115 0.117 0.116 -0.02 -0.027 0.001
C12 0.119 0.12 0.127 -0.02 -0.028 -0.002
C13 0.111 0.114 0.125 -0.019 -0.022 -0.007
C14 0.097 0.1 0.108 -0.016 -0.021 -0.003
C15 0.052(2) 0.049(2) 0.038(2) -0.001(2) 0.003(2) -0.008(2)
C16 0.062(3) 0.066(3) 0.050(2) -0.003(2) -0.002(2) -0.011(2)
C17 0.086(3) 0.098(3) 0.072(3) -0.008(3) -0.012(3) -0.017(3)
C18 0.100(3) 0.111(4) 0.084(3) -0.010(3) -0.015(3) -0.017(3)
C19 0.094(3) 0.103(4) 0.082(3) -0.010(3) -0.015(3) -0.019(3)
C20 0.083(3) 0.086(3) 0.073(3) -0.008(3) -0.012(3) -0.014(3)
C21 0.070(3) 0.070(3) 0.058(3) -0.006(3) -0.007(3) -0.008(3)
C22 0.053 0.039 0.041 0.001 0.007 -0.004
C23 0.061 0.047 0.057 -0.003 0.003 -0.002
C24 0.07 0.055 0.071 -0.005 0 -0.003
C25 0.081 0.062 0.085 -0.008 -0.003 0.001
C26 0.089 0.07 0.094 -0.013 0 0.008
C27 0.088 0.076 0.095 -0.013 0.011 0.008
C28 0.078 0.065 0.082 -0.007 0.012 0.003
C29 0.049(3) 0.042(3) 0.039(2) 0.005(2) 0.010(2) 0.003(2)
C30 0.046(3) 0.041(3) 0.039(2) 0.006(2) 0.010(2) 0.000(2)
C31 0.049(3) 0.042(3) 0.038(2) 0.002(2) 0.004(2) 0.001(2)
C32 0.049(3) 0.047(3) 0.042(2) 0.000(2) 0.004(2) 0.001(2)
C33 0.060(5) 0.061(5) 0.059(5) 0.002(4) 0.004(4) 0.002(4)
N1 0.049(2) 0.042(2) 0.038(2) 0.002(2) 0.011(2) -0.003(2)
N2 0.048(2) 0.039(2) 0.033(2) 0.0040(19) 0.006(2) -0.004(2)
O1 0.057(2) 0.045(2) 0.039(2) 0.0033(19) 0.0162(19) -0.002(2)
O2 0.055(2) 0.046(2) 0.039(2) -0.0002(18) 0.0118(19) -0.003(2)
O3 0.061 0.065 0.048 0.004 -0.003 -0.004
O4 0.053 0.059 0.054 -0.001 0.005 -0.011
O5 0.058(2) 0.051(2) 0.033(2) 0.0030(18) 0.0050(19) -0.012(2)
O6 0.056(2) 0.048(2) 0.037(2) 0.0012(19) 0.0062(19) -0.013(2)
O7 0.054 0.037 0.044 0.0042 0.0136 -0.0059
O8 0.051 0.037 0.043 0.0007 0.012 -0.003
Rh1 0.0463(3) 0.0410(3) 0.0291(3) 0.0078(2) 0.0165(2) -0.0068(2)
Rh2 0.0493(3) 0.0331(3) 0.0240(3) 0.0052(2) 0.0152(2) -0.0088(2)
O2A 0.055 0.046 0.039 -0.0002 0.0118 -0.003
O4A 0.053(2) 0.059(3) 0.054(2) -0.001(2) 0.005(2) -0.011(2)
O6A 0.056 0.048 0.037 0.0012 0.0062 -0.013
O8A 0.051(2) 0.037(2) 0.043(2) 0.0007(18) 0.0120(19) -0.0030(19)
Rh1A 0.0463 0.041 0.0291 0.0078 0.0165 -0.0068
Rh2A 0.0493 0.0331 0.024 0.0052 0.0152 -0.0088
C34? 0.058(6) 0.058(6) 0.058(6) -0.001(4) 0.001(4) -0.002(4)
loop_
_geom_bond_atom_site_label_1
_geom_bond_atom_site_label_2
_geom_bond_site_symmetry_1
_geom_bond_site_symmetry_2
C1 C2 1_555 1_555
C2 C3 1_555 1_555
C3 H1 1_555 1_555
C4 C3 1_555 1_555
H2 C4 1_555 1_555
C5 C4 1_555 1_555
H3 C5 1_555 1_555
C6 C5 1_555 1_555
H4 C6 1_555 1_555
C7 C2 1_555 1_555
H5 C7 1_555 1_555
C8 C9 1_555 1_555
C9 C10 1_555 1_555
C10 H6 1_555 1_555
C11 C10 1_555 1_555
H7 C11 1_555 1_555
C12 C11 1_555 1_555
H8 C12 1_555 1_555
C13 C12 1_555 1_555
H9 C13 1_555 1_555
C14 C9 1_555 1_555
H10 C14 1_555 1_555
C15 C16 1_555 1_555
C16 C17 1_555 1_555
C17 H11 1_555 1_555
C18 C17 1_555 1_555
H12 C18 1_555 1_555
C19 C18 1_555 1_555
H13 C19 1_555 1_555
C20 C19 1_555 1_555
H14 C20 1_555 1_555
C21 C16 1_555 1_555
H15 C21 1_555 1_555
C22 C23 1_555 1_555
C23 C24 1_555 1_555
C24 H16 1_555 1_555
C25 C24 1_555 1_555
H17 C25 1_555 1_555
C26 C25 1_555 1_555
H18 C26 1_555 1_555
C27 C26 1_555 1_555
H19 C27 1_555 1_555
C28 C23 1_555 1_555
H20 C28 1_555 1_555
C29 H21 1_555 1_555
C30 C29 1_555 1_555
H22 C30 1_555 1_555
C31 C32 1_555 1_555
C32 C33 1_555 1_555
C33 H23 1_555 1_555
H24 C33 1_555 1_555
H25 C33 1_555 1_555
N1 C29 1_555 1_555
N2 C30 1_555 1_555
O1 C1 1_555 1_555
O2 C1 1_555 1_555
O3 C8 1_555 1_555
O4 C8 1_555 1_555
O5 C15 1_555 1_555
O6 C15 1_555 1_555
O7 C22 1_555 1_555
O8 C22 1_555 1_555
Rh1 N1 1_555 1_555
Rh2 N2 1_555 1_555
O2A Rh1 1_555 1_555
O4A Rh1 1_555 1_555
O6A Rh2 1_555 1_555
O8A Rh2 1_555 1_555
Rh1A O2 1_555 1_555
Rh2A O6 1_555 1_555
C6 C7 1_555 1_555
C13 C14 1_555 1_555
C20 C21 1_555 1_555
C27 C28 1_555 1_555
C31 N2 1_555 1_555
C32 N1 1_555 1_555
O1 Rh1 1_555 1_555
O3 Rh1 1_555 1_555
O4 Rh1A 1_555 1_555
O5 Rh2 1_555 1_555
O7 Rh2 1_555 1_555
O8 Rh2A 1_555 1_555
Rh1 Rh1A 1_555 1_555
Rh2 Rh2A 1_555 1_555

#END
