
#######################################################################
#
#                 Cambridge Crystallographic Data Centre
#                                CCDC 
#
#######################################################################
#
# If this CIF has been generated from an entry in the Cambridge 
# Structural Database, then it will include bibliographic, chemical, 
# crystal, experimental, refinement or atomic coordinate data resulting 
# from the CCDC's data processing and validation procedures.
#
#######################################################################

data_NADKAG
_chemical_formula_moiety         '(C18 H36 N6 O18 P6 Y2)n,5n(H2 O1)'
_chemical_name_systematic        
'catena-(tris(\m~4~-piperazine-1,4-diylbis(methylene)bis(phosphonato))-di-yttrium pentahydrate)'
_symmetry_cell_setting           orthorhombic
_symmetry_space_group_name_H-M   'P 2 21 21'
_symmetry_Int_Tables_number      18
_space_group_name_Hall           'P 2bc 2'
loop_
_symmetry_equiv_pos_site_id
_symmetry_equiv_pos_as_xyz
1 x,y,z
2 x,-y,-z
3 -x,1/2+y,1/2-z
4 -x,1/2-y,1/2+z
_cell_length_a                   8.67363(29)
_cell_length_b                   9.78127(29)
_cell_length_c                   22.7964(9)
_cell_angle_alpha                90
_cell_angle_beta                 90
_cell_angle_gamma                90
_cell_volume                     1934.03
_exptl_crystal_colour            white
_cell_formula_units_Z            2
loop_
_atom_site_label
_atom_site_type_symbol
_atom_site_fract_x
_atom_site_fract_y
_atom_site_fract_z
_atom_site_U_iso_or_equiv
_atom_site_thermal_displace_type
O10 O 0.566(5) 0.383(5) 0.0326(16) 0.0600 Uiso
O11 O 0.239(5) 0.0000 0.00000 0.0600 Uiso
O12 O 0.542(6) 0.0000 0.00000 0.0600 Uiso
Y1 Y 0.0400(5) -0.1409(5) 0.74424(20) 0.0113 Uiso
P1 P 0.9814(16) 0.1102(15) 0.8702(4) 0.0113 Uiso
P2 P 0.3047(13) 0.1399(13) 0.7204(5) 0.0113 Uiso
P3 P -0.2185(14) 0.0990(14) 0.6663(5) 0.0113 Uiso
O1 O 0.9253(27) 0.2278(20) 0.8386(9) 0.0113 Uiso
O2 O 0.9876(28) -0.0100(19) 0.8275(8) 0.0113 Uiso
O3 O 1.1377(20) 0.1187(28) 0.8983(9) 0.0113 Uiso
O4 O 0.1718(21) 0.2380(19) 0.7253(10) 0.0113 Uiso
O5 O 0.2477(22) -0.0021(15) 0.7235(10) 0.0113 Uiso
O6 O 0.3840(21) 0.1686(24) 0.6611(7) 0.0113 Uiso
O7 O -0.1169(22) -0.0146(21) 0.6834(10) 0.0113 Uiso
O8 O -0.2173(20) 0.2072(19) 0.7137(8) 0.0113 Uiso
O9 O -0.3784(19) 0.0519(21) 0.6519(9) 0.0113 Uiso
N1 N 0.6722(26) 0.0737(27) 0.9110(12) 0.0113 Uiso
N2 N 0.3985(23) 0.1358(29) 0.8464(10) 0.0113 Uiso
N3 N -0.0849(35) -0.0889(25) 0.4500(10) 0.0113 Uiso
C1 C 0.8357(22) 0.0619(27) 0.9301(8) 0.0113 Uiso
C2 C 0.6254(32) -0.0083(25) 0.8585(15) 0.0113 Uiso
C3 C 0.455(4) -0.0132(21) 0.8569(11) 0.0113 Uiso
C4 C 0.451(4) 0.2256(26) 0.8935(10) 0.0113 Uiso
C5 C 0.6206(34) 0.2221(21) 0.8999(16) 0.0113 Uiso
C6 C 0.4438(25) 0.1756(26) 0.7833(7) 0.0113 Uiso
C7 C -0.1433(32) 0.1843(19) 0.5969(7) 0.0113 Uiso
C8 C -0.117(4) 0.1463(9) 0.4905(8) 0.0113 Uiso
C9 C -0.074(5) -0.0483(23) 0.5576(8) 0.0113 Uiso
C10 C -0.137(5) 0.0533(21) 0.4420(8) 0.0113 Uiso
N4 N -0.146(4) 0.0876(25) 0.5497(10) 0.0113 Uiso
Y1A Y 0.0400(5) 0.1409(5) 0.25576(20) 0.0113 Uiso
Y1_2 Y 1.0400(5) -0.1409(5) 0.74424(20) 0.0113 Uiso
Y1A_2 Y 1.0400(5) 0.1409(5) 0.25576(20) 0.0113 Uiso
Y1B Y -0.0400(5) 0.3591(5) 0.75576(20) 0.0113 Uiso
Y1B_2 Y 0.9600(5) 0.3591(5) 0.75576(20) 0.0113 Uiso
Y1C Y -0.0400(5) -0.3591(5) 0.24424(20) 0.0113 Uiso
Y1C_2 Y 0.9600(5) -0.3591(5) 0.24424(20) 0.0113 Uiso
P1A P 0.9814(16) -0.1102(15) 0.1298(4) 0.0113 Uiso
P2A P 0.3047(13) -0.1399(13) 0.2796(5) 0.0113 Uiso
P3A P -0.2185(14) -0.0990(14) 0.3337(5) 0.0113 Uiso
O1A O 0.9253(27) -0.2278(20) 0.1614(9) 0.0113 Uiso
O1B O 0.0747(27) -0.2722(20) 0.6614(9) 0.0113 Uiso
O1C O 0.0747(27) 0.2722(20) 0.3386(9) 0.0113 Uiso
O2A O 0.9876(28) 0.0100(19) 0.1725(8) 0.0113 Uiso
O2_2 O -0.0124(28) -0.0100(19) 0.8275(8) 0.0113 Uiso
O2A_2 O -0.0124(28) 0.0100(19) 0.1725(8) 0.0113 Uiso
O3A O 1.1377(20) -0.1187(28) 0.1017(9) 0.0113 Uiso
O4A O 0.1718(21) -0.2380(19) 0.2747(10) 0.0113 Uiso
O4B O -0.1718(21) -0.2620(19) 0.7747(10) 0.0113 Uiso
O4C O -0.1718(21) 0.2620(19) 0.2253(10) 0.0113 Uiso
O5A O 0.2477(22) 0.0021(15) 0.2765(10) 0.0113 Uiso
O6A O 0.3840(21) -0.1686(24) 0.3389(7) 0.0113 Uiso
O7A O -0.1169(22) 0.0146(21) 0.3166(10) 0.0113 Uiso
O8A O -0.2173(20) -0.2072(19) 0.2863(8) 0.0113 Uiso
O8B O 0.2173(20) -0.2928(19) 0.7863(8) 0.0113 Uiso
O8C O 0.2173(20) 0.2928(19) 0.2137(8) 0.0113 Uiso
O9A O -0.3784(19) -0.0519(21) 0.3481(9) 0.0113 Uiso
N1A N 0.6722(26) -0.0737(27) 0.0890(12) 0.0113 Uiso
N2A N 0.3985(23) -0.1358(29) 0.1536(10) 0.0113 Uiso
N3A N -0.0849(35) 0.0889(25) 0.5500(10) 0.0113 Uiso
C1A C 0.8357(22) -0.0619(27) 0.0699(8) 0.0113 Uiso
C2A C 0.6254(32) 0.0083(25) 0.1415(15) 0.0113 Uiso
C3A C 0.455(4) 0.0132(21) 0.1431(11) 0.0113 Uiso
C4A C 0.451(4) -0.2256(26) 0.1065(10) 0.0113 Uiso
C5A C 0.6206(34) -0.2221(21) 0.1001(16) 0.0113 Uiso
C6A C 0.4438(25) -0.1756(26) 0.2167(7) 0.0113 Uiso
C7A C -0.1433(32) -0.1843(19) 0.4031(7) 0.0113 Uiso
C8A C -0.117(4) -0.1463(9) 0.5095(8) 0.0113 Uiso
C9A C -0.074(5) 0.0483(23) 0.4424(8) 0.0113 Uiso
C10A C -0.137(5) -0.0533(21) 0.5580(8) 0.0113 Uiso
N4A N -0.146(4) -0.0876(25) 0.4503(10) 0.0113 Uiso
O13? O 0.736(10) 0.354(11) 0.058(4) 0.0600 Uiso
loop_
_geom_bond_atom_site_label_1
_geom_bond_atom_site_label_2
_geom_bond_site_symmetry_1
_geom_bond_site_symmetry_2
Y1 O5 1_555 1_555
P1 O1 1_555 1_555
P2 O4 1_555 1_555
P3 O7 1_555 1_555
O1 Y1B_2 1_555 1_555
O2 P1 1_555 1_555
O3 P1 1_555 1_555
O4 Y1B 1_555 1_555
O5 P2 1_555 1_555
O6 P2 1_555 1_555
O7 Y1 1_555 1_555
O8 P3 1_555 1_555
O9 P3 1_555 1_555
N1 C1 1_555 1_555
N2 C3 1_555 1_555
N3 C10 1_555 1_555
C1 P1 1_555 1_555
C2 N1 1_555 1_555
C3 C2 1_555 1_555
C4 N2 1_555 1_555
C5 N1 1_555 1_555
C6 P2 1_555 1_555
C7 P3 1_555 1_555
C8 C10 1_555 1_555
C9 N4 1_555 1_555
C10 N4A 1_555 1_555
N4 C7 1_555 1_555
Y1A O1C 1_555 1_555
Y1_2 O2 1_555 1_555
Y1A_2 O2A 1_555 1_555
Y1B O8 1_555 1_555
Y1C O4A 1_555 1_555
Y1C_2 O1A 1_555 1_555
P1A O1A 1_555 1_555
P2A O4A 1_555 1_555
P3A O7A 1_555 1_555
O1B Y1 1_555 1_555
O2A P1A 1_555 1_555
O2_2 Y1 1_555 1_555
O2A_2 Y1A 1_555 1_555
O3A P1A 1_555 1_555
O4B Y1 1_555 1_555
O4C Y1A 1_555 1_555
O5A Y1A 1_555 1_555
O6A P2A 1_555 1_555
O7A Y1A 1_555 1_555
O8A Y1C 1_555 1_555
O8B Y1 1_555 1_555
O8C Y1A 1_555 1_555
O9A P3A 1_555 1_555
N1A C1A 1_555 1_555
N2A C3A 1_555 1_555
N3A C7 1_555 1_555
C1A P1A 1_555 1_555
C2A N1A 1_555 1_555
C3A C2A 1_555 1_555
C4A N2A 1_555 1_555
C5A N1A 1_555 1_555
C6A P2A 1_555 1_555
C7A N3 1_555 1_555
C8A N3 1_555 1_555
C9A N3 1_555 1_555
C10A N4 1_555 1_555
N4A C7A 1_555 1_555
N2 C6 1_555 1_555
C4 C5 1_555 1_555
C8 N4 1_555 1_555
C8 N3A 1_555 1_555
C8 C9A 1_555 1_555
C9 N3A 1_555 1_555
C9 C8A 1_555 1_555
P2A O5A 1_555 1_555
P3A O8A 1_555 1_555
P3A C7A 1_555 1_555
N2A C6A 1_555 1_555
N3A C10A 1_555 1_555
C4A C5A 1_555 1_555
C8A C10A 1_555 1_555
C8A N4A 1_555 1_555
C9A N4A 1_555 1_555

#END
