
#######################################################################
#
#                 Cambridge Crystallographic Data Centre
#                                CCDC 
#
#######################################################################
#
# If this CIF has been generated from an entry in the Cambridge 
# Structural Database, then it will include bibliographic, chemical, 
# crystal, experimental, refinement or atomic coordinate data resulting 
# from the CCDC's data processing and validation procedures.
#
#######################################################################

data_PIFPIE
_chemical_formula_moiety         '(C42 H24 N2 O12 Zn3)n'
_chemical_name_systematic        
catena-(bis(\m~6~-4,4',4''-Nitrilotris(benzoato))-tri-zinc)
_symmetry_cell_setting           monoclinic
_symmetry_space_group_name_H-M   'C 2/c'
_symmetry_Int_Tables_number      15
_space_group_name_Hall           '-C 2yc'
loop_
_symmetry_equiv_pos_site_id
_symmetry_equiv_pos_as_xyz
1 x,y,z
2 1/2+x,1/2+y,z
3 -x,y,1/2-z
4 1/2-x,1/2+y,1/2-z
5 -x,-y,-z
6 1/2-x,1/2-y,-z
7 x,-y,1/2+z
8 1/2+x,1/2-y,1/2+z
_cell_length_a                   15.631(4)
_cell_length_b                   24.948(6)
_cell_length_c                   16.800(4)
_cell_angle_alpha                90
_cell_angle_beta                 113.875(4)
_cell_angle_gamma                90
_cell_volume                     5990.77
_exptl_crystal_colour            brown
_exptl_crystal_description       rod-shape
_cell_formula_units_Z            4
loop_
_atom_site_label
_atom_site_type_symbol
_atom_site_fract_x
_atom_site_fract_y
_atom_site_fract_z
Zn1 Zn -0.22530(3) 0.300556(13) 0.08173(3)
Zn2 Zn 0.0000 0.328635(18) 0.2500
O1 O -0.07297(16) 0.38091(8) 0.16330(17)
O2 O -0.22856(16) 0.37619(8) 0.10867(18)
C1 C -0.1531(3) 0.40212(12) 0.1333(2)
C2 C -0.1574(2) 0.46147(11) 0.1253(2)
C3 C -0.0762(2) 0.48984(11) 0.1452(2)
H1 H -0.0195 0.4717 0.1630
C4 C -0.0779(2) 0.54510(12) 0.1390(2)
H2 H -0.0222 0.5637 0.1529
C5 C -0.1605(2) 0.57287(11) 0.1126(2)
C6 C -0.2425(2) 0.54455(12) 0.0925(2)
H3 H -0.2993 0.5626 0.0741
C7 C -0.2402(2) 0.48890(12) 0.0998(2)
H4 H -0.2955 0.4701 0.0872
O3 O -0.43205(16) 0.78988(8) 0.19205(16)
O4 O -0.35352(16) 0.75533(8) 0.32257(17)
C8 C -0.3720(2) 0.75838(12) 0.2431(3)
C9 C -0.3214(2) 0.72287(12) 0.2043(2)
C10 C -0.3270(2) 0.73171(12) 0.1214(2)
H5 H -0.3650 0.7590 0.0878
C11 C -0.2762(2) 0.70012(12) 0.0875(2)
H6 H -0.2806 0.7063 0.0314
C12 C -0.2200(2) 0.66004(11) 0.1369(2)
C13 C -0.2161(2) 0.65006(11) 0.2186(2)
H7 H -0.1798 0.6219 0.2515
C14 C -0.2662(2) 0.68190(12) 0.2523(2)
H8 H -0.2623 0.6753 0.3082
O5 O 0.17004(15) 0.69861(8) 0.00189(15)
O6 O 0.14952(15) 0.77529(9) 0.05722(17)
C15 C 0.1273(2) 0.72864(14) 0.0340(2)
C16 C 0.0465(2) 0.70448(12) 0.0478(2)
C17 C 0.0065(2) 0.65738(12) 0.0076(2)
H9 H 0.0278 0.6411 -0.0307
C18 C -0.0650(2) 0.63386(11) 0.0233(2)
H10 H -0.0933 0.6028 -0.0064
C19 C -0.0951(2) 0.65632(11) 0.0834(2)
C20 C -0.0564(2) 0.70410(11) 0.1224(2)
H11 H -0.0768 0.7202 0.1615
C21 C 0.0131(2) 0.72830(11) 0.1034(2)
H12 H 0.0375 0.7611 0.1287
N1 N -0.16368(17) 0.62959(9) 0.10394(18)
Zn1B Zn 0.22530(3) 0.300556(13) 0.41827(3)
Zn1C Zn -0.27470(3) 0.800556(13) 0.41827(3)
Zn1D Zn 0.22530(3) 0.699444(13) -0.08173(3)
Zn1A Zn 0.27470(3) 0.800556(13) 0.08173(3)
Zn1F Zn -0.22530(3) 0.699444(13) 0.58173(3)
Zn2A Zn -0.5000 0.828635(18) 0.2500
Zn2A_2 Zn 0.5000 0.828635(18) 0.2500
O1B O 0.07297(16) 0.38091(8) 0.33670(17)
O2B O 0.22856(16) 0.37619(8) 0.39133(18)
C1B C 0.1531(3) 0.40212(12) 0.3667(2)
C2B C 0.1574(2) 0.46147(11) 0.3747(2)
C3B C 0.0762(2) 0.48984(11) 0.3548(2)
H1B H 0.0195 0.4717 0.3370
C4B C 0.0779(2) 0.54510(12) 0.3610(2)
H2B H 0.0222 0.5637 0.3471
C5B C 0.1605(2) 0.57287(11) 0.3874(2)
C6B C 0.2425(2) 0.54455(12) 0.4075(2)
H3B H 0.2993 0.5626 0.4259
C7B C 0.2402(2) 0.48890(12) 0.4002(2)
H4B H 0.2955 0.4701 0.4128
O3B O 0.43205(16) 0.78988(8) 0.30795(16)
O3A O 0.06795(16) 0.28988(8) 0.19205(16)
O3C O -0.06795(16) 0.28988(8) 0.30795(16)
O4B O 0.35352(16) 0.75533(8) 0.17743(17)
O4C O -0.14648(16) 0.25533(8) 0.17743(17)
O4A O 0.14648(16) 0.25533(8) 0.32257(17)
C8B C 0.3720(2) 0.75838(12) 0.2569(3)
C9B C 0.3214(2) 0.72287(12) 0.2957(2)
C10B C 0.3270(2) 0.73171(12) 0.3786(2)
H5B H 0.3650 0.7590 0.4122
C11B C 0.2762(2) 0.70012(12) 0.4125(2)
H6B H 0.2806 0.7063 0.4686
C12B C 0.2200(2) 0.66004(11) 0.3631(2)
C13B C 0.2161(2) 0.65006(11) 0.2814(2)
H7B H 0.1798 0.6219 0.2485
C14B C 0.2662(2) 0.68190(12) 0.2477(2)
H8B H 0.2623 0.6753 0.1918
O5B O -0.17004(15) 0.69861(8) 0.49811(15)
O5D O -0.17004(15) 0.30139(8) -0.00189(15)
O5F O 0.17004(15) 0.30139(8) 0.50189(15)
O6B O -0.14952(15) 0.77529(9) 0.44278(17)
O6A O -0.35048(15) 0.27529(9) 0.05722(17)
O6C O 0.35048(15) 0.27529(9) 0.44278(17)
C15B C -0.1273(2) 0.72864(14) 0.4660(2)
C16B C -0.0465(2) 0.70448(12) 0.4522(2)
C17B C -0.0065(2) 0.65738(12) 0.4924(2)
H9B H -0.0278 0.6411 0.5307
C18B C 0.0650(2) 0.63386(11) 0.4767(2)
H10B H 0.0933 0.6028 0.5064
C19B C 0.0951(2) 0.65632(11) 0.4166(2)
C20B C 0.0564(2) 0.70410(11) 0.3776(2)
H11B H 0.0768 0.7202 0.3385
C21B C -0.0131(2) 0.72830(11) 0.3966(2)
H12B H -0.0375 0.7611 0.3713
N1B N 0.16368(17) 0.62959(9) 0.39606(18)
loop_
_geom_bond_atom_site_label_1
_geom_bond_atom_site_label_2
_geom_bond_site_symmetry_1
_geom_bond_site_symmetry_2
Zn1 O2 1_555 1_555
Zn2 O1 1_555 1_555
O1 C1 1_555 1_555
O2 C1 1_555 1_555
C1 C2 1_555 1_555
C2 C3 1_555 1_555
C3 H1 1_555 1_555
C4 C3 1_555 1_555
H2 C4 1_555 1_555
C5 C4 1_555 1_555
C6 C5 1_555 1_555
H3 C6 1_555 1_555
C7 C2 1_555 1_555
H4 C7 1_555 1_555
O3 C8 1_555 1_555
O4 C8 1_555 1_555
C8 C9 1_555 1_555
C9 C10 1_555 1_555
C10 H5 1_555 1_555
C11 C10 1_555 1_555
H6 C11 1_555 1_555
C12 C11 1_555 1_555
C13 C12 1_555 1_555
H7 C13 1_555 1_555
C14 C9 1_555 1_555
H8 C14 1_555 1_555
O5 C15 1_555 1_555
O6 C15 1_555 1_555
C15 C16 1_555 1_555
C16 C17 1_555 1_555
C17 H9 1_555 1_555
C18 C17 1_555 1_555
H10 C18 1_555 1_555
C19 C18 1_555 1_555
C20 C19 1_555 1_555
H11 C20 1_555 1_555
C21 C16 1_555 1_555
H12 C21 1_555 1_555
N1 C5 1_555 1_555
Zn1B O2B 1_555 1_555
Zn1C O4 1_555 1_555
Zn1D O5 1_555 1_555
Zn1A O6 1_555 1_555
Zn1F O5B 1_555 1_555
Zn2A O3 1_555 1_555
Zn2A_2 O3B 1_555 1_555
O1B Zn2 1_555 1_555
O2B C1B 1_555 1_555
C1B O1B 1_555 1_555
C2B C1B 1_555 1_555
C3B C2B 1_555 1_555
H1B C3B 1_555 1_555
C4B C3B 1_555 1_555
H2B C4B 1_555 1_555
C5B C4B 1_555 1_555
C6B C5B 1_555 1_555
H3B C6B 1_555 1_555
C7B C2B 1_555 1_555
H4B C7B 1_555 1_555
O3B C8B 1_555 1_555
O3A Zn2 1_555 1_555
O3C Zn2 1_555 1_555
O4B Zn1A 1_555 1_555
O4C Zn1 1_555 1_555
O4A Zn1B 1_555 1_555
C8B O4B 1_555 1_555
C9B C8B 1_555 1_555
C10B C9B 1_555 1_555
H5B C10B 1_555 1_555
C11B C10B 1_555 1_555
H6B C11B 1_555 1_555
C12B C11B 1_555 1_555
C13B C12B 1_555 1_555
H7B C13B 1_555 1_555
C14B C9B 1_555 1_555
H8B C14B 1_555 1_555
O5B C15B 1_555 1_555
O5D Zn1 1_555 1_555
O5F Zn1B 1_555 1_555
O6B Zn1C 1_555 1_555
O6A Zn1 1_555 1_555
O6C Zn1B 1_555 1_555
C15B O6B 1_555 1_555
C16B C15B 1_555 1_555
C17B C16B 1_555 1_555
H9B C17B 1_555 1_555
C18B C17B 1_555 1_555
H10B C18B 1_555 1_555
C19B C18B 1_555 1_555
C20B C19B 1_555 1_555
H11B C20B 1_555 1_555
C21B C16B 1_555 1_555
H12B C21B 1_555 1_555
N1B C5B 1_555 1_555
C6 C7 1_555 1_555
C12 N1 1_555 1_555
C13 C14 1_555 1_555
C19 N1 1_555 1_555
C20 C21 1_555 1_555
C6B C7B 1_555 1_555
C12B N1B 1_555 1_555
C13B C14B 1_555 1_555
C19B N1B 1_555 1_555
C20B C21B 1_555 1_555

#END
