
#######################################################################
#
#                 Cambridge Crystallographic Data Centre
#                                CCDC 
#
#######################################################################
#
# If this CIF has been generated from an entry in the Cambridge 
# Structural Database, then it will include bibliographic, chemical, 
# crystal, experimental, refinement or atomic coordinate data resulting 
# from the CCDC's data processing and validation procedures.
#
#######################################################################

data_PUCQUA
_chemical_name_common            'DO-MOF dimethylformamide solvate'
_chemical_formula_moiety         '(C46 H30 N2 O10 Zn2)n,28n(C3 H7 N1 O1)'
_chemical_name_systematic        
"catena-[(\m~8~-4,4',4'',4'''-Benzene-1,2,4,5-tetrayltetrabenzoato)-(\m~2~-1,2-bis(4-pyridyl)ethane-1,2-diol-N,N')-di-zinc(ii) dimethylformamide solvate]"
_symmetry_cell_setting           orthorhombic
_symmetry_space_group_name_H-M   'P m m m'
_symmetry_Int_Tables_number      47
_space_group_name_Hall           '-P 2 2'
loop_
_symmetry_equiv_pos_site_id
_symmetry_equiv_pos_as_xyz
1 x,y,z
2 -x,-y,z
3 -x,y,-z
4 x,-y,-z
5 -x,-y,-z
6 x,y,-z
7 x,-y,z
8 -x,y,z
_cell_length_a                   11.3014(11)
_cell_length_b                   15.7553(13)
_cell_length_c                   15.7553(13)
_cell_angle_alpha                90
_cell_angle_beta                 90
_cell_angle_gamma                90
_cell_volume                     2805.34
_exptl_crystal_colour            colorless
_exptl_crystal_description       tabular
_cell_formula_units_Z            1
loop_
_atom_site_label
_atom_site_type_symbol
_atom_site_fract_x
_atom_site_fract_y
_atom_site_fract_z
Zn1 Zn 0.0000 1.0000 0.09233(6)
O1 O 0.1253(4) 0.9112(3) 0.0683(2)
C1 C 0.1517(4) 0.8817(3) 0.0000
C2 C 0.2289(4) 0.8035(3) 0.0000
C3 C 0.3059(7) 0.7884(5) 0.0645(6)
H1 H 0.3120 0.8271 0.1106
C4 C 0.3760(7) 0.7153(4) 0.0624(6)
H2 H 0.4315 0.7064 0.1068
C5 C 0.3681(4) 0.6570(3) 0.0000
C6 C 0.2876(7) 0.6726(5) 0.0690(6)
H3 H 0.2816 0.6338 0.1149
C7 C 0.2188(7) 0.7459(4) -0.0671(5)
H4 H 0.1644 0.7568 -0.1118
C8 C 0.4397(4) 0.5765(3) 0.0000
C9 C 0.3793(7) 0.5000 0.0000
H5 H 0.2952 0.5000 0.0000
N1 N 0.0000 1.0218(3) 0.2209(5)
C10 C 0.1000(4) 1.02853(3) 0.2685(6)
H6 H 0.1740 1.0258 0.2401
C11 C 0.1007(6) 1.0389(5) 0.3542(6)
H7 H 0.1746 1.0449 0.3823
C12 C 0.0000 1.0410(4) 0.4015(2)
C13 C 0.0000 1.0440(3) 0.4877(2)
H8 H 0.0757 1.0705 0.5071
O2 O -0.093(3) 1.103(2) 0.5000
H9 H -0.1283 1.1106 0.4538
Zn1B Zn 0.0000 1.0000 -0.09233(6)
Zn1B_2 Zn 0.0000 0.0000 -0.09233(6)
Zn1_2 Zn 0.0000 0.0000 0.09233(6)
Zn1_3 Zn 1.0000 0.0000 0.09233(6)
Zn1B_3 Zn 1.0000 0.0000 -0.09233(6)
Zn1B_4 Zn 1.0000 1.0000 -0.09233(6)
Zn1_4 Zn 1.0000 1.0000 0.09233(6)
Zn1B_5 Zn 0.0000 1.0000 0.90767(6)
O1E O 0.1253(4) 0.9112(3) -0.0683(2)
O1C O 0.1253(4) 0.0888(3) -0.0683(2)
O1F O 0.1253(4) 0.0888(3) 0.0683(2)
O1A O 0.8747(4) 0.0888(3) 0.0683(2)
O1D O 0.8747(4) 0.0888(3) -0.0683(2)
O1B O 0.8747(4) 0.9112(3) -0.0683(2)
O1G O 0.8747(4) 0.9112(3) 0.0683(2)
O1A_2 O -0.1253(4) 1.0888(3) 0.0683(2)
O1F_2 O 0.1253(4) 1.0888(3) 0.0683(2)
O1G_2 O -0.1253(4) 0.9112(3) 0.0683(2)
O1D_2 O -0.1253(4) 1.0888(3) -0.0683(2)
O1C_2 O 0.1253(4) 1.0888(3) -0.0683(2)
O1B_2 O -0.1253(4) 0.9112(3) -0.0683(2)
C1C C 0.1517(4) 0.1183(3) 0.0000
C1A C 0.8483(4) 0.1183(3) 0.0000
C1B C 0.8483(4) 0.8817(3) 0.0000
C2C C 0.2289(4) 0.1965(3) 0.0000
C2A C 0.7711(4) 0.1965(3) 0.0000
C2B C 0.7711(4) 0.8035(3) 0.0000
C3E C 0.3059(7) 0.7884(5) -0.0645(6)
C3C C 0.3059(7) 0.2116(5) -0.0645(6)
C3F C 0.3059(7) 0.2116(5) 0.0645(6)
C3A C 0.6941(7) 0.2116(5) 0.0645(6)
C3D C 0.6941(7) 0.2116(5) -0.0645(6)
C3B C 0.6941(7) 0.7884(5) -0.0645(6)
C3G C 0.6941(7) 0.7884(5) 0.0645(6)
H1E H 0.3120 0.8271 -0.1106
H1C H 0.3120 0.1729 -0.1106
H1F H 0.3120 0.1729 0.1106
H1A H 0.6880 0.1729 0.1106
H1D H 0.6880 0.1729 -0.1106
H1B H 0.6880 0.8271 -0.1106
H1G H 0.6880 0.8271 0.1106
C4E C 0.3760(7) 0.7153(4) -0.0624(6)
C4C C 0.3760(7) 0.2847(4) -0.0624(6)
C4F C 0.3760(7) 0.2847(4) 0.0624(6)
C4A C 0.6240(7) 0.2847(4) 0.0624(6)
C4D C 0.6240(7) 0.2847(4) -0.0624(6)
C4B C 0.6240(7) 0.7153(4) -0.0624(6)
C4G C 0.6240(7) 0.7153(4) 0.0624(6)
H2E H 0.4315 0.7064 -0.1068
H2C H 0.4315 0.2936 -0.1068
H2F H 0.4315 0.2936 0.1068
H2A H 0.5685 0.2936 0.1068
H2D H 0.5685 0.2936 -0.1068
H2B H 0.5685 0.7064 -0.1068
H2G H 0.5685 0.7064 0.1068
C5C C 0.3681(4) 0.3430(3) 0.0000
C5A C 0.6319(4) 0.3430(3) 0.0000
C5B C 0.6319(4) 0.6570(3) 0.0000
C6E C 0.2876(7) 0.6726(5) -0.0690(6)
C6C C 0.2876(7) 0.3274(5) -0.0690(6)
C6F C 0.2876(7) 0.3274(5) 0.0690(6)
C6A C 0.7124(7) 0.3274(5) 0.0690(6)
C6D C 0.7124(7) 0.3274(5) -0.0690(6)
C6B C 0.7124(7) 0.6726(5) -0.0690(6)
C6G C 0.7124(7) 0.6726(5) 0.0690(6)
H3F H 0.2816 0.3662 0.1149
H3C H 0.2816 0.3662 -0.1149
H3D H 0.7184 0.3662 -0.1149
H3A H 0.7184 0.3662 0.1149
H3G H 0.7184 0.6338 0.1149
H3B H 0.7184 0.6338 -0.1149
H3E H 0.2816 0.6338 -0.1149
C7E C 0.2188(7) 0.7459(4) 0.0671(5)
C7C C 0.2188(7) 0.2541(4) 0.0671(5)
C7F C 0.2188(7) 0.2541(4) -0.0671(5)
C7A C 0.7812(7) 0.2541(4) -0.0671(5)
C7D C 0.7812(7) 0.2541(4) 0.0671(5)
C7B C 0.7812(7) 0.7459(4) 0.0671(5)
C7G C 0.7812(7) 0.7459(4) -0.0671(5)
H4E H 0.1644 0.7568 0.1118
H4C H 0.1644 0.2432 0.1118
H4F H 0.1644 0.2432 -0.1118
H4A H 0.8356 0.2432 -0.1118
H4D H 0.8356 0.2432 0.1118
H4B H 0.8356 0.7568 0.1118
H4G H 0.8356 0.7568 -0.1118
C8C C 0.4397(4) 0.4235(3) 0.0000
C8A C 0.5603(4) 0.4235(3) 0.0000
C8B C 0.5603(4) 0.5765(3) 0.0000
C9A C 0.6207(7) 0.5000 0.0000
H5A H 0.7048 0.5000 0.0000
N1A N 0.0000 0.9782(3) 0.2209(5)
N1C N 0.0000 0.9782(3) 0.7791(5)
N1B N 0.0000 1.0218(3) 0.7791(5)
N1B_2 N 0.0000 1.0218(3) -0.2209(5)
N1C_2 N 0.0000 0.9782(3) -0.2209(5)
C10A C -0.1000(4) 0.97147(3) 0.2685(6)
C10G C -0.1000(4) 1.02853(3) 0.2685(6)
C10F C 0.1000(4) 0.97147(3) 0.2685(6)
C10C C 0.1000(4) 0.97147(3) 0.7315(6)
C10B C -0.1000(4) 1.02853(3) 0.7315(6)
C10E C 0.1000(4) 1.02853(3) 0.7315(6)
C10D C -0.1000(4) 0.97147(3) 0.7315(6)
H6F H 0.1740 0.9742 0.2401
H6G H -0.1740 1.0258 0.2401
H6A H -0.1740 0.9742 0.2401
H6C H 0.1740 0.9742 0.7599
H6E H 0.1740 1.0258 0.7599
H6B H -0.1740 1.0258 0.7599
H6D H -0.1740 0.9742 0.7599
C11F C 0.1007(6) 0.9611(5) 0.3542(6)
C11G C -0.1007(6) 1.0389(5) 0.3542(6)
C11A C -0.1007(6) 0.9611(5) 0.3542(6)
C11C C 0.1007(6) 0.9611(5) 0.6458(6)
C11E C 0.1007(6) 1.0389(5) 0.6458(6)
C11B C -0.1007(6) 1.0389(5) 0.6458(6)
C11D C -0.1007(6) 0.9611(5) 0.6458(6)
H7A H -0.1746 0.9551 0.3823
H7F H 0.1746 0.9551 0.3823
H7C H 0.1746 0.9551 0.6177
H7E H 0.1746 1.0449 0.6177
H7B H -0.1746 1.0449 0.6177
H7D H -0.1746 0.9551 0.6177
H7G H -0.1746 1.0449 0.3823
C12A C 0.0000 0.9590(4) 0.4015(2)
C12C C 0.0000 0.9590(4) 0.5985(2)
C12B C 0.0000 1.0410(4) 0.5985(2)
C13A C 0.0000 0.9560(3) 0.4877(2)
C13C C 0.0000 0.9560(3) 0.5123(2)
C13B C 0.0000 1.0440(3) 0.5123(2)
H8E H 0.0757 1.0705 0.4929
H8G H -0.0757 1.0705 0.5071
H8B H -0.0757 1.0705 0.4929
H8A H -0.0757 0.9295 0.5071
H8C H 0.0757 0.9295 0.4929
H8D H -0.0757 0.9295 0.4929
H8F H 0.0757 0.9295 0.5071
O2B O 0.093(3) 1.103(2) 0.5000
O2A O 0.093(3) 0.897(2) 0.5000
O2C O -0.093(3) 0.897(2) 0.5000
H9A H 0.1283 0.8894 0.4538
H9D H 0.1283 0.8894 0.5462
H9C H -0.1283 0.8894 0.5462
H9F H -0.1283 0.8894 0.4538
H9G H 0.1283 1.1106 0.4538
H9B H 0.1283 1.1106 0.5462
H9E H -0.1283 1.1106 0.5462
loop_
_geom_bond_atom_site_label_1
_geom_bond_atom_site_label_2
_geom_bond_site_symmetry_1
_geom_bond_site_symmetry_2
Zn1 O1 1_555 1_555
O1 C1 1_555 1_555
C1 C2 1_555 1_555
C2 C3 1_555 1_555
C3 H1 1_555 1_555
C4 C3 1_555 1_555
H2 C4 1_555 1_555
C5 C4 1_555 1_555
C6 C4 1_555 1_555
H3 C6 1_555 1_555
C7 C2 1_555 1_555
H4 C7 1_555 1_555
C8 C5 1_555 1_555
C9 C8 1_555 1_555
H5 C9 1_555 1_555
N1 Zn1 1_555 1_555
C10 N1 1_555 1_555
H6 C10 1_555 1_555
C11 C10 1_555 1_555
H7 C11 1_555 1_555
C12 C11 1_555 1_555
C13 C12 1_555 1_555
H8 C13 1_555 1_555
O2 C13 1_555 1_555
H9 O2 1_555 1_555
Zn1B O1E 1_555 1_555
Zn1B_2 O1C 1_555 1_555
Zn1_2 O1F 1_555 1_555
Zn1_3 O1A 1_555 1_555
Zn1B_3 O1D 1_555 1_555
Zn1B_4 O1B 1_555 1_555
Zn1_4 O1G 1_555 1_555
Zn1B_5 N1C 1_555 1_555
O1E C1 1_555 1_555
O1C C1C 1_555 1_555
O1F C1C 1_555 1_555
O1A C1A 1_555 1_555
O1D C1A 1_555 1_555
O1B C1B 1_555 1_555
O1G C1B 1_555 1_555
O1A_2 Zn1 1_555 1_555
O1F_2 Zn1 1_555 1_555
O1G_2 Zn1 1_555 1_555
O1D_2 Zn1B 1_555 1_555
O1C_2 Zn1B 1_555 1_555
O1B_2 Zn1B 1_555 1_555
C1C C2C 1_555 1_555
C1A C2A 1_555 1_555
C1B C2B 1_555 1_555
C2C C3C 1_555 1_555
C2A C3A 1_555 1_555
C2B C3B 1_555 1_555
C3E C2 1_555 1_555
C3C H1C 1_555 1_555
C3F C2C 1_555 1_555
C3A H1A 1_555 1_555
C3D C2A 1_555 1_555
C3B H1B 1_555 1_555
C3G C2B 1_555 1_555
H1E C3E 1_555 1_555
H1F C3F 1_555 1_555
H1D C3D 1_555 1_555
H1G C3G 1_555 1_555
C4E C5 1_555 1_555
C4C C3C 1_555 1_555
C4F C3F 1_555 1_555
C4A C3A 1_555 1_555
C4D C3D 1_555 1_555
C4B C3B 1_555 1_555
C4G C3G 1_555 1_555
H2E C4E 1_555 1_555
H2C C4C 1_555 1_555
H2F C4F 1_555 1_555
H2A C4A 1_555 1_555
H2D C4D 1_555 1_555
H2B C4B 1_555 1_555
H2G C4G 1_555 1_555
C5C C4C 1_555 1_555
C5A C4A 1_555 1_555
C5B C4B 1_555 1_555
C6E C5 1_555 1_555
C6C C4C 1_555 1_555
C6F C4F 1_555 1_555
C6A C4A 1_555 1_555
C6D C4D 1_555 1_555
C6B C4B 1_555 1_555
C6G C4G 1_555 1_555
H3F C6F 1_555 1_555
H3C C6C 1_555 1_555
H3D C6D 1_555 1_555
H3A C6A 1_555 1_555
H3G C6G 1_555 1_555
H3B C6B 1_555 1_555
H3E C6E 1_555 1_555
C7E C2 1_555 1_555
C7C C2C 1_555 1_555
C7F C2C 1_555 1_555
C7A C2A 1_555 1_555
C7D C2A 1_555 1_555
C7B C2B 1_555 1_555
C7G C2B 1_555 1_555
H4E C7E 1_555 1_555
H4C C7C 1_555 1_555
H4F C7F 1_555 1_555
H4A C7A 1_555 1_555
H4D C7D 1_555 1_555
H4B C7B 1_555 1_555
H4G C7G 1_555 1_555
C8C C9 1_555 1_555
C8A C5A 1_555 1_555
C8B C8 1_555 1_555
C9A C8A 1_555 1_555
H5A C9A 1_555 1_555
N1A Zn1 1_555 1_555
N1C N1B 1_555 1_555
N1B Zn1B_5 1_555 1_555
N1B_2 Zn1B 1_555 1_555
N1C_2 Zn1B 1_555 1_555
C10A N1 1_555 1_555
C10G N1 1_555 1_555
C10F N1 1_555 1_555
C10C N1C 1_555 1_555
C10B N1C 1_555 1_555
C10E N1C 1_555 1_555
C10D N1C 1_555 1_555
H6F C10 1_555 1_555
H6G C10A 1_555 1_555
H6A C10A 1_555 1_555
H6C C10C 1_555 1_555
H6E C10C 1_555 1_555
H6B C10B 1_555 1_555
H6D C10B 1_555 1_555
C11F C10 1_555 1_555
C11G C12 1_555 1_555
C11A C10A 1_555 1_555
C11C C10C 1_555 1_555
C11E C10C 1_555 1_555
C11B C10B 1_555 1_555
C11D C10B 1_555 1_555
H7A C11A 1_555 1_555
H7F C11F 1_555 1_555
H7C C11C 1_555 1_555
H7E C11E 1_555 1_555
H7B C11B 1_555 1_555
H7D C11D 1_555 1_555
H7G C11G 1_555 1_555
C12A C12 1_555 1_555
C12C C11C 1_555 1_555
C12B C13 1_555 1_555
C13A C13 1_555 1_555
C13C C13 1_555 1_555
C13B C12 1_555 1_555
H8E C13 1_555 1_555
H8G C13 1_555 1_555
H8B C13 1_555 1_555
H8A C13A 1_555 1_555
H8C C13A 1_555 1_555
H8D C13A 1_555 1_555
H8F C13A 1_555 1_555
O2B C13 1_555 1_555
O2A C13A 1_555 1_555
O2C C13A 1_555 1_555
H9A O2A 1_555 1_555
H9D O2A 1_555 1_555
H9C O2C 1_555 1_555
H9F O2C 1_555 1_555
H9G O2B 1_555 1_555
H9B O2B 1_555 1_555
H9E O2 1_555 1_555
C3 C7E 1_555 1_555
C5 C6 1_555 1_555
C6 C7E 1_555 1_555
C7 C3E 1_555 1_555
C7 C6E 1_555 1_555
N1 N1A 1_555 1_555
C10 N1A 1_555 1_555
C10 C10F 1_555 1_555
H6 C10F 1_555 1_555
H6 H6F 1_555 1_555
C11 C10F 1_555 1_555
C11 C11F 1_555 1_555
C13 C13B 1_555 1_555
H8 C13B 1_555 1_555
H8 H8E 1_555 1_555
H8 O2B 1_555 1_555
O2 C13B 1_555 1_555
O2 H8G 1_555 1_555
O2 H8B 1_555 1_555
C3E C4E 1_555 1_555
C3C C7F 1_555 1_555
C3F C7C 1_555 1_555
C3A C7D 1_555 1_555
C3D C7A 1_555 1_555
C3B C7G 1_555 1_555
C3G C7B 1_555 1_555
C4E C6E 1_555 1_555
C4F C5C 1_555 1_555
C4D C5A 1_555 1_555
C4G C5B 1_555 1_555
C5C C6C 1_555 1_555
C5C C6F 1_555 1_555
C5C C8C 1_555 1_555
C5A C6A 1_555 1_555
C5A C6D 1_555 1_555
C5B C6B 1_555 1_555
C5B C6G 1_555 1_555
C5B C8B 1_555 1_555
C6C C7F 1_555 1_555
C6F C7C 1_555 1_555
C6A C7D 1_555 1_555
C6D C7A 1_555 1_555
C6B C7G 1_555 1_555
C6G C7B 1_555 1_555
C8C C8A 1_555 1_555
C8B C9A 1_555 1_555
N1A C10A 1_555 1_555
N1A C10G 1_555 1_555
N1A C10F 1_555 1_555
N1B C10C 1_555 1_555
N1B C10B 1_555 1_555
N1B C10E 1_555 1_555
N1B C10D 1_555 1_555
N1B_2 N1C_2 1_555 1_555
C10A C10G 1_555 1_555
C10A C11G 1_555 1_555
C10G H6G 1_555 1_555
C10G H6A 1_555 1_555
C10G C11G 1_555 1_555
C10G C11A 1_555 1_555
C10F H6F 1_555 1_555
C10F C11F 1_555 1_555
C10C C10E 1_555 1_555
C10B C10D 1_555 1_555
C10E H6C 1_555 1_555
C10E H6E 1_555 1_555
C10E C11C 1_555 1_555
C10E C11E 1_555 1_555
C10D H6B 1_555 1_555
C10D H6D 1_555 1_555
C10D C11B 1_555 1_555
C10D C11D 1_555 1_555
H6G H6A 1_555 1_555
H6C H6E 1_555 1_555
H6B H6D 1_555 1_555
C11F C12A 1_555 1_555
C11G C11A 1_555 1_555
C11A C12A 1_555 1_555
C11C C11E 1_555 1_555
C11E C12B 1_555 1_555
C11B C11D 1_555 1_555
C11B C12B 1_555 1_555
C11D C12C 1_555 1_555
C12A C13A 1_555 1_555
C12A C13C 1_555 1_555
C12C C12B 1_555 1_555
C12C C13A 1_555 1_555
C12C C13C 1_555 1_555
C12B C13B 1_555 1_555
C13A C13C 1_555 1_555
C13A C13B 1_555 1_555
C13C C13B 1_555 1_555
C13C H8A 1_555 1_555
C13C H8C 1_555 1_555
C13C H8D 1_555 1_555
C13C H8F 1_555 1_555
C13C O2A 1_555 1_555
C13C O2C 1_555 1_555
C13B H8E 1_555 1_555
C13B H8G 1_555 1_555
C13B H8B 1_555 1_555
C13B O2B 1_555 1_555
H8E O2B 1_555 1_555
H8G H8B 1_555 1_555
H8A H8D 1_555 1_555
H8A O2C 1_555 1_555
H8C H8F 1_555 1_555
H8C O2A 1_555 1_555
H8D O2C 1_555 1_555
H8F O2A 1_555 1_555

#END
