
#######################################################################
#
#                 Cambridge Crystallographic Data Centre
#                                CCDC 
#
#######################################################################
#
# If this CIF has been generated from an entry in the Cambridge 
# Structural Database, then it will include bibliographic, chemical, 
# crystal, experimental, refinement or atomic coordinate data resulting 
# from the CCDC's data processing and validation procedures.
#
#######################################################################

data_PEYYUO
_chemical_formula_moiety         '(C32 H24 Cu2 N2 O8)n,1.72n(Kr1)'
_chemical_name_systematic        
"catena-(tetrakis(\m~2~-Benzoato-O,O')-(\m~2~-pyrazine)-di-copper(ii) krypton clathrate)"
_symmetry_cell_setting           monoclinic
_symmetry_space_group_name_H-M   'C 2/c'
_symmetry_Int_Tables_number      15
_space_group_name_Hall           '-C 2yc'
loop_
_symmetry_equiv_pos_site_id
_symmetry_equiv_pos_as_xyz
1 x,y,z
2 1/2+x,1/2+y,z
3 -x,y,1/2-z
4 1/2-x,1/2+y,1/2-z
5 -x,-y,-z
6 1/2-x,1/2-y,-z
7 x,-y,1/2+z
8 1/2+x,1/2-y,1/2+z
_cell_length_a                   18.631(3)
_cell_length_b                   9.7039(13)
_cell_length_c                   19.276(3)
_cell_angle_alpha                90
_cell_angle_beta                 99.002(3)
_cell_angle_gamma                90
_cell_volume                     3442.05
_exptl_crystal_colour            blue
_exptl_crystal_description       plate
_cell_formula_units_Z            4
loop_
_atom_site_label
_atom_site_type_symbol
_atom_site_fract_x
_atom_site_fract_y
_atom_site_fract_z
C1 C 0.6241(5) 0.7706(9) 0.7114(5)
C2 C 0.6975(5) 0.7699(9) 0.6915(5)
C3 C 0.7379(5) 0.8888(9) 0.6942(5)
H1 H 0.7193 0.9702 0.7097
C4 C 0.8055(6) 0.8882(10) 0.6742(5)
H2 H 0.8324 0.9693 0.6762
C5 C 0.8331(6) 0.7715(11) 0.6516(6)
H3 H 0.8783 0.7727 0.6369
C6 C 0.7948(6) 0.6513(11) 0.6503(6)
H4 H 0.8149 0.5700 0.6363
C7 C 0.7260(6) 0.6500(10) 0.6698(5)
H5 H 0.6995 0.5684 0.6681
C8 C 0.4358(5) 0.7793(9) 0.6240(5)
C9 C 0.3955(5) 0.7817(10) 0.5518(5)
C10 C 0.3936(6) 0.8995(10) 0.5113(6)
H6 H 0.4177 0.9782 0.5300
C11 C 0.3562(6) 0.9023(11) 0.4431(6)
H7 H 0.3556 0.9826 0.4167
C12 C 0.3205(6) 0.7882(12) 0.4147(6)
H8 H 0.2960 0.7889 0.3687
C13 C 0.3215(6) 0.6749(11) 0.4546(6)
H9 H 0.2947 0.5985 0.4366
C14 C 0.3609(6) 0.6675(10) 0.5217(6)
H10 H 0.3638 0.5847 0.5462
C15 C 0.5296(4) 0.3466(7) 0.7031(4)
H11 H 0.5507 0.3928 0.6691
C16 C 0.5296(4) 0.2043(8) 0.7039(4)
H12 H 0.5512 0.1572 0.6706
Cu1 Cu 0.5000 0.64226(12) 0.7500
Cu2 Cu 0.5000 -0.09134(12) 0.7500
N1 N 0.5000 0.4187(8) 0.7500
N2 N 0.5000 0.1330(8) 0.7500
O1 O 0.5912(3) 0.6575(5) 0.7129(3)
O2 O 0.5979(3) 0.8854(5) 0.7256(3)
O3 O 0.4449(3) 0.6651(5) 0.6549(3)
O4 O 0.4583(3) 0.8932(5) 0.6513(3)
C1B C 0.3759(5) 0.7706(9) 0.7886(5)
C2B C 0.3025(5) 0.7699(9) 0.8085(5)
C3B C 0.2621(5) 0.8888(9) 0.8058(5)
H1B H 0.2807 0.9702 0.7903
C4B C 0.1945(6) 0.8882(10) 0.8258(5)
H2B H 0.1676 0.9693 0.8238
C5B C 0.1669(6) 0.7715(11) 0.8484(6)
H3B H 0.1217 0.7727 0.8631
C6B C 0.2052(6) 0.6513(11) 0.8497(6)
H4B H 0.1851 0.5700 0.8637
C7B C 0.2740(6) 0.6500(10) 0.8302(5)
H5B H 0.3005 0.5684 0.8319
C8B C 0.5642(5) 0.7793(9) 0.8760(5)
C9B C 0.6045(5) 0.7817(10) 0.9482(5)
C10B C 0.6064(6) 0.8995(10) 0.9887(6)
H6B H 0.5823 0.9782 0.9700
C11B C 0.6438(6) 0.9023(11) 1.0569(6)
H7B H 0.6444 0.9826 1.0833
C12B C 0.6795(6) 0.7882(12) 1.0853(6)
H8B H 0.7040 0.7889 1.1313
C13B C 0.6785(6) 0.6749(11) 1.0454(6)
H9B H 0.7053 0.5985 1.0634
C14B C 0.6391(6) 0.6675(10) 0.9783(6)
H10B H 0.6362 0.5847 0.9538
C15B C 0.4704(4) 0.3466(7) 0.7969(4)
H11B H 0.4493 0.3928 0.8309
C16B C 0.4704(4) 0.2043(8) 0.7961(4)
H12B H 0.4488 0.1572 0.8294
Cu1_2 Cu 0.5000 -0.35774(12) 0.7500
Cu2_2 Cu 0.5000 0.90866(12) 0.7500
O1B O 0.4088(3) 0.6575(5) 0.7871(3)
O2B O 0.4021(3) 0.8854(5) 0.7744(3)
O2_2 O 0.5979(3) -0.1146(5) 0.7256(3)
O2B_2 O 0.4021(3) -0.1146(5) 0.7744(3)
O3B O 0.5551(3) 0.6651(5) 0.8451(3)
O4B O 0.5417(3) 0.8932(5) 0.8487(3)
O4_2 O 0.4583(3) -0.1068(5) 0.6513(3)
O4B_2 O 0.5417(3) -0.1068(5) 0.8487(3)
Kr1 Kr 0.57266(12) 0.6909(2) 0.51288(11)
loop_
_geom_bond_atom_site_label_1
_geom_bond_atom_site_label_2
_geom_bond_site_symmetry_1
_geom_bond_site_symmetry_2
C1 C2 1_555 1_555
C2 C3 1_555 1_555
C3 H1 1_555 1_555
C4 C3 1_555 1_555
H2 C4 1_555 1_555
C5 C4 1_555 1_555
H3 C5 1_555 1_555
C6 C5 1_555 1_555
H4 C6 1_555 1_555
C7 C2 1_555 1_555
H5 C7 1_555 1_555
C8 C9 1_555 1_555
C9 C10 1_555 1_555
C10 H6 1_555 1_555
C11 C10 1_555 1_555
H7 C11 1_555 1_555
C12 C11 1_555 1_555
H8 C12 1_555 1_555
C13 C12 1_555 1_555
H9 C13 1_555 1_555
C14 C9 1_555 1_555
H10 C14 1_555 1_555
C15 H11 1_555 1_555
C16 C15 1_555 1_555
H12 C16 1_555 1_555
Cu1 N1 1_555 1_555
Cu2 N2 1_555 1_555
N1 C15 1_555 1_555
N2 C16 1_555 1_555
O1 C1 1_555 1_555
O2 C1 1_555 1_555
O3 C8 1_555 1_555
O4 C8 1_555 1_555
C1B C2B 1_555 1_555
C2B C3B 1_555 1_555
C3B H1B 1_555 1_555
C4B C3B 1_555 1_555
H2B C4B 1_555 1_555
C5B C4B 1_555 1_555
H3B C5B 1_555 1_555
C6B C5B 1_555 1_555
H4B C6B 1_555 1_555
C7B C2B 1_555 1_555
H5B C7B 1_555 1_555
C8B C9B 1_555 1_555
C9B C10B 1_555 1_555
C10B H6B 1_555 1_555
C11B C10B 1_555 1_555
H7B C11B 1_555 1_555
C12B C11B 1_555 1_555
H8B C12B 1_555 1_555
C13B C12B 1_555 1_555
H9B C13B 1_555 1_555
C14B C9B 1_555 1_555
H10B C14B 1_555 1_555
C15B N1 1_555 1_555
H11B C15B 1_555 1_555
C16B N2 1_555 1_555
H12B C16B 1_555 1_555
Cu1_2 Cu2 1_555 1_555
Cu2_2 Cu1 1_555 1_555
O1B Cu1 1_555 1_555
O2B C1B 1_555 1_555
O2_2 Cu2 1_555 1_555
O2B_2 Cu2 1_555 1_555
O3B Cu1 1_555 1_555
O4B C8B 1_555 1_555
O4_2 Cu2 1_555 1_555
O4B_2 Cu2 1_555 1_555
C6 C7 1_555 1_555
C13 C14 1_555 1_555
Cu1 O1 1_555 1_555
Cu1 O3 1_555 1_555
O2 Cu2_2 1_555 1_555
O4 Cu2_2 1_555 1_555
C1B O1B 1_555 1_555
C6B C7B 1_555 1_555
C8B O3B 1_555 1_555
C13B C14B 1_555 1_555
C15B C16B 1_555 1_555
Cu2_2 O2B 1_555 1_555
Cu2_2 O4B 1_555 1_555

#END
