
#######################################################################
#
#                 Cambridge Crystallographic Data Centre
#                                CCDC 
#
#######################################################################
#
# If this CIF has been generated from an entry in the Cambridge 
# Structural Database, then it will include bibliographic, chemical, 
# crystal, experimental, refinement or atomic coordinate data resulting 
# from the CCDC's data processing and validation procedures.
#
#######################################################################

data_SONTUL
_chemical_formula_moiety         
'(C4 H12 N1 1+)2n,n(H2 O40 Si1 W12 2-),n(C72 H48 Cu12 O60),30n(H2 O1)'
_chemical_name_systematic        
'catena-(dodecakis(tetramethylammonium) (\m~12~-silicato)-bis(\m~2~-hydroxo)-docosakis(\m~2~-oxo)-dodecaoxo-dodeca-tungsten octakis(\m~6~-benzene-1,3,5-tricarboxylato)-dodecaaqua-dodeca-copper hydrate)'
_symmetry_cell_setting           cubic
_symmetry_space_group_name_H-M   'F m -3 m'
_symmetry_Int_Tables_number      225
_space_group_name_Hall           '-F 4 2 3'
loop_
_symmetry_equiv_pos_site_id
_symmetry_equiv_pos_as_xyz
1 x,y,z
2 -y,x,z
3 x,-y,-z
4 z,x,y
5 -x,-y,z
6 y,x,-z
7 -x,z,y
8 y,-x,z
9 -x,y,-z
10 -z,-x,y
11 -y,-x,-z
12 x,-z,y
13 z,-x,-y
14 -x,-z,-y
15 -z,x,-y
16 x,z,-y
17 y,z,x
18 z,-y,x
19 -z,y,x
20 z,y,-x
21 y,-z,-x
22 -z,-y,-x
23 -y,z,-x
24 -y,-z,x
25 x,1/2+y,1/2+z
26 -y,1/2+x,1/2+z
27 x,1/2-y,1/2-z
28 z,1/2+x,1/2+y
29 -x,1/2-y,1/2+z
30 y,1/2+x,1/2-z
31 -x,1/2+z,1/2+y
32 y,1/2-x,1/2+z
33 -x,1/2+y,1/2-z
34 -z,1/2-x,1/2+y
35 -y,1/2-x,1/2-z
36 x,1/2-z,1/2+y
37 z,1/2-x,1/2-y
38 -x,1/2-z,1/2-y
39 -z,1/2+x,1/2-y
40 x,1/2+z,1/2-y
41 y,1/2+z,1/2+x
42 z,1/2-y,1/2+x
43 -z,1/2+y,1/2+x
44 z,1/2+y,1/2-x
45 y,1/2-z,1/2-x
46 -z,1/2-y,1/2-x
47 -y,1/2+z,1/2-x
48 -y,1/2-z,1/2+x
49 1/2+x,y,1/2+z
50 1/2-y,x,1/2+z
51 1/2+x,-y,1/2-z
52 1/2+z,x,1/2+y
53 1/2-x,-y,1/2+z
54 1/2+y,x,1/2-z
55 1/2-x,z,1/2+y
56 1/2+y,-x,1/2+z
57 1/2-x,y,1/2-z
58 1/2-z,-x,1/2+y
59 1/2-y,-x,1/2-z
60 1/2+x,-z,1/2+y
61 1/2+z,-x,1/2-y
62 1/2-x,-z,1/2-y
63 1/2-z,x,1/2-y
64 1/2+x,z,1/2-y
65 1/2+y,z,1/2+x
66 1/2+z,-y,1/2+x
67 1/2-z,y,1/2+x
68 1/2+z,y,1/2-x
69 1/2+y,-z,1/2-x
70 1/2-z,-y,1/2-x
71 1/2-y,z,1/2-x
72 1/2-y,-z,1/2+x
73 1/2+x,1/2+y,z
74 1/2-y,1/2+x,z
75 1/2+x,1/2-y,-z
76 1/2+z,1/2+x,y
77 1/2-x,1/2-y,z
78 1/2+y,1/2+x,-z
79 1/2-x,1/2+z,y
80 1/2+y,1/2-x,z
81 1/2-x,1/2+y,-z
82 1/2-z,1/2-x,y
83 1/2-y,1/2-x,-z
84 1/2+x,1/2-z,y
85 1/2+z,1/2-x,-y
86 1/2-x,1/2-z,-y
87 1/2-z,1/2+x,-y
88 1/2+x,1/2+z,-y
89 1/2+y,1/2+z,x
90 1/2+z,1/2-y,x
91 1/2-z,1/2+y,x
92 1/2+z,1/2+y,-x
93 1/2+y,1/2-z,-x
94 1/2-z,1/2-y,-x
95 1/2-y,1/2+z,-x
96 1/2-y,1/2-z,x
97 -x,-y,-z
98 y,-x,-z
99 -x,y,z
100 -z,-x,-y
101 x,y,-z
102 -y,-x,z
103 x,-z,-y
104 -y,x,-z
105 x,-y,z
106 z,x,-y
107 y,x,z
108 -x,z,-y
109 -z,x,y
110 x,z,y
111 z,-x,y
112 -x,-z,y
113 -y,-z,-x
114 -z,y,-x
115 z,-y,-x
116 -z,-y,x
117 -y,z,x
118 z,y,x
119 y,-z,x
120 y,z,-x
121 -x,1/2-y,1/2-z
122 y,1/2-x,1/2-z
123 -x,1/2+y,1/2+z
124 -z,1/2-x,1/2-y
125 x,1/2+y,1/2-z
126 -y,1/2-x,1/2+z
127 x,1/2-z,1/2-y
128 -y,1/2+x,1/2-z
129 x,1/2-y,1/2+z
130 z,1/2+x,1/2-y
131 y,1/2+x,1/2+z
132 -x,1/2+z,1/2-y
133 -z,1/2+x,1/2+y
134 x,1/2+z,1/2+y
135 z,1/2-x,1/2+y
136 -x,1/2-z,1/2+y
137 -y,1/2-z,1/2-x
138 -z,1/2+y,1/2-x
139 z,1/2-y,1/2-x
140 -z,1/2-y,1/2+x
141 -y,1/2+z,1/2+x
142 z,1/2+y,1/2+x
143 y,1/2-z,1/2+x
144 y,1/2+z,1/2-x
145 1/2-x,-y,1/2-z
146 1/2+y,-x,1/2-z
147 1/2-x,y,1/2+z
148 1/2-z,-x,1/2-y
149 1/2+x,y,1/2-z
150 1/2-y,-x,1/2+z
151 1/2+x,-z,1/2-y
152 1/2-y,x,1/2-z
153 1/2+x,-y,1/2+z
154 1/2+z,x,1/2-y
155 1/2+y,x,1/2+z
156 1/2-x,z,1/2-y
157 1/2-z,x,1/2+y
158 1/2+x,z,1/2+y
159 1/2+z,-x,1/2+y
160 1/2-x,-z,1/2+y
161 1/2-y,-z,1/2-x
162 1/2-z,y,1/2-x
163 1/2+z,-y,1/2-x
164 1/2-z,-y,1/2+x
165 1/2-y,z,1/2+x
166 1/2+z,y,1/2+x
167 1/2+y,-z,1/2+x
168 1/2+y,z,1/2-x
169 1/2-x,1/2-y,-z
170 1/2+y,1/2-x,-z
171 1/2-x,1/2+y,z
172 1/2-z,1/2-x,-y
173 1/2+x,1/2+y,-z
174 1/2-y,1/2-x,z
175 1/2+x,1/2-z,-y
176 1/2-y,1/2+x,-z
177 1/2+x,1/2-y,z
178 1/2+z,1/2+x,-y
179 1/2+y,1/2+x,z
180 1/2-x,1/2+z,-y
181 1/2-z,1/2+x,y
182 1/2+x,1/2+z,y
183 1/2+z,1/2-x,y
184 1/2-x,1/2-z,y
185 1/2-y,1/2-z,-x
186 1/2-z,1/2+y,-x
187 1/2+z,1/2-y,-x
188 1/2-z,1/2-y,x
189 1/2-y,1/2+z,x
190 1/2+z,1/2+y,x
191 1/2+y,1/2-z,x
192 1/2+y,1/2+z,-x
_cell_length_a                   26.3044(8)
_cell_length_b                   26.3044(8)
_cell_length_c                   26.3044(8)
_cell_angle_alpha                90
_cell_angle_beta                 90
_cell_angle_gamma                90
_cell_volume                     18200.6
_exptl_crystal_colour            blue
_cell_formula_units_Z            4
loop_
_atom_site_label
_atom_site_type_symbol
_atom_site_fract_x
_atom_site_fract_y
_atom_site_fract_z
Si1 Si 0.0000 0.5000 0.5000
W1 W 0.0000 0.405210(12) 0.594790(12)
O1 O -0.0496(2) 0.3798(3) 0.5496(2)
O2 O 0.0000 0.3602(2) 0.6398(2)
O3 O 0.0361(4) 0.4639(4) 0.5361(4)
W1NB W -0.094790(12) 0.405210(12) 0.5000
W1UB W 0.094790(12) 0.5000 0.594790(12)
W1OB W 0.094790(12) 0.405210(12) 0.5000
O1M O 0.0496(2) 0.4504(2) 0.6202(3)
O1OB O 0.0496(2) 0.3798(3) 0.5496(2)
O1HC O -0.0496(2) 0.4504(2) 0.6202(3)
O3B O 0.0361(4) 0.5361(4) 0.4639(4)
O3D O -0.0361(4) 0.5361(4) 0.5361(4)
O3F O -0.0361(4) 0.5361(4) 0.4639(4)
O3H O -0.0361(4) 0.4639(4) 0.4639(4)
O3K O 0.0361(4) 0.4639(4) 0.4639(4)
O3M O -0.0361(4) 0.4639(4) 0.5361(4)
O3O O 0.0361(4) 0.5361(4) 0.5361(4)
N1 N 0.2500 0.7500 0.2500
C4 C 0.2819(3) 0.71819(18) 0.28181(18)
C4Z C 0.2819(3) 0.78181(18) 0.21819(18)
C4DB C 0.2181(3) 0.71819(18) 0.21819(18)
C4XB C 0.2181(3) 0.78181(18) 0.28181(18)
O6 O 0.2529(8) 0.5000 0.0750(7)
Cu1 Cu 0.0000 0.28514(3) 0.21486(3)
C1 C 0.06810(18) 0.29746(18) 0.2975(3)
C2 C 0.1335(3) 0.30160(19) 0.36650(19)
H1 H 0.1189 0.2729 0.3811
C3 C 0.11180(18) 0.32300(18) 0.3230(3)
O4 O 0.05238(13) 0.31702(13) 0.25663(13)
O5 O 0.0000(3) 0.3441(3) 0.1559
C2CC C 0.13350(19) 0.3665(3) 0.30160(19)
C3RB C 0.17700(18) 0.3230(3) 0.38820(18)
O4KA O -0.05238(13) 0.24337(13) 0.18298(13)
O4TC O -0.05238(13) 0.31702(13) 0.25663(13)
O4VD O 0.05238(13) 0.24337(13) 0.18298(13)
O4ED O 0.05238(13) 0.25663(13) 0.31702(13)
loop_
_geom_bond_atom_site_label_1
_geom_bond_atom_site_label_2
_geom_bond_site_symmetry_1
_geom_bond_site_symmetry_2
Cu1 O4 1_555 1_555
Si1 O3 1_555 1_555
W1 O1 1_555 1_555
N1 C4 1_555 1_555
C1 C3 1_555 1_555
C2 H1 1_555 1_555
C3 C2 1_555 1_555
O1 W1NB 1_555 1_555
O2 W1 1_555 1_555
O3 W1 1_555 1_555
O4 C1 1_555 1_555
O5 Cu1 1_555 1_555
W1NB O3H 1_555 1_555
W1UB O3 1_555 1_555
W1OB O3 1_555 1_555
C2CC C3 1_555 1_555
C3RB C2 1_555 1_555
C4Z N1 1_555 1_555
C4DB N1 1_555 1_555
C4XB N1 1_555 1_555
O1M W1 1_555 1_555
O1OB W1 1_555 1_555
O1HC W1 1_555 1_555
O3B Si1 1_555 1_555
O3D Si1 1_555 1_555
O3F Si1 1_555 1_555
O3H Si1 1_555 1_555
O3K Si1 1_555 1_555
O3M Si1 1_555 1_555
O3O Si1 1_555 1_555
O4KA Cu1 1_555 1_555
O4TC Cu1 1_555 1_555
O4VD Cu1 1_555 1_555
O4ED C1 1_555 1_555
W1 O3M 1_555 1_555
W1NB O3M 1_555 1_555
W1UB O1M 1_555 1_555
W1UB O3O 1_555 1_555
W1OB O1OB 1_555 1_555
W1OB O3K 1_555 1_555

#END
