
#######################################################################
#
#                 Cambridge Crystallographic Data Centre
#                                CCDC 
#
#######################################################################
#
# If this CIF has been generated from an entry in the Cambridge 
# Structural Database, then it will include bibliographic, chemical, 
# crystal, experimental, refinement or atomic coordinate data resulting 
# from the CCDC's data processing and validation procedures.
#
#######################################################################

data_GIKPIB
_chemical_formula_moiety         
'(C22 H18 Cu1 F6 N6 O2 Si1)n,12n(H2 O1),2n(C2 H6 O1)'
_chemical_name_systematic        
'catena-(bis(\m~2~-N-(pyridin-4-yl)isonicotinamide)-(\m~2~-hexafluorosilicate)-copper ethanol solvate dodecahydrate)'
_symmetry_cell_setting           tetragonal
_symmetry_space_group_name_H-M   'P 4/n c c'
_symmetry_Int_Tables_number      130
_space_group_name_Hall           '-P 4a 2ac'
loop_
_symmetry_equiv_pos_site_id
_symmetry_equiv_pos_as_xyz
1 x,y,z
2 1/2-x,1/2-y,z
3 1/2+x,-y,1/2-z
4 -x,1/2+y,1/2-z
5 -y,-x,1/2-z
6 1/2+y,1/2+x,1/2-z
7 y,1/2-x,z
8 1/2-y,x,z
9 -x,-y,-z
10 1/2+x,1/2+y,-z
11 1/2-x,y,1/2+z
12 x,1/2-y,1/2+z
13 y,x,1/2+z
14 1/2-y,1/2-x,1/2+z
15 -y,1/2+x,-z
16 1/2+y,-x,-z
_cell_length_a                   18.2679(3)
_cell_length_b                   18.2679(3)
_cell_length_c                   15.9522(5)
_cell_angle_alpha                90
_cell_angle_beta                 90
_cell_angle_gamma                90
_cell_volume                     5323.51
_cell_formula_units_Z            4
loop_
_atom_site_label
_atom_site_type_symbol
_atom_site_fract_x
_atom_site_fract_y
_atom_site_fract_z
Cu1 Cu 0.2500 0.2500 0.69252(6)
Si1 Si 0.2500 0.2500 0.44546(13)
F1 F 0.2500 0.2500 0.5518(3)
F2 F 0.2500 0.2500 0.3398(3)
N1 N 0.31048(19) 0.34192(19) 0.69538(19)
C1 C 0.3492(3) 0.4496(3) 0.7672(4)
H1 H 0.3427 0.4816 0.8119
C2 C 0.4019(3) 0.4616(3) 0.7104(4)
C3 C 0.3046(2) 0.3889(2) 0.7585(3)
H2 H 0.2687 0.3806 0.7987
C4 C 0.3602(2) 0.3566(2) 0.6369(3)
H3 H 0.3636 0.3258 0.5906
C5 C 0.4066(3) 0.4151(3) 0.6419(4)
H4 H 0.4409 0.4235 0.5999
F3 F 0.1772(3) 0.1946(3) 0.4448(3)
O1 O 0.4642(6) 0.5599(6) 0.6297(5)
C6 C 0.4535(3) 0.5233(3) 0.7134(5)
H5 H 0.4695 0.5455 0.6642
F3A F 0.3228(3) 0.3054(3) 0.4448(3)
F3F F 0.1946(3) 0.3228(3) 0.4448(3)
F3G F 0.3054(3) 0.1772(3) 0.4448(3)
N1D N 0.65808(19) 0.68952(19) 0.80462(19)
C1D C 0.5504(3) 0.6508(3) 0.7328(4)
H1D H 0.5184 0.6573 0.6881
C2D C 0.5384(3) 0.5981(3) 0.7896(4)
C3D C 0.6111(2) 0.6954(2) 0.7415(3)
H2D H 0.6194 0.7313 0.7013
C4D C 0.6434(2) 0.6398(2) 0.8631(3)
H3D H 0.6742 0.6364 0.9094
C5D C 0.5849(3) 0.5934(3) 0.8581(4)
H4D H 0.5765 0.5591 0.9001
O1D O 0.4401(6) 0.5358(6) 0.8703(5)
C6D C 0.4767(3) 0.5465(3) 0.7866(5)
H5D H 0.4545 0.5305 0.8358
N1A N 0.18952(19) 0.15808(19) 0.69538(19)
C1A C 0.1508(3) 0.0504(3) 0.7672(4)
H1A H 0.1573 0.0184 0.8119
C2A C 0.0981(3) 0.0384(3) 0.7104(4)
C3A C 0.1954(2) 0.1111(2) 0.7585(3)
H2A H 0.2313 0.1194 0.7987
C4A C 0.1398(2) 0.1434(2) 0.6369(3)
H3A H 0.1364 0.1742 0.5906
C5A C 0.0934(3) 0.0849(3) 0.6419(4)
H4A H 0.0591 0.0765 0.5999
O1A O 0.0358(6) -0.0599(6) 0.6297(5)
C6A C 0.0465(3) -0.0233(3) 0.7134(5)
H5A H 0.0305 -0.0455 0.6642
N1E N -0.15808(19) -0.18952(19) 0.80462(19)
C1E C -0.0504(3) -0.1508(3) 0.7328(4)
H1E H -0.0184 -0.1573 0.6881
C2E C -0.0384(3) -0.0981(3) 0.7896(4)
C3E C -0.1111(2) -0.1954(2) 0.7415(3)
H2E H -0.1194 -0.2313 0.7013
C4E C -0.1434(2) -0.1398(2) 0.8631(3)
H3E H -0.1742 -0.1364 0.9094
C5E C -0.0849(3) -0.0934(3) 0.8581(4)
H4E H -0.0765 -0.0591 0.9001
O1E O 0.0599(6) -0.0358(6) 0.8703(5)
C6E C 0.0233(3) -0.0465(3) 0.7866(5)
H5E H 0.0455 -0.0305 0.8358
Cu1B Cu -0.2500 -0.2500 0.80748(6)
Cu1B_2 Cu 0.7500 0.7500 0.80748(6)
Cu1J Cu 0.2500 0.2500 0.19252(6)
F2J F 0.2500 0.2500 0.8398(3)
N1F N 0.34192(19) 0.18952(19) 0.69538(19)
N1G N 0.15808(19) 0.31048(19) 0.69538(19)
F4? F 0.2388(4) 0.1585(4) 0.4479(3)
O2? O 0.5336(6) 0.5345(6) 0.5795(6)
C7? C 0.4535(3) 0.5233(3) 0.7134(5)
loop_
_geom_bond_atom_site_label_1
_geom_bond_atom_site_label_2
_geom_bond_site_symmetry_1
_geom_bond_site_symmetry_2
Cu1 F1 1_555 1_555
Si1 F1 1_555 1_555
F2 Si1 1_555 1_555
N1 Cu1 1_555 1_555
C1 H1 1_555 1_555
C2 C1 1_555 1_555
C3 N1 1_555 1_555
H2 C3 1_555 1_555
C4 N1 1_555 1_555
H3 C4 1_555 1_555
C5 C2 1_555 1_555
H4 C5 1_555 1_555
F3 Si1 1_555 1_555
O1 C6 1_555 1_555
C6 C2 1_555 1_555
H5 O1 1_555 1_555
F3A Si1 1_555 1_555
F3F Si1 1_555 1_555
F3G Si1 1_555 1_555
N1D C3D 1_555 1_555
C1D H1D 1_555 1_555
C2D C1D 1_555 1_555
C3D C1D 1_555 1_555
H2D C3D 1_555 1_555
C4D N1D 1_555 1_555
H3D C4D 1_555 1_555
C5D C2D 1_555 1_555
H4D C5D 1_555 1_555
O1D C6D 1_555 1_555
C6D C6 1_555 1_555
H5D O1D 1_555 1_555
N1A Cu1 1_555 1_555
C1A H1A 1_555 1_555
C2A C1A 1_555 1_555
C3A N1A 1_555 1_555
H2A C3A 1_555 1_555
C4A N1A 1_555 1_555
H3A C4A 1_555 1_555
C5A C2A 1_555 1_555
H4A C5A 1_555 1_555
O1A C6A 1_555 1_555
C6A C2A 1_555 1_555
H5A O1A 1_555 1_555
N1E C3E 1_555 1_555
C1E H1E 1_555 1_555
C2E C1E 1_555 1_555
C3E C1E 1_555 1_555
H2E C3E 1_555 1_555
C4E N1E 1_555 1_555
H3E C4E 1_555 1_555
C5E C2E 1_555 1_555
H4E C5E 1_555 1_555
O1E C6E 1_555 1_555
C6E C6A 1_555 1_555
H5E O1E 1_555 1_555
Cu1B N1E 1_555 1_555
Cu1B_2 N1D 1_555 1_555
Cu1J F2 1_555 1_555
F2J Cu1 1_555 1_555
N1F Cu1 1_555 1_555
N1G Cu1 1_555 1_555
C1 C3 1_555 1_555
C4 C5 1_555 1_555
C6 H5 1_555 1_555
C2D C6D 1_555 1_555
C4D C5D 1_555 1_555
C6D H5D 1_555 1_555
C1A C3A 1_555 1_555
C4A C5A 1_555 1_555
C6A H5A 1_555 1_555
C2E C6E 1_555 1_555
C4E C5E 1_555 1_555
C6E H5E 1_555 1_555

#END
