
#######################################################################
#
#                 Cambridge Crystallographic Data Centre
#                                CCDC 
#
#######################################################################
#
# If this CIF has been generated from an entry in the Cambridge 
# Structural Database, then it will include bibliographic, chemical, 
# crystal, experimental, refinement or atomic coordinate data resulting 
# from the CCDC's data processing and validation procedures.
#
#######################################################################

data_JORLEJ
_chemical_formula_moiety         '(C84 H56 Cd2 N6 O10)n,2(C4 H9 N1 O1)'
_chemical_name_systematic        
"catena-[(\m~4~-N,N,N',N'-tetrakis(4-(pyridin-4-yl)phenyl)biphenyl-4,4'-diamine)-bis(\m~3~-4,4'-oxydibenzoato)-di-cadmium N,N-dimethylacetamide unknown solvate]"
_symmetry_cell_setting           monoclinic
_symmetry_space_group_name_H-M   'C 2/c'
_symmetry_Int_Tables_number      15
_space_group_name_Hall           '-C 2yc'
loop_
_symmetry_equiv_pos_site_id
_symmetry_equiv_pos_as_xyz
1 x,y,z
2 -x,y,1/2-z
3 1/2+x,1/2+y,z
4 1/2-x,1/2+y,1/2-z
5 -x,-y,-z
6 x,-y,1/2+z
7 1/2-x,1/2-y,-z
8 1/2+x,1/2-y,1/2+z
_cell_length_a                   21.1146(11)
_cell_length_b                   37.6435(19)
_cell_length_c                   28.2514(14)
_cell_angle_alpha                90
_cell_angle_beta                 108.8030(10)
_cell_angle_gamma                90
_cell_volume                     21256.6
_cell_formula_units_Z            8
loop_
_atom_site_label
_atom_site_type_symbol
_atom_site_fract_x
_atom_site_fract_y
_atom_site_fract_z
C1 C 0.32646(19) 0.17284(9) 0.25111(15)
H1 H 0.2962 0.1738 0.2688
C2 C 0.34027(19) 0.14013(8) 0.23509(15)
H2 H 0.3193 0.1199 0.2419
C3 C 0.38473(19) 0.13717(8) 0.20917(14)
C4 C 0.4134(2) 0.16843(8) 0.20055(14)
H3 H 0.4439 0.1682 0.1831
C5 C 0.3965(2) 0.19995(9) 0.21800(14)
H4 H 0.4167 0.2206 0.2118
C6 C 0.4043(2) 0.10210(8) 0.19409(14)
C7 C 0.3617(2) 0.07358(8) 0.18477(14)
H5 H 0.3191 0.0764 0.1871
C8 C 0.3806(2) 0.04077(8) 0.17191(15)
H6 H 0.3503 0.0220 0.1651
C9 C 0.4437(2) 0.03549(8) 0.16903(14)
C10 C 0.4873(2) 0.06442(8) 0.17884(14)
H7 H 0.5305 0.0615 0.1778
C11 C 0.4673(2) 0.09702(8) 0.19000(14)
H8 H 0.4966 0.1162 0.1949
C12 C 0.44230(19) -0.03053(8) 0.16945(14)
C13 C 0.42389(19) -0.03419(8) 0.21146(14)
H9 H 0.4243 -0.0145 0.2314
C14 C 0.40484(19) -0.06677(8) 0.22431(14)
H10 H 0.3921 -0.0686 0.2528
C15 C 0.40399(18) -0.09714(8) 0.19599(14)
C16 C 0.42212(19) -0.09309(8) 0.15390(14)
H11 H 0.4225 -0.1129 0.1343
C17 C 0.43970(19) -0.06057(8) 0.13982(14)
H12 H 0.4499 -0.0585 0.1103
C18 C 0.38784(18) -0.13236(8) 0.21300(13)
C19 C 0.34476(18) -0.13600(8) 0.24096(13)
H13 H 0.3239 -0.1161 0.2487
C20 C 0.33317(18) -0.16893(8) 0.25703(13)
H14 H 0.3047 -0.1706 0.2761
C21 C 0.40163(19) -0.19558(8) 0.22072(13)
H15 H 0.4223 -0.2160 0.2143
C22 C 0.41586(19) -0.16360(8) 0.20228(13)
H16 H 0.4440 -0.1629 0.1828
C23 C 0.5123(2) 0.00269(8) 0.12952(14)
C24 C 0.5698(2) -0.01682(9) 0.14464(15)
H17 H 0.5789 -0.0308 0.1732
C25 C 0.6148(2) -0.01626(9) 0.11846(14)
H18 H 0.6534 -0.0300 0.1297
C26 C 0.6040(2) 0.00402(8) 0.07624(14)
C27 C 0.5471(2) 0.02391(9) 0.06213(15)
H19 H 0.5389 0.0385 0.0343
C28 C 0.5014(2) 0.02318(8) 0.08757(15)
H20 H 0.4626 0.0367 0.0761
C29 C 0.6509(2) 0.00385(8) 0.04676(14)
C30 C 0.7152(2) -0.00932(8) 0.06587(16)
H21 H 0.7305 -0.0172 0.0988
C31 C 0.7579(2) -0.01111(8) 0.03719(16)
H22 H 0.8009 -0.0202 0.0510
C32 C 0.7369(2) 0.00042(9) -0.01096(15)
C33 C 0.6736(2) 0.01466(9) -0.03056(16)
H23 H 0.6590 0.0233 -0.0631
C34 C 0.6322(2) 0.01599(9) -0.00175(16)
H24 H 0.5896 0.0255 -0.0157
C35 C 0.7920(2) -0.03547(8) -0.05966(15)
C36 C 0.7536(2) -0.06436(8) -0.05758(15)
H25 H 0.7200 -0.0622 -0.0431
C37 C 0.7643(2) -0.09625(9) -0.07667(15)
H26 H 0.7378 -0.1156 -0.0747
C38 C 0.8135(2) -0.10057(8) -0.09887(16)
C39 C 0.8526(2) -0.07163(9) -0.09891(16)
H27 H 0.8871 -0.0737 -0.1126
C40 C 0.8424(2) -0.03955(9) -0.07924(16)
H28 H 0.8703 -0.0205 -0.0794
C41 C 0.8210(2) -0.13459(9) -0.12381(16)
C42 C 0.7933(2) -0.16623(8) -0.11594(15)
H29 H 0.7704 -0.1675 -0.0929
C43 C 0.7996(2) -0.19617(9) -0.14232(16)
H30 H 0.7787 -0.2169 -0.1372
C44 C 0.8569(2) -0.16669(10) -0.18383(17)
H31 H 0.8778 -0.1662 -0.2082
C45 C 0.8525(2) -0.13552(9) -0.15994(17)
H32 H 0.8707 -0.1148 -0.1680
C46 C 0.7873(2) 0.03024(8) -0.06609(16)
C47 C 0.7772(2) 0.03186(9) -0.11611(16)
H33 H 0.7657 0.0114 -0.1354
C48 C 0.7839(2) 0.06406(9) -0.13876(15)
H34 H 0.7774 0.0647 -0.1729
C49 C 0.8001(2) 0.09514(8) -0.11077(16)
C50 C 0.8069(2) 0.09339(9) -0.06170(15)
H35 H 0.8153 0.1141 -0.0427
C51 C 0.8018(2) 0.06143(9) -0.03886(15)
H36 H 0.8083 0.0610 -0.0047
C52 C 0.8080(2) 0.12881(9) -0.13536(14)
C53 C 0.8414(2) 0.13040(9) -0.16980(15)
H37 H 0.8595 0.1098 -0.1784
C54 C 0.8482(2) 0.16240(9) -0.19178(15)
H38 H 0.8709 0.1627 -0.2151
C55 C 0.7907(2) 0.19118(9) -0.14869(14)
H39 H 0.7715 0.2120 -0.1419
C56 C 0.7830(2) 0.16051(9) -0.12447(14)
H40 H 0.7610 0.1612 -0.1008
C57 C 0.29157(18) 0.28554(8) 0.18387(13)
C58 C 0.26694(17) 0.29636(7) 0.13024(12)
C59 C 0.30820(17) 0.31271(8) 0.10732(13)
H41 H 0.3515 0.3189 0.1264
C60 C 0.28626(18) 0.31993(8) 0.05670(13)
H42 H 0.3147 0.3309 0.0420
C61 C 0.22267(18) 0.31090(8) 0.02807(13)
C62 C 0.18051(18) 0.29519(8) 0.04982(13)
H43 H 0.1371 0.2893 0.0305
C63 C 0.20247(17) 0.28816(8) 0.10046(13)
H44 H 0.1733 0.2777 0.1149
C64 C 0.14434(19) 0.30459(10) -0.05394(14)
C65 C 0.14540(18) 0.27462(9) -0.08023(13)
H45 H 0.1858 0.2633 -0.0768
C66 C 0.08630(18) 0.26082(9) -0.11214(13)
H46 H 0.0874 0.2404 -0.1303
C67 C 0.02610(18) 0.27680(8) -0.11735(12)
C68 C 0.02615(19) 0.30752(9) -0.08985(14)
H47 H -0.0141 0.3188 -0.0925
C69 C 0.0852(2) 0.32137(10) -0.05878(15)
H48 H 0.0849 0.3422 -0.0411
C70 C -0.03904(19) 0.26253(9) -0.15169(13)
C71 C 0.20263(19) 0.21773(8) 0.31162(13)
C72 C 0.22692(16) 0.20602(7) 0.36453(12)
C73 C 0.28974(17) 0.21503(8) 0.39503(13)
H49 H 0.3185 0.2266 0.3813
C74 C 0.31146(18) 0.20746(8) 0.44521(13)
H50 H 0.3541 0.2142 0.4650
C75 C 0.26932(18) 0.18948(8) 0.46672(13)
C76 C 0.20646(17) 0.17920(8) 0.43642(13)
H51 H 0.1782 0.1668 0.4499
C77 C 0.18564(17) 0.18737(8) 0.38575(13)
H52 H 0.1434 0.1803 0.3656
C78 C 0.34716(19) 0.19358(10) 0.54869(13)
C79 C 0.40565(19) 0.17668(9) 0.55185(14)
H53 H 0.4054 0.1566 0.5327
C80 C 0.46471(19) 0.18977(9) 0.58362(13)
H54 H 0.5046 0.1786 0.5852
C81 C 0.46629(17) 0.21932(8) 0.61347(13)
C82 C 0.40633(18) 0.23511(9) 0.61029(13)
H55 H 0.4057 0.2543 0.6309
C83 C 0.34677(18) 0.22281(9) 0.57675(13)
H56 H 0.3068 0.2345 0.5735
C84 C 0.53040(19) 0.23295(9) 0.64787(14)
Cd1 Cd 0.341137(12) 0.256173(6) 0.280029(9)
Cd2 Cd 0.151439(12) 0.247664(5) 0.215988(9)
N1 N 0.35324(15) 0.20294(7) 0.24315(11)
N2 N 0.46546(16) 0.00245(7) 0.15634(11)
N3 N 0.36027(14) -0.19869(6) 0.24691(10)
N4 N 0.77935(17) -0.00144(7) -0.04192(12)
N5 N 0.83314(16) -0.19741(7) -0.17404(12)
N6 N 0.82391(15) 0.19252(7) -0.18097(11)
O1 O 0.35130(12) 0.28976(6) 0.20918(9)
O2 O 0.25060(11) 0.27088(5) 0.20260(8)
O3 O 0.20473(13) 0.31880(6) -0.02242(9)
O4 O -0.03733(12) 0.24073(6) -0.18450(10)
O5 O -0.09190(12) 0.27380(7) -0.14710(9)
O6 O 0.24293(11) 0.23291(5) 0.29312(8)
O7 O 0.14261(12) 0.21353(6) 0.28562(9)
O8 O 0.28580(13) 0.18063(6) 0.51637(9)
O9 O 0.53046(12) 0.25432(6) 0.68154(10)
O10 O 0.58386(12) 0.22222(7) 0.64242(9)
Cd1G Cd -0.158863(12) 0.243827(6) -0.219971(9)
Cd1G_2 Cd 0.841137(12) 0.243827(6) -0.219971(9)
Cd2C Cd 0.348561(12) -0.252336(5) 0.284012(9)
Cd2D Cd 0.848561(12) -0.247664(5) -0.215988(9)
Cd2G Cd 0.651439(12) 0.252336(5) 0.715988(9)
N3C N 0.13973(14) 0.30131(6) 0.25309(10)
N5D N 0.16686(16) 0.19741(7) 0.17404(12)
N6G N 0.32391(15) 0.30748(7) 0.31903(11)
O4G O 0.46267(12) 0.25927(6) 0.31550(10)
O5G O 0.40810(12) 0.22620(7) 0.35290(9)
O9G O 0.03046(12) 0.24568(6) 0.18154(10)
O10G O 0.08386(12) 0.27778(7) 0.14242(9)
N7 N 0.6153(4) 0.10189(14) 0.5515(3)
O11 O 0.5121(3) 0.09889(14) 0.5447(2)
C85 C 0.5912(4) 0.11740(15) 0.6250(3)
H57 H 0.6126 0.0983 0.6468
H58 H 0.5502 0.1235 0.6309
H59 H 0.6203 0.1377 0.6316
C86 C 0.6903(4) 0.10712(15) 0.5847(3)
H60 H 0.7059 0.1300 0.5782
H61 H 0.7170 0.0889 0.5767
H62 H 0.6939 0.1055 0.6193
C87 C 0.6021(4) 0.08845(13) 0.5007(2)
H63 H 0.6098 0.0633 0.5015
H64 H 0.6301 0.1000 0.4846
H65 H 0.5560 0.0933 0.4825
C88 C 0.5756(6) 0.1057(2) 0.5737(4)
N8 N 0.4900(5) 0.2988(2) 0.4955(3)
O12 O 0.4290(4) 0.34466(18) 0.5089(3)
C89 C 0.4698(6) 0.3205(3) 0.5190(4)
C90 C 0.5276(5) 0.2698(3) 0.5089(3)
H66 H 0.5519 0.2708 0.5440
H67 H 0.5585 0.2685 0.4904
H68 H 0.4994 0.2491 0.5019
C91 C 0.5020(5) 0.3182(2) 0.5776(4)
H69 H 0.5400 0.3338 0.5884
H70 H 0.5161 0.2943 0.5871
H71 H 0.4696 0.3252 0.5931
C92 C 0.4555(6) 0.2996(3) 0.4424(4)
H72 H 0.4141 0.3122 0.4362
H73 H 0.4463 0.2752 0.4326
H74 H 0.4810 0.3101 0.4234
loop_
_geom_bond_atom_site_label_1
_geom_bond_atom_site_label_2
_geom_bond_site_symmetry_1
_geom_bond_site_symmetry_2
C1 H1 1_555 1_555
C2 C1 1_555 1_555
H2 C2 1_555 1_555
C3 C2 1_555 1_555
C4 C3 1_555 1_555
H3 C4 1_555 1_555
C5 C4 1_555 1_555
H4 C5 1_555 1_555
C6 C3 1_555 1_555
C7 C6 1_555 1_555
H5 C7 1_555 1_555
C8 C7 1_555 1_555
H6 C8 1_555 1_555
C9 C8 1_555 1_555
C10 C9 1_555 1_555
H7 C10 1_555 1_555
C11 C6 1_555 1_555
H8 C11 1_555 1_555
C12 C13 1_555 1_555
C13 H9 1_555 1_555
C14 C13 1_555 1_555
H10 C14 1_555 1_555
C15 C14 1_555 1_555
C16 C15 1_555 1_555
H11 C16 1_555 1_555
C17 C12 1_555 1_555
H12 C17 1_555 1_555
C18 C15 1_555 1_555
C19 C18 1_555 1_555
H13 C19 1_555 1_555
C20 C19 1_555 1_555
H14 C20 1_555 1_555
C21 H15 1_555 1_555
C22 C18 1_555 1_555
H16 C22 1_555 1_555
C23 C24 1_555 1_555
C24 H17 1_555 1_555
C25 C24 1_555 1_555
H18 C25 1_555 1_555
C26 C25 1_555 1_555
C27 C26 1_555 1_555
H19 C27 1_555 1_555
C28 C23 1_555 1_555
H20 C28 1_555 1_555
C29 C26 1_555 1_555
C30 C29 1_555 1_555
H21 C30 1_555 1_555
C31 C30 1_555 1_555
H22 C31 1_555 1_555
C32 C31 1_555 1_555
C33 C32 1_555 1_555
H23 C33 1_555 1_555
C34 C29 1_555 1_555
H24 C34 1_555 1_555
C35 C36 1_555 1_555
C36 H25 1_555 1_555
C37 C36 1_555 1_555
H26 C37 1_555 1_555
C38 C37 1_555 1_555
C39 C38 1_555 1_555
H27 C39 1_555 1_555
C40 C35 1_555 1_555
H28 C40 1_555 1_555
C41 C38 1_555 1_555
C42 C41 1_555 1_555
H29 C42 1_555 1_555
C43 C42 1_555 1_555
H30 C43 1_555 1_555
C44 H31 1_555 1_555
C45 C41 1_555 1_555
H32 C45 1_555 1_555
C46 C47 1_555 1_555
C47 H33 1_555 1_555
C48 C47 1_555 1_555
H34 C48 1_555 1_555
C49 C48 1_555 1_555
C50 C49 1_555 1_555
H35 C50 1_555 1_555
C51 C46 1_555 1_555
H36 C51 1_555 1_555
C52 C49 1_555 1_555
C53 C52 1_555 1_555
H37 C53 1_555 1_555
C54 C53 1_555 1_555
H38 C54 1_555 1_555
C55 H39 1_555 1_555
C56 C52 1_555 1_555
H40 C56 1_555 1_555
C57 C58 1_555 1_555
C58 C59 1_555 1_555
C59 H41 1_555 1_555
C60 C59 1_555 1_555
H42 C60 1_555 1_555
C61 C60 1_555 1_555
C62 C61 1_555 1_555
H43 C62 1_555 1_555
C63 C58 1_555 1_555
H44 C63 1_555 1_555
C64 C65 1_555 1_555
C65 H45 1_555 1_555
C66 C65 1_555 1_555
H46 C66 1_555 1_555
C67 C66 1_555 1_555
C68 C67 1_555 1_555
H47 C68 1_555 1_555
C69 C64 1_555 1_555
H48 C69 1_555 1_555
C70 C67 1_555 1_555
C71 C72 1_555 1_555
C72 C73 1_555 1_555
C73 H49 1_555 1_555
C74 C73 1_555 1_555
H50 C74 1_555 1_555
C75 C74 1_555 1_555
C76 C75 1_555 1_555
H51 C76 1_555 1_555
C77 C72 1_555 1_555
H52 C77 1_555 1_555
C78 C79 1_555 1_555
C79 H53 1_555 1_555
C80 C79 1_555 1_555
H54 C80 1_555 1_555
C81 C80 1_555 1_555
C82 C81 1_555 1_555
H55 C82 1_555 1_555
C83 C78 1_555 1_555
H56 C83 1_555 1_555
C84 C81 1_555 1_555
Cd1 N1 1_555 1_555
Cd2 O2 1_555 1_555
N1 C1 1_555 1_555
N2 C9 1_555 1_555
N3 C20 1_555 1_555
N4 C32 1_555 1_555
N5 C43 1_555 1_555
N6 C54 1_555 1_555
O1 C57 1_555 1_555
O2 C57 1_555 1_555
O3 C61 1_555 1_555
O4 C70 1_555 1_555
O5 C70 1_555 1_555
O6 C71 1_555 1_555
O7 C71 1_555 1_555
O8 C75 1_555 1_555
O9 C84 1_555 1_555
O10 C84 1_555 1_555
N7 C86 1_555 1_555
O11 C88 1_555 1_555
C85 H57 1_555 1_555
H58 C85 1_555 1_555
H59 C85 1_555 1_555
C86 H60 1_555 1_555
H61 C86 1_555 1_555
H62 C86 1_555 1_555
C87 N7 1_555 1_555
H63 C87 1_555 1_555
H64 C87 1_555 1_555
H65 C87 1_555 1_555
C88 N7 1_555 1_555
N8 C89 1_555 1_555
O12 C89 1_555 1_555
C89 C91 1_555 1_555
C90 N8 1_555 1_555
H66 C90 1_555 1_555
H67 C90 1_555 1_555
H68 C90 1_555 1_555
C91 H69 1_555 1_555
H70 C91 1_555 1_555
H71 C91 1_555 1_555
C92 N8 1_555 1_555
H72 C92 1_555 1_555
H73 C92 1_555 1_555
H74 C92 1_555 1_555
Cd1G O4 1_555 1_555
Cd1G_2 N6 1_555 1_555
Cd2C N3 1_555 1_555
Cd2D N5 1_555 1_555
Cd2G O9 1_555 1_555
N3C Cd2 1_555 1_555
N5D Cd2 1_555 1_555
N6G Cd1 1_555 1_555
O4G Cd1 1_555 1_555
O5G Cd1 1_555 1_555
O9G Cd2 1_555 1_555
O10G Cd2 1_555 1_555
C5 N1 1_555 1_555
C10 C11 1_555 1_555
C12 N2 1_555 1_555
C16 C17 1_555 1_555
C21 C22 1_555 1_555
C21 N3 1_555 1_555
C23 N2 1_555 1_555
C27 C28 1_555 1_555
C33 C34 1_555 1_555
C35 N4 1_555 1_555
C39 C40 1_555 1_555
C44 C45 1_555 1_555
C44 N5 1_555 1_555
C46 N4 1_555 1_555
C50 C51 1_555 1_555
C55 C56 1_555 1_555
C55 N6 1_555 1_555
C62 C63 1_555 1_555
C64 O3 1_555 1_555
C68 C69 1_555 1_555
C76 C77 1_555 1_555
C78 O8 1_555 1_555
C82 C83 1_555 1_555
Cd1 O1 1_555 1_555
Cd1 O2 1_555 1_555
Cd1 O6 1_555 1_555
Cd2 O6 1_555 1_555
Cd2 O7 1_555 1_555
O5 Cd1G 1_555 1_555
O10 Cd2G 1_555 1_555
C85 C88 1_555 1_555

#END
