
#######################################################################
#
#                 Cambridge Crystallographic Data Centre
#                                CCDC 
#
#######################################################################
#
# If this CIF has been generated from an entry in the Cambridge 
# Structural Database, then it will include bibliographic, chemical, 
# crystal, experimental, refinement or atomic coordinate data resulting 
# from the CCDC's data processing and validation procedures.
#
#######################################################################

data_NAXLEF
_chemical_name_common            'amino-MIL53(Al) close form'
_chemical_formula_moiety         '(C8 H5 Al1 N1 O5)n'
_chemical_name_systematic        
catena-((\m~4~-2aminobenzene-1,4-dicarboxylato)-(\m~2~-oxo)-aluminium)
_symmetry_cell_setting           monoclinic
_symmetry_space_group_name_H-M   'C c'
_symmetry_Int_Tables_number      9
_space_group_name_Hall           'C -2yc'
loop_
_symmetry_equiv_pos_site_id
_symmetry_equiv_pos_as_xyz
1 x,y,z
2 x,-y,1/2+z
3 1/2+x,1/2+y,z
4 1/2+x,1/2-y,1/2+z
_cell_length_a                   19.7567(19)
_cell_length_b                   7.4814(9)
_cell_length_c                   6.5898(6)
_cell_angle_alpha                90
_cell_angle_beta                 105.731(8)
_cell_angle_gamma                90
_cell_volume                     937.542
_cell_formula_units_Z            4
loop_
_atom_site_label
_atom_site_type_symbol
_atom_site_fract_x
_atom_site_fract_y
_atom_site_fract_z
_atom_site_U_iso_or_equiv
_atom_site_thermal_displace_type
Al1 Al 0.0000 0.0000 0.000 0.0190 Uiso
C1 C 0.2251(12) 0.2081(18) -0.211(5) 0.0080 Uiso
C2 C 0.2050(12) 0.2915(15) 0.127(5) 0.0063 Uiso
C3 C 0.1788(12) 0.2315(16) -0.083(5) 0.0013 Uiso
C4 C 0.2976(12) 0.2448(17) -0.129(5) 0.0063 Uiso
C5 C 0.2775(12) 0.3282(15) 0.209(5) 0.0080 Uiso
C6 C 0.3238(12) 0.3048(14) 0.081(5) 0.0013 Uiso
C7 C 0.1062(12) 0.1948(18) -0.165(5) 0.0018 Uiso
O1 O 0.0656(12) 0.2152(18) -0.053(5) 0.0030 Uiso
O2 O 0.0832(12) 0.1421(20) -0.350(5) 0.0100 Uiso
C8 C 0.3964(12) 0.3415(13) 0.163(5) 0.0018 Uiso
O3 O 0.4194(12) 0.3942(13) 0.348(5) 0.0100 Uiso
O4 O 0.4370(12) 0.3211(15) 0.051(5) 0.0030 Uiso
N1 N 0.1587(12) 0.3148(18) 0.255(5) 0.0220 Uiso
O5 O 0.0036(20) 0.1155(17) 0.282(6) 0.0130 Uiso
Al1A Al 0.0000 0.0000 -0.500 0.0190 Uiso
Al1C Al 0.5000 0.5000 0.500 0.0190 Uiso
Al1B Al 0.5000 0.5000 0.000 0.0190 Uiso
Al1A_2 Al 0.0000 0.0000 0.500 0.0190 Uiso
O2A O 0.0832(12) -0.1421(20) 0.150(5) 0.0100 Uiso
O3C O -0.0806(12) 0.1058(13) -0.152(5) 0.0100 Uiso
O4B O -0.0630(12) -0.1789(15) 0.051(5) 0.0030 Uiso
O5A O 0.0036(20) -0.1155(17) -0.218(6) 0.0130 Uiso
loop_
_geom_bond_atom_site_label_1
_geom_bond_atom_site_label_2
_geom_bond_site_symmetry_1
_geom_bond_site_symmetry_2
Al1 O1 1_555 1_555
C1 C3 1_555 1_555
C2 C3 1_555 1_555
C3 C7 1_555 1_555
C4 C1 1_555 1_555
C5 C2 1_555 1_555
C6 C4 1_555 1_555
C7 O1 1_555 1_555
O2 C7 1_555 1_555
C8 C6 1_555 1_555
O3 C8 1_555 1_555
O4 C8 1_555 1_555
N1 C2 1_555 1_555
O5 Al1 1_555 1_555
Al1A O2 1_555 1_555
Al1C O3 1_555 1_555
Al1B O4 1_555 1_555
Al1A_2 O5 1_555 1_555
O2A Al1 1_555 1_555
O3C Al1 1_555 1_555
O4B Al1 1_555 1_555
O5A Al1 1_555 1_555
C5 C6 1_555 1_555
Al1A O5A 1_555 1_555

#END
