
#######################################################################
#
#                 Cambridge Crystallographic Data Centre
#                                CCDC 
#
#######################################################################
#
# If this CIF has been generated from an entry in the Cambridge 
# Structural Database, then it will include bibliographic, chemical, 
# crystal, experimental, refinement or atomic coordinate data resulting 
# from the CCDC's data processing and validation procedures.
#
#######################################################################

data_XIGFOJ
_chemical_formula_moiety         
'(C45 H31 Cd3 N1 O13)n,5n(C3 H7 N1 O1),18n(H2 O1)'
_chemical_name_systematic        
"catena-(tris(\m~5~-4,4'-Biphenyldicarboxylato)-(dimethylformamide-O)-tri-cadmium pentakis(dimethylformamide) octadecahydrate clathrate)"
_symmetry_cell_setting           orthorhombic
_symmetry_space_group_name_H-M   'P b c n'
_symmetry_Int_Tables_number      60
_space_group_name_Hall           '-P 2n 2ab'
loop_
_symmetry_equiv_pos_site_id
_symmetry_equiv_pos_as_xyz
1 x,y,z
2 1/2-x,1/2-y,1/2+z
3 -x,y,1/2-z
4 1/2+x,1/2-y,-z
5 -x,-y,-z
6 1/2+x,1/2+y,1/2-z
7 x,-y,1/2+z
8 1/2-x,1/2+y,z
_cell_length_a                   24.498(5)
_cell_length_b                   45.853(9)
_cell_length_c                   9.0389(18)
_cell_angle_alpha                90
_cell_angle_beta                 90
_cell_angle_gamma                90
_cell_volume                     10153.5
_exptl_crystal_colour            colorless
_exptl_crystal_description       rod
_cell_formula_units_Z            4
loop_
_atom_site_label
_atom_site_type_symbol
_atom_site_fract_x
_atom_site_fract_y
_atom_site_fract_z
Cd1 Cd 0.462872(9) 0.149153(5) 1.08588(2)
Cd2 Cd 0.5000 0.186753(6) 0.7500
N1 N 0.4180(5) 0.2683(2) 0.8951(11)
O1 O 0.50731(9) 0.19546(5) 1.0172(2)
O2 O 0.55144(9) 0.16607(5) 1.1704(2)
O3 O 0.88629(10) 0.33396(6) 1.0039(3)
O4 O 0.91052(10) 0.31491(7) 1.2185(3)
O5 O 0.50869(10) 0.13838(4) 0.8686(2)
O6 O 0.5400(2) -0.10520(10) 0.8239(6)
O7 O 0.4798(2) 0.23559(10) 0.7734(5)
C1 C 0.54897(16) 0.18988(7) 1.0992(3)
C2 C 0.59225(14) 0.21144(7) 1.1136(3)
C3 C 0.58760(15) 0.23964(8) 1.0613(4)
H1 H 0.5546 0.2454 1.0195
C4 C 0.62967(15) 0.25972(8) 1.0681(4)
H2 H 0.6252 0.2784 1.0301
C5 C 0.67862(13) 0.25143(8) 1.1328(4)
C6 C 0.68383(14) 0.22358(8) 1.1854(4)
H3 H 0.7166 0.2181 1.2293
C7 C 0.64259(15) 0.20361(8) 1.1757(4)
H4 H 0.6479 0.1847 1.2105
C8 C 0.72615(14) 0.27208(7) 1.1371(4)
C9 C 0.73550(14) 0.29329(7) 1.0299(4)
H5 H 0.7091 0.2966 0.9579
C10 C 0.78215(15) 0.30923(8) 1.0279(4)
H6 H 0.7869 0.3233 0.9549
C11 C 0.82265(14) 0.30499(7) 1.1318(4)
C12 C 0.81295(15) 0.28507(9) 1.2460(4)
H7 H 0.8389 0.2826 1.3201
C13 C 0.76628(16) 0.26934(9) 1.2499(4)
H8 H 0.7603 0.2565 1.3278
C14 C 0.87815(14) 0.31911(8) 1.1182(4)
C15 C 0.5000 0.12489(10) 0.7500
C16 C 0.5000 0.09194(9) 0.7500
C17 C 0.47882(19) 0.07674(8) 0.6333(4)
H9 H 0.4658 0.0868 0.5514
C18 C 0.4765(2) 0.04670(8) 0.6351(5)
H10 H 0.4591 0.0367 0.5589
C19 C 0.5000 0.03143(14) 0.7500
C20 C 0.5000 -0.00122(14) 0.7500
C21 C 0.5438(3) -0.01628(10) 0.7967(7)
H11 H 0.5749 -0.0069 0.8316
C22 C 0.5400(3) -0.04935(11) 0.7896(7)
H12 H 0.5719 -0.0587 0.8187
C23 C 0.5000 -0.06799(13) 0.7500
C24 C 0.5000 -0.10201(13) 0.7500
C25 C 0.4494(4) 0.24272(16) 0.8636(13)
H13 H 0.4437 0.2282 0.9336
C26 C 0.4198(6) 0.2889(3) 0.7797(11)
H14 H 0.3866 0.3000 0.7790
H15 H 0.4239 0.2790 0.6869
H16 H 0.4502 0.3018 0.7946
C27 C 0.3810(6) 0.2759(3) 0.9966(13)
H17 H 0.3459 0.2777 0.9503
H18 H 0.3911 0.2941 1.0404
H19 H 0.3793 0.2611 1.0719
Cd1B Cd 0.537128(9) 0.149153(5) 0.41412(2)
Cd1B_2 Cd 0.537128(9) 0.149153(5) 1.41412(2)
Cd1C Cd 0.962872(9) 0.350847(5) 0.91412(2)
Cd1D Cd 0.537128(9) -0.149153(5) 0.91412(2)
Cd1F Cd 0.462872(9) -0.149153(5) 0.58588(2)
Cd1_2 Cd 0.462872(9) 0.149153(5) 0.08588(2)
Cd1A Cd 0.037128(9) 0.350847(5) 0.58588(2)
Cd2A Cd 1.0000 0.313247(6) 1.2500
Cd2A_2 Cd 0.0000 0.313247(6) 0.2500
N1B N 0.5820(5) 0.2683(2) 0.6049(11)
O1B O 0.49269(9) 0.19546(5) 0.4828(2)
O2B O 0.44856(9) 0.16607(5) 0.3296(2)
O2B_2 O 0.44856(9) 0.16607(5) 1.3296(2)
O2_2 O 0.55144(9) 0.16607(5) 0.1704(2)
O3B O 0.11371(10) 0.33396(6) 0.4961(3)
O3C O 0.38629(10) 0.16604(6) 0.9961(3)
O3A O 0.61371(10) 0.16604(6) 0.5039(3)
O4B O 0.08948(10) 0.31491(7) 0.2815(3)
O4A O 0.58948(10) 0.18509(7) 0.7185(3)
O4C O 0.41052(10) 0.18509(7) 0.7815(3)
O5B O 0.49131(10) 0.13838(4) 0.6314(2)
O6B O 0.4600(2) -0.10520(10) 0.6761(6)
O6D O 0.4600(2) 0.10520(10) 1.1761(6)
O6F O 0.5400(2) 0.10520(10) 0.3239(6)
O7B O 0.5202(2) 0.23559(10) 0.7266(5)
C1B C 0.45103(16) 0.18988(7) 0.4008(3)
C2B C 0.40775(14) 0.21144(7) 0.3864(3)
C3B C 0.41240(15) 0.23964(8) 0.4387(4)
H1B H 0.4454 0.2454 0.4805
C4B C 0.37033(15) 0.25972(8) 0.4319(4)
H2B H 0.3748 0.2784 0.4699
C5B C 0.32138(13) 0.25143(8) 0.3672(4)
C6B C 0.31617(14) 0.22358(8) 0.3146(4)
H3B H 0.2834 0.2181 0.2707
C7B C 0.35741(15) 0.20361(8) 0.3243(4)
H4B H 0.3521 0.1847 0.2895
C8B C 0.27385(14) 0.27208(7) 0.3629(4)
C9B C 0.26450(14) 0.29329(7) 0.4701(4)
H5B H 0.2909 0.2966 0.5421
C10B C 0.21785(15) 0.30923(8) 0.4721(4)
H6B H 0.2131 0.3233 0.5451
C11B C 0.17735(14) 0.30499(7) 0.3682(4)
C12B C 0.18705(15) 0.28507(9) 0.2540(4)
H7B H 0.1611 0.2826 0.1799
C13B C 0.23372(16) 0.26934(9) 0.2501(4)
H8B H 0.2397 0.2565 0.1722
C14B C 0.12185(14) 0.31911(8) 0.3818(4)
C17B C 0.52118(19) 0.07674(8) 0.8667(4)
H9B H 0.5342 0.0868 0.9486
C18B C 0.5235(2) 0.04670(8) 0.8649(5)
H10B H 0.5409 0.0367 0.9411
C21B C 0.4562(3) -0.01628(10) 0.7033(7)
H11B H 0.4251 -0.0069 0.6684
C22B C 0.4600(3) -0.04935(11) 0.7104(7)
H12B H 0.4281 -0.0587 0.6813
C25B C 0.5506(4) 0.24272(16) 0.6364(13)
H13B H 0.5563 0.2282 0.5664
C26B C 0.5802(6) 0.2889(3) 0.7203(11)
H14B H 0.6134 0.3000 0.7210
H15B H 0.5761 0.2790 0.8131
H16B H 0.5498 0.3018 0.7054
C27B C 0.6190(6) 0.2759(3) 0.5034(13)
H17B H 0.6541 0.2777 0.5497
H18B H 0.6089 0.2941 0.4596
H19B H 0.6207 0.2611 0.4281
loop_
_geom_bond_atom_site_label_1
_geom_bond_atom_site_label_2
_geom_bond_site_symmetry_1
_geom_bond_site_symmetry_2
Cd1 O1 1_555 1_555
Cd2 O1 1_555 1_555
N1 C25 1_555 1_555
O1 C1 1_555 1_555
O2 Cd1 1_555 1_555
O3 C14 1_555 1_555
O4 C14 1_555 1_555
O5 Cd1 1_555 1_555
O6 C24 1_555 1_555
O7 Cd2 1_555 1_555
C1 O2 1_555 1_555
C2 C1 1_555 1_555
C3 C2 1_555 1_555
H1 C3 1_555 1_555
C4 C3 1_555 1_555
H2 C4 1_555 1_555
C5 C4 1_555 1_555
C6 C5 1_555 1_555
H3 C6 1_555 1_555
C7 C2 1_555 1_555
H4 C7 1_555 1_555
C8 C5 1_555 1_555
C9 C8 1_555 1_555
H5 C9 1_555 1_555
C10 C9 1_555 1_555
H6 C10 1_555 1_555
C11 C10 1_555 1_555
C12 C11 1_555 1_555
H7 C12 1_555 1_555
C13 C8 1_555 1_555
H8 C13 1_555 1_555
C14 C11 1_555 1_555
C15 O5 1_555 1_555
C16 C15 1_555 1_555
C17 C16 1_555 1_555
H9 C17 1_555 1_555
C18 C17 1_555 1_555
H10 C18 1_555 1_555
C19 C18 1_555 1_555
C20 C19 1_555 1_555
C21 C20 1_555 1_555
H11 C21 1_555 1_555
C22 C21 1_555 1_555
H12 C22 1_555 1_555
C23 C22 1_555 1_555
C24 C23 1_555 1_555
C25 O7 1_555 1_555
H13 C25 1_555 1_555
C26 N1 1_555 1_555
H14 C26 1_555 1_555
H15 C26 1_555 1_555
H16 C26 1_555 1_555
C27 N1 1_555 1_555
H17 C27 1_555 1_555
H18 C27 1_555 1_555
H19 C27 1_555 1_555
Cd1B O1B 1_555 1_555
Cd1B_2 O2 1_555 1_555
Cd1C O3 1_555 1_555
Cd1D O6 1_555 1_555
Cd1F O6B 1_555 1_555
Cd1_2 O2B 1_555 1_555
Cd1A O3B 1_555 1_555
Cd2A O4 1_555 1_555
Cd2A_2 O4B 1_555 1_555
N1B C25B 1_555 1_555
O1B Cd2 1_555 1_555
O2B Cd1B 1_555 1_555
O2B_2 Cd1 1_555 1_555
O2_2 Cd1B 1_555 1_555
O3B C14B 1_555 1_555
O3C Cd1 1_555 1_555
O3A Cd1B 1_555 1_555
O4B C14B 1_555 1_555
O4A Cd2 1_555 1_555
O4C Cd2 1_555 1_555
O5B Cd2 1_555 1_555
O6B C24 1_555 1_555
O6D Cd1 1_555 1_555
O6F Cd1B 1_555 1_555
O7B Cd2 1_555 1_555
C1B O1B 1_555 1_555
C2B C1B 1_555 1_555
C3B C2B 1_555 1_555
H1B C3B 1_555 1_555
C4B C3B 1_555 1_555
H2B C4B 1_555 1_555
C5B C4B 1_555 1_555
C6B C5B 1_555 1_555
H3B C6B 1_555 1_555
C7B C2B 1_555 1_555
H4B C7B 1_555 1_555
C8B C5B 1_555 1_555
C9B C8B 1_555 1_555
H5B C9B 1_555 1_555
C10B C9B 1_555 1_555
H6B C10B 1_555 1_555
C11B C10B 1_555 1_555
C12B C11B 1_555 1_555
H7B C12B 1_555 1_555
C13B C8B 1_555 1_555
H8B C13B 1_555 1_555
C14B C11B 1_555 1_555
C17B C16 1_555 1_555
H9B C17B 1_555 1_555
C18B C19 1_555 1_555
H10B C18B 1_555 1_555
C21B C20 1_555 1_555
H11B C21B 1_555 1_555
C22B C23 1_555 1_555
H12B C22B 1_555 1_555
C25B O7B 1_555 1_555
H13B C25B 1_555 1_555
C26B N1B 1_555 1_555
H14B C26B 1_555 1_555
H15B C26B 1_555 1_555
H16B C26B 1_555 1_555
C27B N1B 1_555 1_555
H17B C27B 1_555 1_555
H18B C27B 1_555 1_555
H19B C27B 1_555 1_555
Cd2 O5 1_555 1_555
O7 O7B 1_555 1_555
C6 C7 1_555 1_555
C12 C13 1_555 1_555
C15 O5B 1_555 1_555
Cd1B O5B 1_555 1_555
Cd1B_2 O2B_2 1_555 1_555
Cd1_2 O2_2 1_555 1_555
O2B C1B 1_555 1_555
C6B C7B 1_555 1_555
C12B C13B 1_555 1_555
C17B C18B 1_555 1_555
C21B C22B 1_555 1_555

#END
