
#######################################################################
#
#                 Cambridge Crystallographic Data Centre
#                                CCDC 
#
#######################################################################
#
# If this CIF has been generated from an entry in the Cambridge 
# Structural Database, then it will include bibliographic, chemical, 
# crystal, experimental, refinement or atomic coordinate data resulting 
# from the CCDC's data processing and validation procedures.
#
#######################################################################

data_UNACES
_chemical_formula_moiety         '(C14 H8 Cu1 N2 O5)n'
_chemical_name_systematic        
catena-((\m~3~-5-(isonicotinoylamino)isophthalato)-copper(ii))
_symmetry_cell_setting           monoclinic
_symmetry_space_group_name_H-M   'P 21/c'
_symmetry_Int_Tables_number      14
_space_group_name_Hall           '-P 2ybc'
loop_
_symmetry_equiv_pos_site_id
_symmetry_equiv_pos_as_xyz
1 x,y,z
2 -x,1/2+y,1/2-z
3 -x,-y,-z
4 x,1/2-y,1/2+z
_cell_length_a                   8.497(5)
_cell_length_b                   10.296(4)
_cell_length_c                   17.749(7)
_cell_angle_alpha                90
_cell_angle_beta                 104.624(18)
_cell_angle_gamma                90
_cell_volume                     1502.47
_exptl_crystal_colour            blue
_exptl_crystal_description       block
_cell_formula_units_Z            4
loop_
_atom_site_label
_atom_site_type_symbol
_atom_site_fract_x
_atom_site_fract_y
_atom_site_fract_z
Cu1 Cu 1.11185(4) 0.44452(3) 0.932156(17)
O1 O 0.6230(3) 0.5374(2) 0.43638(12)
O2 O 1.0439(3) 0.46603(18) 0.82341(10)
O3 O 1.1962(3) 0.2954(2) 0.81257(11)
O4 O 1.1280(3) 0.1099(2) 0.54192(11)
O5 O 0.9771(2) 0.21097(18) 0.44327(10)
N1 N 0.7379(3) 0.5975(2) 0.56136(12)
H1 H 0.7385 0.6590 0.5942
N2 N 0.2878(3) 0.9229(2) 0.45262(13)
C1 C 0.8466(3) 0.4940(2) 0.58708(14)
C2 C 0.9166(3) 0.4859(3) 0.66684(14)
H2 H 0.8905 0.5476 0.7000
C3 C 1.0251(3) 0.3866(2) 0.69760(13)
C4 C 1.0652(3) 0.2942(2) 0.64858(14)
H3 H 1.1373 0.2274 0.6687
C5 C 0.9956(3) 0.3033(2) 0.56881(14)
C6 C 0.8871(3) 0.4020(2) 0.53730(14)
H4 H 0.8421 0.4066 0.4839
C7 C 0.6325(3) 0.6107(3) 0.49066(15)
C8 C 0.3596(3) 0.8866(3) 0.52507(15)
H5 H 0.3314 0.9288 0.5661
C9 C 0.4749(3) 0.7885(3) 0.54180(15)
H6 H 0.5220 0.7651 0.5931
C10 C 0.5189(3) 0.7261(2) 0.48153(15)
C11 C 0.4441(4) 0.7644(3) 0.40620(16)
H7 H 0.4711 0.7245 0.3641
C12 C 0.3303(4) 0.8615(3) 0.39409(16)
H8 H 0.2804 0.8858 0.3432
C13 C 1.0959(3) 0.3793(2) 0.78427(14)
C14 C 1.0355(3) 0.2052(2) 0.51571(14)
Cu1C Cu 1.11185(4) 0.05548(3) 0.432156(17)
Cu1C_2 Cu 0.11185(4) 1.05548(3) 0.432156(17)
O4C O 1.1280(3) 0.3901(2) 1.04192(11)
O5C O 0.9771(2) 0.28903(18) 0.94327(10)
N2C N 1.2878(3) 0.5771(2) 0.95262(13)
loop_
_geom_bond_atom_site_label_1
_geom_bond_atom_site_label_2
_geom_bond_site_symmetry_1
_geom_bond_site_symmetry_2
Cu1 O2 1_555 1_555
O1 C7 1_555 1_555
O2 C13 1_555 1_555
O3 C13 1_555 1_555
O4 C14 1_555 1_555
O5 C14 1_555 1_555
N1 H1 1_555 1_555
N2 C8 1_555 1_555
C1 N1 1_555 1_555
C2 C1 1_555 1_555
H2 C2 1_555 1_555
C3 C2 1_555 1_555
C4 C3 1_555 1_555
H3 C4 1_555 1_555
C5 C4 1_555 1_555
C6 C1 1_555 1_555
H4 C6 1_555 1_555
C7 N1 1_555 1_555
C8 H5 1_555 1_555
C9 C8 1_555 1_555
H6 C9 1_555 1_555
C10 C7 1_555 1_555
C11 C10 1_555 1_555
H7 C11 1_555 1_555
C12 N2 1_555 1_555
H8 C12 1_555 1_555
C13 C3 1_555 1_555
C14 C5 1_555 1_555
Cu1C O4 1_555 1_555
Cu1C_2 N2 1_555 1_555
O4C Cu1 1_555 1_555
O5C Cu1 1_555 1_555
N2C Cu1 1_555 1_555
O5 Cu1C 1_555 1_555
C5 C6 1_555 1_555
C9 C10 1_555 1_555
C11 C12 1_555 1_555

#END
