
#######################################################################
#
#                 Cambridge Crystallographic Data Centre
#                                CCDC 
#
#######################################################################
#
# If this CIF has been generated from an entry in the Cambridge 
# Structural Database, then it will include bibliographic, chemical, 
# crystal, experimental, refinement or atomic coordinate data resulting 
# from the CCDC's data processing and validation procedures.
#
#######################################################################

data_MIZZUS
_chemical_formula_moiety         '(C39 H24 N6 Ni3 O18)n'
_chemical_name_systematic        
"catena-[(\m~3~-Hydrogen benzene-1,3,5-tricarboxylato)-bis(\m~3~-hydrogen benzene-1,3,5-tricarboxylato-O,O',O'')-tris(\m~2~-pyrazine)-tri-nickel unknown solvate]"
_symmetry_cell_setting           hexagonal
_symmetry_space_group_name_H-M   'P -6 2 m'
_symmetry_Int_Tables_number      189
_space_group_name_Hall           'P -6 -2'
loop_
_symmetry_equiv_pos_site_id
_symmetry_equiv_pos_as_xyz
1 x,y,z
2 -y,x-y,z
3 -x+y,-x,z
4 x-y,-y,-z
5 -x,-x+y,-z
6 y,x,-z
7 y,x,z
8 -x,-x+y,z
9 x-y,-y,z
10 x,y,-z
11 -x+y,-x,-z
12 -y,x-y,-z
_cell_length_a                   16.571(2)
_cell_length_b                   16.571(2)
_cell_length_c                   6.9253(14)
_cell_angle_alpha                90
_cell_angle_beta                 90
_cell_angle_gamma                120
_cell_volume                     1646.9
_cell_formula_units_Z            1
loop_
_atom_site_label
_atom_site_type_symbol
_atom_site_fract_x
_atom_site_fract_y
_atom_site_fract_z
Ni1 Ni 0.32130(8) 0.32130(8) 0.5000
O1 O 0.2507(5) 0.1736(4) 0.5000
O2 O 0.3335(5) 0.4479(5) 0.5000
O3 O 0.4782(6) 0.5590(8) 0.5000
C1 C 0.1725(9) 0.1725(9) 0.5000
C2 C 0.0836(8) 0.0836(8) 0.5000
C3 C 0.0828(8) 0.0000 0.5000
H1 H 0.1401 0.0000 0.5000
C4 C 0.3909(8) 0.5292(9) 0.5000
C5 C 0.3617(9) 0.6024(8) 0.5000
C6 C 0.2681(6) 0.5731(6) 0.5000
H2 H 0.2232 0.5085 0.5000
N1 N 0.3214(4) 0.3214(4) 0.2028(11)
C7 C 0.3644(11) 0.2845(11) 0.096(2)
C8 C 0.4033(14) 0.360(3) 0.1000(14)
C9 C 0.2391(14) 0.280(3) 0.1006(14)
O1A O -0.1736(4) 0.0771(6) 0.5000
C1A C -0.1725(9) 0.0000(13) 0.5000
C2A C -0.0836(8) 0.0000(11) 0.5000
C3A C 0.0000 0.0828(8) 0.5000
H1A H 0.0000 0.1401 0.5000
O1B O -0.0771(6) -0.2507(5) 0.5000
C1B C 0.0000(13) -0.1725(9) 0.5000
C2B C 0.0000(11) -0.0836(8) 0.5000
C3B C -0.0828(8) -0.0828(8) 0.5000
H1B H -0.1401 -0.1401 0.5000
O1C O 0.0771(6) -0.1736(4) 0.5000
O1E O 0.1736(4) 0.2507(5) 0.5000
O1D O -0.2507(5) -0.0771(6) 0.5000
O2A O 0.5521(5) 0.8856(7) 0.5000
O3A O 0.4410(8) 0.9192(10) 0.5000
C4A C 0.4708(9) 0.8617(12) 0.5000
C5A C 0.3976(8) 0.7593(12) 0.5000
C6A C 0.4269(6) 0.6950(8) 0.5000
H2A H 0.4915 0.7147 0.5000
O2B O 0.1144(7) 0.6665(5) 0.5000
O3B O 0.0808(10) 0.5218(6) 0.5000
C4B C 0.1383(12) 0.6091(8) 0.5000
C5B C 0.2407(12) 0.6383(9) 0.5000
C6B C 0.3050(8) 0.7319(6) 0.5000
H2B H 0.2853 0.7768 0.5000
C7F C 0.2845(11) 0.3644(11) 0.096(2)
C8F C 0.360(3) 0.4033(14) 0.1000(14)
C9F C 0.280(3) 0.2391(14) 0.1006(14)
N1E N 0.3214(4) 0.3214(4) -0.2028(11)
C7I C 0.3644(11) 0.2845(11) -0.096(2)
C8I C 0.4033(14) 0.360(3) -0.1000(14)
C9I C 0.2391(14) 0.280(3) -0.1006(14)
C7E C 0.2845(11) 0.3644(11) -0.096(2)
C8E C 0.360(3) 0.4033(14) -0.1000(14)
C9E C 0.280(3) 0.2391(14) -0.1006(14)
Ni1A Ni -0.32130(8) 0.00000(11) 0.5000
O2A_2 O -0.4479(5) -0.1144(7) 0.5000
O3A_2 O -0.5590(8) -0.0808(10) 0.5000
C4A_2 C -0.5292(9) -0.1383(12) 0.5000
C5A_2 C -0.6024(8) -0.2407(12) 0.5000
C6A_2 C -0.5731(6) -0.3050(8) 0.5000
H2A_2 H -0.5085 -0.2853 0.5000
N1A N -0.3214(4) 0.0000(6) 0.2028(11)
C7A C -0.2845(11) 0.0799(16) 0.096(2)
C8A C -0.360(3) 0.0433(33) 0.1000(14)
C9A C -0.280(3) -0.0409(33) 0.1006(14)
O2B_2 O -0.8856(7) -0.3335(5) 0.5000
O3B_2 O -0.9192(10) -0.4782(6) 0.5000
C4B_2 C -0.8617(12) -0.3909(8) 0.5000
C5B_2 C -0.7593(12) -0.3617(9) 0.5000
C6B_2 C -0.6950(8) -0.2681(6) 0.5000
H2B_2 H -0.7147 -0.2232 0.5000
O2_2 O -0.6665(5) -0.5521(5) 0.5000
O3_2 O -0.5218(6) -0.4410(8) 0.5000
C4_2 C -0.6091(8) -0.4708(9) 0.5000
C5_2 C -0.6383(9) -0.3976(8) 0.5000
C6_2 C -0.7319(6) -0.4269(6) 0.5000
H2_2 H -0.7768 -0.4915 0.5000
C7G C -0.3644(11) -0.0799(16) 0.096(2)
C8G C -0.4033(14) -0.0433(33) 0.1000(14)
C9G C -0.2391(14) 0.0409(33) 0.1006(14)
N1D N -0.3214(4) 0.0000(6) -0.2028(11)
C7K C -0.2845(11) 0.0799(16) -0.096(2)
C8K C -0.360(3) 0.0433(33) -0.1000(14)
C9K C -0.280(3) -0.0409(33) -0.1006(14)
C7D C -0.3644(11) -0.0799(16) -0.096(2)
C8D C -0.4033(14) -0.0433(33) -0.1000(14)
C9D C -0.2391(14) 0.0409(33) -0.1006(14)
Ni1B Ni -1.00000(11) -0.32130(8) 0.5000
N1B N -1.0000(6) -0.3214(4) 0.2028(11)
C7B C -1.0799(16) -0.3644(11) 0.096(2)
C8B C -1.0433(33) -0.4033(14) 0.1000(14)
C9B C -0.9591(33) -0.2391(14) 0.1006(14)
C7H C -0.9201(16) -0.2845(11) 0.096(2)
C8H C -0.9567(33) -0.360(3) 0.1000(14)
C9H C -1.0409(33) -0.280(3) 0.1006(14)
N1C N -1.0000(6) -0.3214(4) -0.2028(11)
C7J C -1.0799(16) -0.3644(11) -0.096(2)
C8J C -1.0433(33) -0.4033(14) -0.1000(14)
C9J C -0.9591(33) -0.2391(14) -0.1006(14)
C7C C -0.9201(16) -0.2845(11) -0.096(2)
C8C C -0.9567(33) -0.360(3) -0.1000(14)
C9C C -1.0409(33) -0.280(3) -0.1006(14)
Ni1_2 Ni -0.67870(8) -0.67870(8) 0.5000
Ni1_3 Ni 0.32130(8) 0.32130(8) -0.5000
Ni1A_2 Ni -0.32130(8) 0.00000(11) -0.5000
Ni1A_3 Ni 0.67870(8) 1.00000(11) 0.5000
Ni1B_2 Ni -1.00000(11) -0.32130(8) -0.5000
Ni1B_3 Ni 0.00000(11) -0.32130(8) 0.5000
Ni1B_4 Ni 0.00000(11) 0.67870(8) 0.5000
O1B_2 O -1.0771(6) -0.2507(5) 0.5000
O1C_2 O -0.9229(6) -0.1736(4) 0.5000
O2C O -1.1144(7) -0.4479(5) 0.5000
O2D O -0.3335(5) 0.1144(7) 0.5000
O2E O 0.4479(5) 0.3335(5) 0.5000
N1C_2 N -1.0000(6) -0.3214(4) 0.7972(11)
N1D_2 N -0.3214(4) 0.0000(6) 0.7972(11)
N1E_2 N 0.3214(4) 0.3214(4) 0.7972(11)
loop_
_geom_bond_atom_site_label_1
_geom_bond_atom_site_label_2
_geom_bond_site_symmetry_1
_geom_bond_site_symmetry_2
Ni1 O1 1_555 1_555
O1 C1 1_555 1_555
O2 Ni1 1_555 1_555
O3 C4 1_555 1_555
C1 C2 1_555 1_555
C2 C3 1_555 1_555
C3 H1 1_555 1_555
C4 O2 1_555 1_555
C5 C4 1_555 1_555
C6 C5 1_555 1_555
H2 C6 1_555 1_555
N1 Ni1 1_555 1_555
C7 N1 1_555 1_555
C8 N1 1_555 1_555
C9 N1 1_555 1_555
O1A C1A 1_555 1_555
C1A C2A 1_555 1_555
C2A C3A 1_555 1_555
C3A C2 1_555 1_555
H1A C3A 1_555 1_555
O1B C1B 1_555 1_555
C1B C2B 1_555 1_555
C2B C3 1_555 1_555
C3B C2A 1_555 1_555
H1B C3B 1_555 1_555
O1C C1B 1_555 1_555
O1E Ni1 1_555 1_555
O1D C1A 1_555 1_555
O2A C4A 1_555 1_555
O3A C4A 1_555 1_555
C4A C5A 1_555 1_555
C5A C6A 1_555 1_555
C6A C5 1_555 1_555
H2A C6A 1_555 1_555
O2B C4B 1_555 1_555
O3B C4B 1_555 1_555
C4B C5B 1_555 1_555
C5B C6 1_555 1_555
C6B C5A 1_555 1_555
H2B C6B 1_555 1_555
C7F N1 1_555 1_555
C8F N1 1_555 1_555
C9F N1 1_555 1_555
N1E C7I 1_555 1_555
C7I C7 1_555 1_555
C8I C8 1_555 1_555
C9I C9 1_555 1_555
C7E C7F 1_555 1_555
C8E C8F 1_555 1_555
C9E C9F 1_555 1_555
Ni1A O1A 1_555 1_555
O2A_2 Ni1A 1_555 1_555
O3A_2 C4A_2 1_555 1_555
C4A_2 O2A_2 1_555 1_555
C5A_2 C4A_2 1_555 1_555
C6A_2 C5A_2 1_555 1_555
H2A_2 C6A_2 1_555 1_555
N1A Ni1A 1_555 1_555
C7A N1A 1_555 1_555
C8A N1A 1_555 1_555
C9A N1A 1_555 1_555
O2B_2 C4B_2 1_555 1_555
O3B_2 C4B_2 1_555 1_555
C4B_2 C5B_2 1_555 1_555
C5B_2 C6B_2 1_555 1_555
C6B_2 C5A_2 1_555 1_555
H2B_2 C6B_2 1_555 1_555
O2_2 C4_2 1_555 1_555
O3_2 C4_2 1_555 1_555
C4_2 C5_2 1_555 1_555
C5_2 C6A_2 1_555 1_555
C6_2 C5B_2 1_555 1_555
H2_2 C6_2 1_555 1_555
C7G N1A 1_555 1_555
C8G N1A 1_555 1_555
C9G N1A 1_555 1_555
N1D C7K 1_555 1_555
C7K C7A 1_555 1_555
C8K C8A 1_555 1_555
C9K C9A 1_555 1_555
C7D C7G 1_555 1_555
C8D C8G 1_555 1_555
C9D C9G 1_555 1_555
Ni1B O2B_2 1_555 1_555
N1B Ni1B 1_555 1_555
C7B N1B 1_555 1_555
C8B N1B 1_555 1_555
C9B N1B 1_555 1_555
C7H N1B 1_555 1_555
C8H N1B 1_555 1_555
C9H N1B 1_555 1_555
N1C C7J 1_555 1_555
C7J C7B 1_555 1_555
C8J C8B 1_555 1_555
C9J C9B 1_555 1_555
C7C C7H 1_555 1_555
C8C C8H 1_555 1_555
C9C C9H 1_555 1_555
Ni1_2 O2_2 1_555 1_555
Ni1_3 N1E 1_555 1_555
Ni1A_2 N1D 1_555 1_555
Ni1A_3 O2A 1_555 1_555
Ni1B_2 N1C 1_555 1_555
Ni1B_3 O1B 1_555 1_555
Ni1B_4 O2B 1_555 1_555
O1B_2 Ni1B 1_555 1_555
O1C_2 Ni1B 1_555 1_555
O2C Ni1B 1_555 1_555
O2D Ni1A 1_555 1_555
O2E Ni1 1_555 1_555
N1C_2 Ni1B 1_555 1_555
N1D_2 Ni1A 1_555 1_555
N1E_2 Ni1 1_555 1_555
C1 O1E 1_555 1_555
C7 C9F 1_555 1_555
C8 C8F 1_555 1_555
C9 C7F 1_555 1_555
C9 C9F 1_555 1_555
C2B C3B 1_555 1_555
O1C Ni1B_3 1_555 1_555
O1D Ni1A 1_555 1_555
C5B C6B 1_555 1_555
N1E C8I 1_555 1_555
N1E C9I 1_555 1_555
N1E C7E 1_555 1_555
N1E C8E 1_555 1_555
N1E C9E 1_555 1_555
C7I C9E 1_555 1_555
C8I C8E 1_555 1_555
C9I C7E 1_555 1_555
C9I C9E 1_555 1_555
C7A C9G 1_555 1_555
C8A C8G 1_555 1_555
C9A C7G 1_555 1_555
C9A C9G 1_555 1_555
C5_2 C6_2 1_555 1_555
N1D C8K 1_555 1_555
N1D C9K 1_555 1_555
N1D C7D 1_555 1_555
N1D C8D 1_555 1_555
N1D C9D 1_555 1_555
C7K C9D 1_555 1_555
C8K C8D 1_555 1_555
C9K C7D 1_555 1_555
C9K C9D 1_555 1_555
C7B C9H 1_555 1_555
C8B C8H 1_555 1_555
C9B C7H 1_555 1_555
C9B C9H 1_555 1_555
N1C C8J 1_555 1_555
N1C C9J 1_555 1_555
N1C C7C 1_555 1_555
N1C C8C 1_555 1_555
N1C C9C 1_555 1_555
C7J C9C 1_555 1_555
C8J C8C 1_555 1_555
C9J C7C 1_555 1_555
C9J C9C 1_555 1_555

#END
