
#######################################################################
#
#                 Cambridge Crystallographic Data Centre
#                                CCDC 
#
#######################################################################
#
# If this CIF has been generated from an entry in the Cambridge 
# Structural Database, then it will include bibliographic, chemical, 
# crystal, experimental, refinement or atomic coordinate data resulting 
# from the CCDC's data processing and validation procedures.
#
#######################################################################

data_MOBBEM
_chemical_formula_moiety         '(C39 H24 N6 Ni3 O18)n'
_chemical_name_systematic        
'catena-[(\m~3~-dihydrogen benzene-1,3,5-tricarboxylato)-(\m~3~-hydrogen benzene-1,3,5-tricarboxylato)-(\m~3~-benzene-1,3,5-tricarboxylato)-tris(\m~2~-pyrazine)-tri-nickel unknown solvate]'
_symmetry_cell_setting           monoclinic
_symmetry_space_group_name_H-M   'C c'
_symmetry_Int_Tables_number      9
_space_group_name_Hall           'C -2yc'
loop_
_symmetry_equiv_pos_site_id
_symmetry_equiv_pos_as_xyz
1 x,y,z
2 x,-y,1/2+z
3 1/2+x,1/2+y,z
4 1/2+x,1/2-y,1/2+z
_cell_length_a                   28.773(6)
_cell_length_b                   16.615(3)
_cell_length_c                   16.794(3)
_cell_angle_alpha                90
_cell_angle_beta                 124.45(3)
_cell_angle_gamma                90
_cell_volume                     6620.54
_exptl_crystal_colour            'pale green'
_exptl_crystal_description       plate
_cell_formula_units_Z            4
loop_
_atom_site_label
_atom_site_type_symbol
_atom_site_fract_x
_atom_site_fract_y
_atom_site_fract_z
Ni1 Ni 0.04697(7) 0.74500(16) 1.00005(11)
Ni2 Ni 0.37159(7) 0.74662(18) 1.00052(11)
Ni3 Ni 0.20861(15) 1.26184(8) 1.0000(2)
O1 O 0.0796(8) 0.6358(10) 0.9942(16)
O2 O 0.1161(8) 0.7478(11) 0.9943(16)
O3 O 0.2974(4) 0.7460(6) 1.0037(7)
O4 O 0.3330(5) 0.6321(6) 1.0013(9)
O5 O 0.2522(8) 0.3721(14) 1.0106(15)
O6 O 0.1710(3) 0.3729(3) 1.0047(5)
C1 C 0.1659(3) 0.6268(3) 0.9976(5)
C2 C 0.2092(3) 0.6670(3) 1.0005(5)
H1 H 0.2107 0.7241 1.0031
C3 C 0.2503(3) 0.6236(3) 0.9998(5)
C4 C 0.2480(3) 0.5401(3) 0.9961(5)
H2 H 0.2761 0.5104 0.9956
C5 C 0.2047(3) 0.4998(3) 0.9931(5)
C6 C 0.1636(3) 0.5432(3) 0.9938(5)
H3 H 0.1340 0.5157 0.9918
C7 C 0.1196(5) 0.6696(8) 0.9943(9)
C8 C 0.2914(7) 0.6673(10) 0.9967(13)
C9 C 0.2091(8) 0.4072(7) 0.9998(13)
O7 O 0.3707(5) 0.8663(8) 0.9916(10)
O8 O 0.4588(12) 0.895(3) 1.029(3)
O9 O 0.2674(7) 1.1978(10) 0.9949(12)
O10 O 0.2466(8) 1.0600(12) 0.9878(14)
O11 O 0.4874(5) 1.1939(8) 1.0015(9)
O12 O 0.4133(3) 1.2758(5) 0.9517(6)
C10 C 0.3922(3) 1.0034(5) 1.0037(6)
C11 C 0.3445(3) 1.0206(5) 1.0025(6)
H4 H 0.3234 0.9781 1.0054
C12 C 0.3277(3) 1.1000(5) 0.9970(6)
C13 C 0.3585(3) 1.1622(5) 0.9928(6)
H5 H 0.3470 1.2164 0.9891
C14 C 0.4062(3) 1.1450(5) 0.9940(6)
C15 C 0.4231(3) 1.0656(5) 0.9995(6)
H6 H 0.4556 1.0539 1.0003
C16 C 0.4099(6) 0.9199(7) 1.0090(9)
C17 C 0.2791(6) 1.1222(10) 0.9951(12)
C18 C 0.4398(5) 1.2086(7) 0.9893(8)
O13 O 0.1515(4) 1.1912(6) 1.0008(8)
O14 O 0.1616(8) 1.0645(13) 0.9746(14)
O15 O 0.0391(5) 0.8617(7) 0.9970(9)
O16 O -0.0423(6) 0.9037(9) 0.9635(10)
O17 O -0.0713(5) 1.1885(10) 0.9922(10)
O18 O -0.0083(3) 1.2808(5) 1.0061(6)
C19 C 0.0898(3) 1.1051(5) 0.9998(6)
C20 C 0.0755(3) 1.0246(5) 0.9959(6)
H7 H 0.0983 0.9837 0.9953
C21 C 0.0277(3) 1.0040(5) 0.9928(6)
C22 C -0.0058(3) 1.0639(5) 0.9936(6)
H8 H -0.0385 1.0498 0.9915
C23 C 0.0085(3) 1.1444(5) 0.9975(6)
C24 C 0.0564(3) 1.1650(5) 1.0006(6)
H9 H 0.0662 1.2200 1.0032
C25 C 0.1347(7) 1.1184(11) 0.9920(13)
C26 C 0.0076(8) 0.9224(10) 0.9860(14)
C27 C -0.0281(2) 1.2086(3) 0.9972(4)
N1 N -0.0083(2) 0.7545(3) 0.8493(4)
C28 C -0.0067(2) 0.8196(3) 0.7988(4)
H10 H 0.0186 0.8628 0.8329
C29 C -0.0423(2) 0.8214(3) 0.6986(4)
H11 H -0.0412 0.8659 0.6641
N2 N -0.0793(2) 0.7581(3) 0.6489(4)
C30 C -0.0809(2) 0.6930(3) 0.6993(4)
H12 H -0.1062 0.6498 0.6653
C31 C -0.0453(2) 0.6912(3) 0.7995(4)
H13 H -0.0464 0.6467 0.8340
N3 N 0.3216(2) 0.7445(3) 0.8503(4)
C32 C 0.3486(2) 0.7513(3) 0.8033(4)
H14 H 0.3884 0.7573 0.8397
C33 C 0.3174(2) 0.7493(3) 0.7030(4)
H15 H 0.3359 0.7540 0.6709
N4 N 0.2592(2) 0.7406(3) 0.6497(4)
C34 C 0.2322(2) 0.7337(3) 0.6967(4)
H16 H 0.1924 0.7277 0.6602
C35 C 0.2634(2) 0.7357(3) 0.7969(4)
H17 H 0.2449 0.7310 0.8290
N5 N 0.1582(2) 1.2667(3) 0.8436(4)
C36 C 0.1279(2) 1.3337(3) 0.7894(4)
H18 H 0.1286 1.3817 0.8209
C37 C 0.0965(2) 1.3306(3) 0.6892(4)
H19 H 0.0757 1.3764 0.6521
N6 N 0.0955(2) 1.2604(3) 0.6431(4)
C38 C 0.1259(2) 1.1934(3) 0.6974(4)
H20 H 0.1252 1.1454 0.6659
C39 C 0.1572(2) 1.1965(3) 0.7976(4)
H21 H 0.1780 1.1507 0.8346
Ni1A Ni 0.04697(7) 1.25500(16) 0.50005(11)
Ni1B Ni 0.54697(7) 1.24500(16) 1.00005(11)
Ni2B Ni -0.12841(7) 1.24662(18) 1.00052(11)
Ni2C Ni -0.12841(7) 0.75338(18) 0.50052(11)
Ni3_2 Ni 0.20861(15) 0.26184(8) 1.0000(2)
Ni3A Ni 0.20861(15) 0.73816(8) 0.5000(2)
O5_2 O 0.2522(8) 1.3721(14) 1.0106(15)
O6_2 O 0.1710(3) 1.3729(3) 1.0047(5)
O11B O -0.0126(5) 0.6939(8) 1.0015(9)
O17B O 0.4287(5) 0.6885(10) 0.9922(10)
N2C N 0.4207(2) 0.7419(3) 1.1489(4)
N4A N 0.2592(2) 1.2594(3) 1.1497(4)
N6A N 0.0955(2) 0.7396(3) 1.1431(4)
C40? C 0.3167(2) 0.8239(3) 0.7974(4)
H22? H 0.3360 0.8714 0.8318
C41? C 0.2825(2) 0.8218(3) 0.6971(4)
H23? H 0.2740 0.8693 0.6598
C42? C 0.2660(2) 0.6804(3) 0.7022(4)
H24? H 0.2469 0.6317 0.6714
C43? C 0.3002(2) 0.6825(3) 0.8025(4)
H25? H 0.3076 0.6332 0.8364
C44? C 0.1825(2) 1.2963(3) 0.8051(4)
H26? H 0.2195 1.3182 0.8430
C45? C 0.1513(2) 1.2944(3) 0.7049(4)
H27? H 0.1679 1.3172 0.6746
C46? C 0.0809(2) 1.2131(3) 0.7013(4)
H28? H 0.0484 1.1797 0.6680
C47? C 0.1121(2) 1.2150(3) 0.8015(4)
H29? H 0.1027 1.1839 0.8381
loop_
_geom_bond_atom_site_label_1
_geom_bond_atom_site_label_2
_geom_bond_site_symmetry_1
_geom_bond_site_symmetry_2
Ni1 O1 1_555 1_555
Ni2 O3 1_555 1_555
Ni3 O9 1_555 1_555
O1 C7 1_555 1_555
O2 Ni1 1_555 1_555
O3 C8 1_555 1_555
O4 Ni2 1_555 1_555
O5 C9 1_555 1_555
O6 C9 1_555 1_555
C1 C2 1_555 1_555
C2 H1 1_555 1_555
C3 C2 1_555 1_555
C4 C3 1_555 1_555
H2 C4 1_555 1_555
C5 C4 1_555 1_555
C6 C1 1_555 1_555
H3 C6 1_555 1_555
C7 O2 1_555 1_555
C8 O4 1_555 1_555
C9 C5 1_555 1_555
O7 Ni2 1_555 1_555
O8 C16 1_555 1_555
O9 C17 1_555 1_555
O10 C17 1_555 1_555
O11 C18 1_555 1_555
O12 C18 1_555 1_555
C10 C11 1_555 1_555
C11 H4 1_555 1_555
C12 C11 1_555 1_555
C13 C12 1_555 1_555
H5 C13 1_555 1_555
C14 C13 1_555 1_555
C15 C10 1_555 1_555
H6 C15 1_555 1_555
C16 O7 1_555 1_555
C17 C12 1_555 1_555
C18 C14 1_555 1_555
O13 Ni3 1_555 1_555
O14 C25 1_555 1_555
O15 Ni1 1_555 1_555
O16 C26 1_555 1_555
O17 C27 1_555 1_555
O18 C27 1_555 1_555
C19 C20 1_555 1_555
C20 H7 1_555 1_555
C21 C20 1_555 1_555
C22 C21 1_555 1_555
H8 C22 1_555 1_555
C23 C22 1_555 1_555
C24 C19 1_555 1_555
H9 C24 1_555 1_555
C25 O13 1_555 1_555
C26 O15 1_555 1_555
C27 C23 1_555 1_555
N1 Ni1 1_555 1_555
C28 N1 1_555 1_555
H10 C28 1_555 1_555
C29 C28 1_555 1_555
H11 C29 1_555 1_555
N2 C29 1_555 1_555
C30 N2 1_555 1_555
H12 C30 1_555 1_555
C31 N1 1_555 1_555
H13 C31 1_555 1_555
N3 Ni2 1_555 1_555
C32 N3 1_555 1_555
H14 C32 1_555 1_555
C33 C32 1_555 1_555
H15 C33 1_555 1_555
N4 C33 1_555 1_555
C34 N4 1_555 1_555
H16 C34 1_555 1_555
C35 N3 1_555 1_555
H17 C35 1_555 1_555
N5 Ni3 1_555 1_555
C36 N5 1_555 1_555
H18 C36 1_555 1_555
C37 C36 1_555 1_555
H19 C37 1_555 1_555
N6 C37 1_555 1_555
C38 N6 1_555 1_555
H20 C38 1_555 1_555
C39 N5 1_555 1_555
H21 C39 1_555 1_555
Ni1A N6 1_555 1_555
Ni1B O11 1_555 1_555
Ni2B O17 1_555 1_555
Ni2C N2 1_555 1_555
Ni3_2 O5 1_555 1_555
Ni3A N4 1_555 1_555
O5_2 Ni3 1_555 1_555
O6_2 Ni3 1_555 1_555
O11B Ni1 1_555 1_555
O17B Ni2 1_555 1_555
N2C Ni2 1_555 1_555
N4A Ni3 1_555 1_555
N6A Ni1 1_555 1_555
O6 Ni3_2 1_555 1_555
C1 C7 1_555 1_555
C3 C8 1_555 1_555
C5 C6 1_555 1_555
C10 C16 1_555 1_555
C14 C15 1_555 1_555
C19 C25 1_555 1_555
C21 C26 1_555 1_555
C23 C24 1_555 1_555
C30 C31 1_555 1_555
C34 C35 1_555 1_555
C38 C39 1_555 1_555

#END
