
#######################################################################
#
#                 Cambridge Crystallographic Data Centre
#                                CCDC 
#
#######################################################################
#
# If this CIF has been generated from an entry in the Cambridge 
# Structural Database, then it will include bibliographic, chemical, 
# crystal, experimental, refinement or atomic coordinate data resulting 
# from the CCDC's data processing and validation procedures.
#
#######################################################################

data_MOBBAI
_chemical_formula_moiety         '(C19 H12 N2 Ni1 O6)n'
_chemical_name_systematic        
"catena-[(\m~3~-Hydrogen benzene-1,3,5-tricarboxylato)-(\m~2~-4,4'-bipyridine)-nickel unknown solvate]"
_symmetry_cell_setting           hexagonal
_symmetry_space_group_name_H-M   'P 63/m m c'
_symmetry_Int_Tables_number      194
_space_group_name_Hall           '-P 6c 2c'
loop_
_symmetry_equiv_pos_site_id
_symmetry_equiv_pos_as_xyz
1 x,y,z
2 -x,-y,1/2+z
3 -y,x-y,z
4 -x+y,-x,z
5 x-y,x,1/2+z
6 y,-x+y,1/2+z
7 x-y,-y,-z
8 -x,-x+y,-z
9 y,x,-z
10 -y,-x,1/2-z
11 x,x-y,1/2-z
12 -x+y,y,1/2-z
13 -x,-y,-z
14 x,y,1/2-z
15 y,-x+y,-z
16 x-y,x,-z
17 -x+y,-x,1/2-z
18 -y,x-y,1/2-z
19 -x+y,y,z
20 x,x-y,z
21 -y,-x,z
22 y,x,1/2+z
23 -x,-x+y,1/2+z
24 x-y,-y,1/2+z
_cell_length_a                   9.4690(13)
_cell_length_b                   9.4690(13)
_cell_length_c                   22.233(4)
_cell_angle_alpha                90
_cell_angle_beta                 90
_cell_angle_gamma                120
_cell_volume                     1726.38
_exptl_crystal_colour            'pale green'
_exptl_crystal_description       plate
_cell_formula_units_Z            2
loop_
_atom_site_label
_atom_site_type_symbol
_atom_site_fract_x
_atom_site_fract_y
_atom_site_fract_z
Ni1 Ni 0.0000 0.0000 0.2500
O1 O 0.221(2) 0.222(2) 0.2500
C1 C 0.317(3) 0.1585(15) 0.2500
C2 C 0.492(3) 0.2462(15) 0.2500
C3 C 0.5830(14) 0.4170(14) 0.2500
H1 H 0.5251 0.4749 0.2500
N1 N 0.0000 0.0000 0.1565(9)
C4 C -0.104(6) -0.142(4) 0.1251(15)
C5 C 0.0000 0.0000 0.0323(5)
C6 C -0.105(6) -0.142(4) 0.0626(15)
O1B O 0.778(2) -0.001(3) 0.2500
C1B C 0.8415(15) 0.1585(34) 0.2500
C2B C 0.7538(15) 0.2458(34) 0.2500
C3B C 0.5830(14) 0.1660(20) 0.2500
H1B H 0.5251 0.0502 0.2500
O1C O 1.001(3) 0.779(2) 0.2500
C1C C 0.8415(34) 0.683(3) 0.2500
C2C C 0.7542(34) 0.508(3) 0.2500
C3C C 0.8340(20) 0.4170(14) 0.2500
H1C H 0.9498 0.4749 0.2500
O1I O 0.778(2) 0.779(2) 0.2500
O1J O 0.221(2) -0.001(3) 0.2500
O1K O 1.001(3) 0.222(2) 0.2500
C4B C 0.142(4) 0.038(7) 0.1251(15)
C6B C 0.142(4) 0.037(7) 0.0626(15)
C4C C -0.038(7) 0.104(6) 0.1251(15)
C6C C -0.037(7) 0.105(6) 0.0626(15)
N1F N 0.0000 0.0000 -0.1565(9)
C4F C 0.038(7) 0.142(4) -0.1251(15)
C5F C 0.0000 0.0000 -0.0323(5)
C6F C 0.037(7) 0.142(4) -0.0626(15)
C4G C 0.104(6) -0.038(7) -0.1251(15)
C6G C 0.105(6) -0.037(7) -0.0626(15)
C4H C -0.142(4) -0.104(6) -0.1251(15)
C6H C -0.142(4) -0.105(6) -0.0626(15)
C4L C 0.104(6) 0.142(4) -0.1251(15)
C6L C 0.105(6) 0.142(4) -0.0626(15)
C4N C -0.142(4) -0.038(7) -0.1251(15)
C6N C -0.142(4) -0.037(7) -0.0626(15)
C4O C 0.038(7) -0.104(6) -0.1251(15)
C6O C 0.037(7) -0.105(6) -0.0626(15)
C4R C -0.038(7) -0.142(4) 0.1251(15)
C6R C -0.037(7) -0.142(4) 0.0626(15)
C4S C -0.104(6) 0.038(7) 0.1251(15)
C6S C -0.105(6) 0.037(7) 0.0626(15)
C4T C 0.142(4) 0.104(6) 0.1251(15)
C6T C 0.142(4) 0.105(6) 0.0626(15)
Ni1_2 Ni 1.0000 0.0000 0.2500
Ni1_3 Ni 1.0000 1.0000 0.2500
Ni1A Ni 0.0000 0.0000 -0.2500
O1B_2 O -0.222(2) -0.001(3) 0.2500
O1C_2 O 0.001(3) -0.221(2) 0.2500
O1I_2 O -0.222(2) -0.221(2) 0.2500
O1K_2 O 0.001(3) 0.222(2) 0.2500
C1B_2 C -0.1585(15) 0.1585(34) 0.2500
C1C_2 C -0.1585(34) -0.317(3) 0.2500
N1I N 0.0000 0.0000 0.3435(9)
O2? O 0.319(5) 0.403(4) 0.2500
C7? C 0.351(2) 0.290(2) 0.2500
C8? C 0.111(2) 0.141(3) 0.1270(10)
C9? C 0.5225(14) 0.3349(11) 0.2500
O3? O 0.245(2) 0.1223(10) 0.2500
C10? C 0.026(4) -0.111(3) 0.0646(10)
loop_
_geom_bond_atom_site_label_1
_geom_bond_atom_site_label_2
_geom_bond_site_symmetry_1
_geom_bond_site_symmetry_2
Ni1 O1 1_555 1_555
O1 C1 1_555 1_555
C1 C2 1_555 1_555
C2 C3 1_555 1_555
C3 H1 1_555 1_555
N1 Ni1 1_555 1_555
C4 N1 1_555 1_555
C5 C6 1_555 1_555
C6 C4 1_555 1_555
O1B C1B 1_555 1_555
C1B C2B 1_555 1_555
C2B C3B 1_555 1_555
C3B C2 1_555 1_555
H1B C3B 1_555 1_555
O1C C1C 1_555 1_555
C1C C2C 1_555 1_555
C2C C3 1_555 1_555
C3C C2B 1_555 1_555
H1C C3C 1_555 1_555
O1I C1C 1_555 1_555
O1J Ni1 1_555 1_555
O1K C1B 1_555 1_555
C4B N1 1_555 1_555
C6B C5 1_555 1_555
C4C N1 1_555 1_555
C6C C5 1_555 1_555
N1F C4F 1_555 1_555
C4F C6F 1_555 1_555
C5F C5 1_555 1_555
C6F C5F 1_555 1_555
C4G N1F 1_555 1_555
C6G C5F 1_555 1_555
C4H N1F 1_555 1_555
C6H C5F 1_555 1_555
C4L N1F 1_555 1_555
C6L C5F 1_555 1_555
C4N N1F 1_555 1_555
C6N C5F 1_555 1_555
C4O N1F 1_555 1_555
C6O C5F 1_555 1_555
C4R N1 1_555 1_555
C6R C5 1_555 1_555
C4S N1 1_555 1_555
C6S C5 1_555 1_555
C4T N1 1_555 1_555
C6T C5 1_555 1_555
Ni1_2 O1B 1_555 1_555
Ni1_3 O1C 1_555 1_555
Ni1A N1F 1_555 1_555
O1B_2 Ni1 1_555 1_555
O1C_2 Ni1 1_555 1_555
O1I_2 Ni1 1_555 1_555
O1K_2 Ni1 1_555 1_555
C1B_2 O1B_2 1_555 1_555
C1C_2 O1C_2 1_555 1_555
N1I Ni1 1_555 1_555
C1 O1J 1_555 1_555
C2C C3C 1_555 1_555
O1I Ni1_3 1_555 1_555
O1K Ni1_2 1_555 1_555
C4B C6B 1_555 1_555
C4C C6C 1_555 1_555
C4G C6G 1_555 1_555
C4H C6H 1_555 1_555
C4L C6L 1_555 1_555
C4N C6N 1_555 1_555
C4O C6O 1_555 1_555
C4R C6R 1_555 1_555
C4S C6S 1_555 1_555
C4T C6T 1_555 1_555
O1I_2 C1C_2 1_555 1_555
O1K_2 C1B_2 1_555 1_555

#END
