
#######################################################################
#
#                 Cambridge Crystallographic Data Centre
#                                CCDC 
#
#######################################################################
#
# If this CIF has been generated from an entry in the Cambridge 
# Structural Database, then it will include bibliographic, chemical, 
# crystal, experimental, refinement or atomic coordinate data resulting 
# from the CCDC's data processing and validation procedures.
#
#######################################################################

data_WUHCEJ
_chemical_formula_moiety         '(C60 H26 O32 S12 Zr6)n'
_chemical_name_systematic        
"catena-[hexakis(\m~4~-2,2'-bithiophene-5,5'-dicarboxylato)-bis(\m~3~-hydroxo)-hexakis(\m~2~-oxido)-hexa-zirconium unknown solvate]"
_symmetry_cell_setting           cubic
_symmetry_space_group_name_H-M   'P n -3'
_symmetry_Int_Tables_number      201
_space_group_name_Hall           '-P 2ab 2bc 3'
loop_
_symmetry_equiv_pos_site_id
_symmetry_equiv_pos_as_xyz
1 x,y,z
2 1/2-x,1/2-y,z
3 1/2-x,y,1/2-z
4 x,1/2-y,1/2-z
5 z,x,y
6 z,1/2-x,1/2-y
7 1/2-z,1/2-x,y
8 1/2-z,x,1/2-y
9 y,z,x
10 1/2-y,z,1/2-x
11 y,1/2-z,1/2-x
12 1/2-y,1/2-z,x
13 -x,-y,-z
14 1/2+x,1/2+y,-z
15 1/2+x,-y,1/2+z
16 -x,1/2+y,1/2+z
17 -z,-x,-y
18 -z,1/2+x,1/2+y
19 1/2+z,1/2+x,-y
20 1/2+z,-x,1/2+y
21 -y,-z,-x
22 1/2+y,-z,1/2+x
23 -y,1/2+z,1/2+x
24 1/2+y,1/2+z,-x
_cell_length_a                   25.224(3)
_cell_length_b                   25.224(3)
_cell_length_c                   25.224(3)
_cell_angle_alpha                90
_cell_angle_beta                 90
_cell_angle_gamma                90
_cell_volume                     16048.8
_exptl_crystal_colour            'pale yellow'
_exptl_crystal_description       octahedron
_cell_formula_units_Z            4
_exptl_crystal_preparation       Luminescent
loop_
_atom_site_label
_atom_site_type_symbol
_atom_site_fract_x
_atom_site_fract_y
_atom_site_fract_z
Zr1 Zr 0.51135(2) 0.48752(2) 0.40342(2)
O1 O 0.4521(2) 0.4521(2) 0.4521(2)
H1 H 0.4331(3) 0.4331(3) 0.4331(3)
O2 O 0.54755(18) 0.44015(19) 0.46388(17)
S1 S 0.28968(6) 0.50090(8) 0.32591(6)
O3 O 0.44160(13) 0.49062(14) 0.35078(13)
O4 O 0.37097(14) 0.50619(15) 0.40601(13)
C1 C 0.3927(2) 0.4977(2) 0.3609(2)
C2 C 0.3567(2) 0.4959(3) 0.3155(2)
C3 C 0.3683(3) 0.4908(5) 0.2631(3)
H2 H 0.4033 0.4882 0.2497
C4 C 0.3230(3) 0.4899(5) 0.2311(3)
H3 H 0.3241 0.4863 0.1936
C5 C 0.2772(3) 0.4946(4) 0.2594(2)
S2 S 0.67345(6) 0.46848(8) 0.28918(6)
O5 O 0.59131(14) 0.47361(14) 0.36988(15)
O6 O 0.64897(14) 0.47431(15) 0.44263(14)
C6 C 0.6373(2) 0.4720(2) 0.3924(2)
C7 C 0.6832(3) 0.4672(3) 0.3564(2)
C8 C 0.7355(3) 0.4637(5) 0.3687(3)
H4 H 0.7487 0.4625 0.4040
C9 C 0.7677(4) 0.4619(6) 0.3235(3)
H5 H 0.8053 0.4603 0.3251
C10 C 0.7400(3) 0.4627(4) 0.2772(3)
S1B S 0.21032(6) 0.50090(8) 0.17409(6)
O3B O 0.05840(13) 0.49062(14) 0.14922(13)
O4B O 0.12903(14) 0.50619(15) 0.09399(13)
C1B C 0.1073(2) 0.4977(2) 0.1391(2)
C2B C 0.1433(2) 0.4959(3) 0.1845(2)
C3B C 0.1317(3) 0.4908(5) 0.2369(3)
H2B H 0.0967 0.4882 0.2503
C4B C 0.1770(3) 0.4899(5) 0.2689(3)
H3B H 0.1759 0.4863 0.3064
C5B C 0.2228(3) 0.4946(4) 0.2406(2)
S2B S 0.82655(6) 0.46848(8) 0.21082(6)
O5B O 0.90869(14) 0.47361(14) 0.13012(15)
O6B O 0.85103(14) 0.47431(15) 0.05737(14)
C6B C 0.8627(2) 0.4720(2) 0.1076(2)
C7B C 0.8168(3) 0.4672(3) 0.1436(2)
C8B C 0.7645(3) 0.4637(5) 0.1313(3)
H4B H 0.7513 0.4625 0.0960
C9B C 0.7323(4) 0.4619(6) 0.1765(3)
H5B H 0.6947 0.4603 0.1749
C10B C 0.7600(3) 0.4627(4) 0.2228(3)
Zr1B Zr -0.01135(2) 0.48752(2) 0.09658(2)
O1B O 0.0479(2) 0.4521(2) 0.0479(2)
H1B H 0.0669(3) 0.4331(3) 0.0669(3)
O2B O -0.04755(18) 0.44015(19) 0.03612(17)
S2B_2 S -0.17345(6) 0.46848(8) 0.21082(6)
O5B_2 O -0.09131(14) 0.47361(14) 0.13012(15)
O6B_2 O -0.14897(14) 0.47431(15) 0.05737(14)
C6B_2 C -0.1373(2) 0.4720(2) 0.1076(2)
C7B_2 C -0.1832(3) 0.4672(3) 0.1436(2)
C8B_2 C -0.2355(3) 0.4637(5) 0.1313(3)
H4B_2 H -0.2487 0.4625 0.0960
C9B_2 C -0.2677(4) 0.4619(6) 0.1765(3)
H5B_2 H -0.3053 0.4603 0.1749
C10B_2 C -0.2400(3) 0.4627(4) 0.2228(3)
S2_2 S -0.32655(6) 0.46848(8) 0.28918(6)
O5_2 O -0.40869(14) 0.47361(14) 0.36988(15)
O6_2 O -0.35103(14) 0.47431(15) 0.44263(14)
C6_2 C -0.3627(2) 0.4720(2) 0.3924(2)
C7_2 C -0.3168(3) 0.4672(3) 0.3564(2)
C8_2 C -0.2645(3) 0.4637(5) 0.3687(3)
H4_2 H -0.2513 0.4625 0.4040
C9_2 C -0.2323(4) 0.4619(6) 0.3235(3)
H5_2 H -0.1947 0.4603 0.3251
C10_2 C -0.2600(3) 0.4627(4) 0.2772(3)
Zr1D Zr 0.40342(2) 0.51135(2) 0.48752(2)
O2D O 0.46388(17) 0.54755(18) 0.44015(19)
S1D S 0.32591(6) 0.28968(6) 0.50090(8)
O3D O 0.35078(13) 0.44160(13) 0.49062(14)
O4D O 0.40601(13) 0.37097(14) 0.50619(15)
C1D C 0.3609(2) 0.3927(2) 0.4977(2)
C2D C 0.3155(2) 0.3567(2) 0.4959(3)
C3D C 0.2631(3) 0.3683(3) 0.4908(5)
H2D H 0.2497 0.4033 0.4882
C4D C 0.2311(3) 0.3230(3) 0.4899(5)
H3D H 0.1936 0.3241 0.4863
C5D C 0.2594(2) 0.2772(3) 0.4946(4)
S1F S 0.17409(6) 0.21032(6) 0.50090(8)
O3F O 0.14922(13) 0.05840(13) 0.49062(14)
O4F O 0.09399(13) 0.12903(14) 0.50619(15)
C1F C 0.1391(2) 0.1073(2) 0.4977(2)
C2F C 0.1845(2) 0.1433(2) 0.4959(3)
C3F C 0.2369(3) 0.1317(3) 0.4908(5)
H2F H 0.2503 0.0967 0.4882
C4F C 0.2689(3) 0.1770(3) 0.4899(5)
H3F H 0.3064 0.1759 0.4863
C5F C 0.2406(2) 0.2228(3) 0.4946(4)
Zr1F Zr 0.09658(2) -0.01135(2) 0.48752(2)
O2F O 0.03612(17) -0.04755(18) 0.44015(19)
Zr1G Zr 0.09658(2) 0.51135(2) 0.01248(2)
O2G O 0.03612(17) 0.54755(18) 0.05985(19)
S1G S 0.17409(6) 0.28968(6) -0.00090(8)
O3G O 0.14922(13) 0.44160(13) 0.00938(14)
O4G O 0.09399(13) 0.37097(14) -0.00619(15)
C1G C 0.1391(2) 0.3927(2) 0.0023(2)
C2G C 0.1845(2) 0.3567(2) 0.0041(3)
C3G C 0.2369(3) 0.3683(3) 0.0092(5)
H2G H 0.2503 0.4033 0.0118
C4G C 0.2689(3) 0.3230(3) 0.0101(5)
H3G H 0.3064 0.3241 0.0137
C5G C 0.2406(2) 0.2772(3) 0.0054(4)
S1E S 0.32591(6) 0.21032(6) -0.00090(8)
O3E O 0.35078(13) 0.05840(13) 0.00938(14)
O4E O 0.40601(13) 0.12903(14) -0.00619(15)
C1E C 0.3609(2) 0.1073(2) 0.0023(2)
C2E C 0.3155(2) 0.1433(2) 0.0041(3)
C3E C 0.2631(3) 0.1317(3) 0.0092(5)
H2E H 0.2497 0.0967 0.0118
C4E C 0.2311(3) 0.1770(3) 0.0101(5)
H3E H 0.1936 0.1759 0.0137
C5E C 0.2594(2) 0.2228(3) 0.0054(4)
Zr1H Zr 0.48752(2) 0.40342(2) 0.51135(2)
O2H O 0.44015(19) 0.46388(17) 0.54755(18)
S2T S 0.53152(8) 0.71082(6) 0.32655(6)
O5T O 0.52639(14) 0.63012(15) 0.40869(14)
O6T O 0.52569(15) 0.55737(14) 0.35103(14)
C6T C 0.5280(2) 0.6076(2) 0.3627(2)
C7T C 0.5328(3) 0.6436(2) 0.3168(3)
C8T C 0.5363(5) 0.6313(3) 0.2645(3)
H4T H 0.5375 0.5960 0.2513
C9T C 0.5381(6) 0.6765(3) 0.2323(4)
H5T H 0.5397 0.6749 0.1947
C10T C 0.5373(4) 0.7228(3) 0.2600(3)
S2V S 0.53152(8) 0.78918(6) 0.17345(6)
O5V O 0.52639(14) 0.86988(15) 0.09131(14)
O6V O 0.52569(15) 0.94263(14) 0.14897(14)
C6V C 0.5280(2) 0.8924(2) 0.1373(2)
C7V C 0.5328(3) 0.8564(2) 0.1832(3)
C8V C 0.5363(5) 0.8687(3) 0.2355(3)
H4V H 0.5375 0.9040 0.2487
C9V C 0.5381(6) 0.8235(3) 0.2677(4)
H5V H 0.5397 0.8251 0.3053
C10V C 0.5373(4) 0.7772(3) 0.2400(3)
Zr1_2 Zr -0.48865(2) 0.48752(2) 0.40342(2)
Zr1A Zr -0.01135(2) 0.01248(2) 0.40342(2)
Zr1B_2 Zr 0.98865(2) 0.48752(2) 0.09658(2)
Zr1C Zr 0.51135(2) 1.01248(2) 0.09658(2)
Zr1E Zr 0.40342(2) -0.01135(2) 0.01248(2)
Zr1I Zr 0.01248(2) 0.40342(2) -0.01135(2)
Zr1J Zr 0.48752(2) 0.09658(2) -0.01135(2)
Zr1K Zr 0.01248(2) 0.09658(2) 0.51135(2)
Zr1L Zr 0.48865(2) 0.51248(2) 0.59658(2)
Zr1P Zr -0.40342(2) 0.48865(2) 0.51248(2)
Zr1P_2 Zr 0.59658(2) 0.48865(2) 0.51248(2)
Zr1S Zr -0.09658(2) 0.48865(2) -0.01248(2)
Zr1S_2 Zr 0.90342(2) 0.48865(2) -0.01248(2)
Zr1T Zr 0.51248(2) 0.59658(2) 0.48865(2)
Zr1U Zr -0.01248(2) 0.59658(2) 0.01135(2)
Zr1V Zr 0.51248(2) 0.90342(2) 0.01135(2)
Zr1W Zr -0.01248(2) -0.09658(2) 0.48865(2)
O1A O 0.0479(2) 0.0479(2) 0.4521(2)
O2I O 0.05985(19) 0.46388(17) -0.04755(18)
O2K O 0.05985(19) 0.03612(17) 0.54755(18)
O2L O 0.45245(18) 0.55985(19) 0.53612(17)
O2M O 0.04755(18) -0.05985(19) 0.53612(17)
O2N O 0.04755(18) 0.55985(19) -0.03612(17)
O2P O 0.53612(17) 0.45245(18) 0.55985(19)
O2T O 0.55985(19) 0.53612(17) 0.45245(18)
O2U O -0.05985(19) 0.53612(17) 0.04755(18)
O3H O 0.49062(14) 0.35078(13) 0.44160(13)
O4A O 0.12903(14) -0.00619(15) 0.40601(13)
O4H O 0.50619(15) 0.40601(13) 0.37097(14)
O4I O -0.00619(15) 0.40601(13) 0.12903(14)
O5D O 0.36988(15) 0.59131(14) 0.47361(14)
O5F O 0.13012(15) -0.09131(14) 0.47361(14)
O5G O 0.13012(15) 0.59131(14) 0.02639(14)
O5H O 0.47361(14) 0.36988(15) 0.59131(14)
O6L O 0.35103(14) 0.52569(15) 0.55737(14)
O6M O 0.14897(14) -0.02569(15) 0.55737(14)
O6N O 0.14897(14) 0.52569(15) -0.05737(14)
O6P O 0.55737(14) 0.35103(14) 0.52569(15)
O6U O -0.02569(15) 0.55737(14) 0.14897(14)
loop_
_geom_bond_atom_site_label_1
_geom_bond_atom_site_label_2
_geom_bond_site_symmetry_1
_geom_bond_site_symmetry_2
Zr1 O1 1_555 1_555
O1 H1 1_555 1_555
O2 Zr1 1_555 1_555
S1 C2 1_555 1_555
O3 Zr1 1_555 1_555
O4 C1 1_555 1_555
C1 O3 1_555 1_555
C2 C1 1_555 1_555
C3 C2 1_555 1_555
H2 C3 1_555 1_555
C4 C3 1_555 1_555
H3 C4 1_555 1_555
C5 S1 1_555 1_555
S2 C7 1_555 1_555
O5 Zr1 1_555 1_555
O6 C6 1_555 1_555
C6 O5 1_555 1_555
C7 C6 1_555 1_555
C8 C7 1_555 1_555
H4 C8 1_555 1_555
C9 C8 1_555 1_555
H5 C9 1_555 1_555
C10 S2 1_555 1_555
S1B C2B 1_555 1_555
O3B C1B 1_555 1_555
O4B C1B 1_555 1_555
C1B C2B 1_555 1_555
C2B C3B 1_555 1_555
C3B H2B 1_555 1_555
C4B C3B 1_555 1_555
H3B C4B 1_555 1_555
C5B C5 1_555 1_555
S2B C7B 1_555 1_555
O5B C6B 1_555 1_555
O6B C6B 1_555 1_555
C6B C7B 1_555 1_555
C7B C8B 1_555 1_555
C8B H4B 1_555 1_555
C9B C8B 1_555 1_555
H5B C9B 1_555 1_555
C10B C10 1_555 1_555
Zr1B O3B 1_555 1_555
O1B Zr1B 1_555 1_555
H1B O1B 1_555 1_555
O2B Zr1B 1_555 1_555
S2B_2 C7B_2 1_555 1_555
O5B_2 Zr1B 1_555 1_555
O6B_2 C6B_2 1_555 1_555
C6B_2 O5B_2 1_555 1_555
C7B_2 C6B_2 1_555 1_555
C8B_2 C7B_2 1_555 1_555
H4B_2 C8B_2 1_555 1_555
C9B_2 C8B_2 1_555 1_555
H5B_2 C9B_2 1_555 1_555
C10B_2 S2B_2 1_555 1_555
S2_2 C7_2 1_555 1_555
O5_2 C6_2 1_555 1_555
O6_2 C6_2 1_555 1_555
C6_2 C7_2 1_555 1_555
C7_2 C8_2 1_555 1_555
C8_2 H4_2 1_555 1_555
C9_2 C8_2 1_555 1_555
H5_2 C9_2 1_555 1_555
C10_2 C10B_2 1_555 1_555
Zr1D O1 1_555 1_555
O2D Zr1 1_555 1_555
S1D C2D 1_555 1_555
O3D Zr1D 1_555 1_555
O4D C1D 1_555 1_555
C1D O3D 1_555 1_555
C2D C1D 1_555 1_555
C3D C2D 1_555 1_555
H2D C3D 1_555 1_555
C4D C3D 1_555 1_555
H3D C4D 1_555 1_555
C5D S1D 1_555 1_555
S1F C2F 1_555 1_555
O3F C1F 1_555 1_555
O4F C1F 1_555 1_555
C1F C2F 1_555 1_555
C2F C3F 1_555 1_555
C3F H2F 1_555 1_555
C4F C3F 1_555 1_555
H3F C4F 1_555 1_555
C5F C5D 1_555 1_555
Zr1F O3F 1_555 1_555
O2F Zr1F 1_555 1_555
Zr1G O4B 1_555 1_555
O2G Zr1B 1_555 1_555
S1G C2G 1_555 1_555
O3G Zr1G 1_555 1_555
O4G C1G 1_555 1_555
C1G O3G 1_555 1_555
C2G C1G 1_555 1_555
C3G C2G 1_555 1_555
H2G C3G 1_555 1_555
C4G C3G 1_555 1_555
H3G C4G 1_555 1_555
C5G S1G 1_555 1_555
S1E C2E 1_555 1_555
O3E C1E 1_555 1_555
O4E C1E 1_555 1_555
C1E C2E 1_555 1_555
C2E C3E 1_555 1_555
C3E H2E 1_555 1_555
C4E C3E 1_555 1_555
H3E C4E 1_555 1_555
C5E C5G 1_555 1_555
Zr1H O1 1_555 1_555
O2H Zr1D 1_555 1_555
S2T C7T 1_555 1_555
O5T C6T 1_555 1_555
O6T Zr1 1_555 1_555
C6T O6T 1_555 1_555
C7T C6T 1_555 1_555
C8T C7T 1_555 1_555
H4T C8T 1_555 1_555
C9T C8T 1_555 1_555
H5T C9T 1_555 1_555
C10T S2T 1_555 1_555
S2V C7V 1_555 1_555
O5V C6V 1_555 1_555
O6V C6V 1_555 1_555
C6V C7V 1_555 1_555
C7V C8V 1_555 1_555
C8V H4V 1_555 1_555
C9V C8V 1_555 1_555
H5V C9V 1_555 1_555
C10V C10T 1_555 1_555
Zr1_2 O5_2 1_555 1_555
Zr1A O2F 1_555 1_555
Zr1B_2 O5B 1_555 1_555
Zr1C O6V 1_555 1_555
Zr1E O3E 1_555 1_555
Zr1I O1B 1_555 1_555
Zr1J O4E 1_555 1_555
Zr1K O4F 1_555 1_555
Zr1L O2H 1_555 1_555
Zr1P O6_2 1_555 1_555
Zr1P_2 O2 1_555 1_555
Zr1S O2B 1_555 1_555
Zr1S_2 O6B 1_555 1_555
Zr1T O2D 1_555 1_555
Zr1U O2G 1_555 1_555
Zr1V O5V 1_555 1_555
Zr1W O2F 1_555 1_555
O1A Zr1F 1_555 1_555
O2I Zr1G 1_555 1_555
O2K Zr1F 1_555 1_555
O2L Zr1D 1_555 1_555
O2M Zr1F 1_555 1_555
O2N Zr1G 1_555 1_555
O2P Zr1H 1_555 1_555
O2T Zr1 1_555 1_555
O2U Zr1B 1_555 1_555
O3H Zr1H 1_555 1_555
O4A Zr1F 1_555 1_555
O4H Zr1 1_555 1_555
O4I Zr1B 1_555 1_555
O5D Zr1D 1_555 1_555
O5F Zr1F 1_555 1_555
O5G Zr1G 1_555 1_555
O5H Zr1H 1_555 1_555
O6L Zr1D 1_555 1_555
O6M Zr1F 1_555 1_555
O6N Zr1G 1_555 1_555
O6P Zr1H 1_555 1_555
O6U Zr1B 1_555 1_555
O2 Zr1H 1_555 1_555
O4 Zr1D 1_555 1_555
C4 C5 1_555 1_555
O6 Zr1P_2 1_555 1_555
C9 C10 1_555 1_555
S1B C5B 1_555 1_555
C4B C5B 1_555 1_555
S2B C10B 1_555 1_555
C9B C10B 1_555 1_555
O1B Zr1G 1_555 1_555
O2B Zr1I 1_555 1_555
O6B_2 Zr1S 1_555 1_555
C9B_2 C10B_2 1_555 1_555
S2_2 C10_2 1_555 1_555
C9_2 C10_2 1_555 1_555
Zr1D O2D 1_555 1_555
O4D Zr1H 1_555 1_555
C4D C5D 1_555 1_555
S1F C5F 1_555 1_555
C4F C5F 1_555 1_555
Zr1G O2G 1_555 1_555
O4G Zr1I 1_555 1_555
C4G C5G 1_555 1_555
S1E C5E 1_555 1_555
C4E C5E 1_555 1_555
Zr1H O2H 1_555 1_555
O5T Zr1T 1_555 1_555
C9T C10T 1_555 1_555
S2V C10V 1_555 1_555
C9V C10V 1_555 1_555
Zr1A O1A 1_555 1_555
Zr1I O2I 1_555 1_555
Zr1K O1A 1_555 1_555
Zr1K O2K 1_555 1_555
Zr1L O2L 1_555 1_555
Zr1L O2P 1_555 1_555
Zr1P_2 O2P 1_555 1_555
Zr1P_2 O2T 1_555 1_555
Zr1S O2U 1_555 1_555
Zr1T O2L 1_555 1_555
Zr1T O2T 1_555 1_555
Zr1U O2N 1_555 1_555
Zr1U O2U 1_555 1_555
Zr1W O2M 1_555 1_555

#END
