
#######################################################################
#
#                 Cambridge Crystallographic Data Centre
#                                CCDC 
#
#######################################################################
#
# If this CIF has been generated from an entry in the Cambridge 
# Structural Database, then it will include bibliographic, chemical, 
# crystal, experimental, refinement or atomic coordinate data resulting 
# from the CCDC's data processing and validation procedures.
#
#######################################################################

data_PEVVES
_chemical_formula_moiety         
'(C28 H30 Cu1 N6 2+)n,2n(F6 P1 1-),2n(C2 H3 N1)'
_chemical_name_systematic        
'catena-(bis((\m~2~-1,2,-bis(4-Pyridyl)ethane)-(acetonitrile-N))-copper(ii) bis(hexafluorophosphate) acetonitrile solvate)'
_symmetry_cell_setting           orthorhombic
_symmetry_space_group_name_H-M   'F d d 2'
_symmetry_Int_Tables_number      43
_space_group_name_Hall           'F 2 -2d'
loop_
_symmetry_equiv_pos_site_id
_symmetry_equiv_pos_as_xyz
1 x,y,z
2 1/4-x,1/4+y,1/4+z
3 1/4+x,1/4-y,1/4+z
4 1/2-x,-y,1/2+z
5 x,1/2+y,1/2+z
6 1/4-x,3/4+y,3/4+z
7 1/4+x,3/4-y,3/4+z
8 1/2-x,1/2-y,z
9 1/2+x,y,1/2+z
10 3/4-x,1/4+y,3/4+z
11 3/4+x,1/4-y,3/4+z
12 -x,-y,z
13 1/2+x,1/2+y,z
14 3/4-x,3/4+y,1/4+z
15 3/4+x,3/4-y,1/4+z
16 -x,1/2-y,1/2+z
_cell_length_a                   20.089(7)
_cell_length_b                   41.009(12)
_cell_length_c                   9.399(3)
_cell_angle_alpha                90
_cell_angle_beta                 90
_cell_angle_gamma                90
_cell_volume                     7743.18
_exptl_crystal_colour            blue
_exptl_crystal_description       prism
_cell_formula_units_Z            8
loop_
_atom_site_label
_atom_site_type_symbol
_atom_site_fract_x
_atom_site_fract_y
_atom_site_fract_z
Cu1 Cu 0.5000 1.0000 0.16549(5)
N1 N 0.46995(9) 0.96863(4) 0.31955(19)
N2 N 0.46617(9) 0.96883(4) 1.01454(18)
N3 N 0.39217(9) 1.02723(4) 0.1544(2)
C1 C 0.51509(10) 0.95766(5) 0.4139(2)
C2 C 0.50149(11) 0.93261(5) 0.5081(2)
C3 C 0.43892(11) 0.91819(5) 0.5079(2)
C4 C 0.39126(10) 0.93074(4) 0.4163(2)
C5 C 0.40842(10) 0.95546(5) 0.3227(2)
C6 C 0.42775(9) 0.97879(5) 0.9057(2)
C7 C 0.39913(10) 0.95733(5) 0.8095(2)
C8 C 0.40898(10) 0.92390(5) 0.8254(2)
C9 C 0.45083(10) 0.91371(5) 0.9351(2)
C10 C 0.47781(10) 0.93652(5) 1.0265(2)
C11 C 0.42310(11) 0.88982(5) 0.6042(2)
C12 C 0.37730(11) 0.89942(5) 0.7280(2)
C13 C 0.33697(10) 1.03234(5) 0.1600(2)
C14 C 0.26607(11) 1.03910(6) 0.1682(3)
H1 H 0.5578 0.9676 0.4160
H2 H 0.5347 0.9253 0.5726
H3 H 0.3471 0.9224 0.4181
H4 H 0.3757 0.9634 0.2585
H5 H 0.4199 1.0015 0.8941
H6 H 0.3730 0.9654 0.7329
H7 H 0.4605 0.8912 0.9473
H8 H 0.5063 0.9292 1.1006
H9 H 0.4019 0.8733 0.5499
H10 H 0.4636 0.8816 0.6424
H11 H 0.3666 0.8805 0.7814
H12 H 0.3377 0.9086 0.6899
H13 H 0.2508 1.0347 0.2619
H14 H 0.2429 1.0257 0.1025
H15 H 0.2583 1.0614 0.1460
Cu1_2 Cu 0.5000 1.0000 1.16549(5)
N1K N 0.53005(9) 1.03137(4) 0.31955(19)
N2K N 0.53383(9) 1.03117(4) 1.01454(18)
N2_2 N 0.46617(9) 0.96883(4) 0.01454(18)
N2K_2 N 0.53383(9) 1.03117(4) 0.01454(18)
N3K N 0.60783(9) 0.97277(4) 0.1544(2)
C1K C 0.48491(10) 1.04234(5) 0.4139(2)
C2K C 0.49851(11) 1.06739(5) 0.5081(2)
C3K C 0.56108(11) 1.08181(5) 0.5079(2)
C4K C 0.60874(10) 1.06926(4) 0.4163(2)
C5K C 0.59158(10) 1.04454(5) 0.3227(2)
C6K C 0.57225(9) 1.02121(5) 0.9057(2)
C7K C 0.60087(10) 1.04267(5) 0.8095(2)
C8K C 0.59102(10) 1.07610(5) 0.8254(2)
C9K C 0.54917(10) 1.08629(5) 0.9351(2)
C10K C 0.52219(10) 1.06348(5) 1.0265(2)
C11K C 0.57690(11) 1.11018(5) 0.6042(2)
C12K C 0.62270(11) 1.10058(5) 0.7280(2)
C13K C 0.66303(10) 0.96766(5) 0.1600(2)
C14K C 0.73393(11) 0.96090(6) 0.1682(3)
H1K H 0.4422 1.0324 0.4160
H2K H 0.4653 1.0747 0.5726
H3K H 0.6529 1.0776 0.4181
H4K H 0.6243 1.0366 0.2585
H5K H 0.5801 0.9985 0.8941
H6K H 0.6270 1.0346 0.7329
H7K H 0.5395 1.1088 0.9473
H8K H 0.4937 1.0708 1.1006
H9K H 0.5981 1.1267 0.5499
H10K H 0.5364 1.1184 0.6424
H11K H 0.6334 1.1195 0.7814
H12K H 0.6623 1.0914 0.6899
H13K H 0.7492 0.9653 0.2619
H14K H 0.7571 0.9743 0.1025
H15K H 0.7417 0.9386 0.1460
P1 P 0.21024(3) 0.94589(2) 0.11513(8)
F1 F 0.15396(10) 0.92302(5) 0.1817(2)
F2 F 0.26703(10) 0.96720(5) 0.0470(2)
F3 F 0.25787(11) 0.91495(5) 0.1118(3)
F4 F 0.16164(10) 0.97592(4) 0.1148(2)
F5 F 0.23690(12) 0.95581(6) 0.2658(2)
F6 F 0.18093(11) 0.93560(5) -0.03549(19)
N4 N 0.25106(11) 0.88118(5) -0.5108(2)
C15 C 0.19518(12) 0.88498(5) -0.5220(2)
C16 C 0.12380(12) 0.88972(6) -0.5374(2)
H16 H 0.1150 0.9123 -0.5484
H17 H 0.1014 0.8818 -0.4553
H18 H 0.1085 0.8783 -0.6189
loop_
_geom_bond_atom_site_label_1
_geom_bond_atom_site_label_2
_geom_bond_site_symmetry_1
_geom_bond_site_symmetry_2
Cu1 N1 1_555 1_555
P1 F1 1_555 1_555
F2 P1 1_555 1_555
F3 P1 1_555 1_555
F4 P1 1_555 1_555
F5 P1 1_555 1_555
F6 P1 1_555 1_555
N1 C1 1_555 1_555
N2 C6 1_555 1_555
N3 Cu1 1_555 1_555
N4 C15 1_555 1_555
C1 C2 1_555 1_555
C2 C3 1_555 1_555
C3 C4 1_555 1_555
C4 C5 1_555 1_555
C5 N1 1_555 1_555
C6 C7 1_555 1_555
C7 C8 1_555 1_555
C8 C9 1_555 1_555
C9 C10 1_555 1_555
C10 N2 1_555 1_555
C11 C3 1_555 1_555
C12 C8 1_555 1_555
C13 N3 1_555 1_555
C14 C13 1_555 1_555
C15 C16 1_555 1_555
C16 H16 1_555 1_555
H1 C1 1_555 1_555
H2 C2 1_555 1_555
H3 C4 1_555 1_555
H4 C5 1_555 1_555
H5 C6 1_555 1_555
H6 C7 1_555 1_555
H7 C9 1_555 1_555
H8 C10 1_555 1_555
H9 C11 1_555 1_555
H10 C11 1_555 1_555
H11 C12 1_555 1_555
H12 C12 1_555 1_555
H13 C14 1_555 1_555
H14 C14 1_555 1_555
H15 C14 1_555 1_555
H17 C16 1_555 1_555
H18 C16 1_555 1_555
Cu1_2 N2 1_555 1_555
N1K Cu1 1_555 1_555
N2K Cu1_2 1_555 1_555
N2_2 Cu1 1_555 1_555
N2K_2 Cu1 1_555 1_555
N3K Cu1 1_555 1_555
C1K N1K 1_555 1_555
C2K C1K 1_555 1_555
C3K C2K 1_555 1_555
C4K C3K 1_555 1_555
C5K N1K 1_555 1_555
C6K N2K 1_555 1_555
C7K C6K 1_555 1_555
C8K C7K 1_555 1_555
C9K C8K 1_555 1_555
C10K N2K 1_555 1_555
C11K C3K 1_555 1_555
C12K C8K 1_555 1_555
C13K N3K 1_555 1_555
C14K C13K 1_555 1_555
H1K C1K 1_555 1_555
H2K C2K 1_555 1_555
H3K C4K 1_555 1_555
H4K C5K 1_555 1_555
H5K C6K 1_555 1_555
H6K C7K 1_555 1_555
H7K C9K 1_555 1_555
H8K C10K 1_555 1_555
H9K C11K 1_555 1_555
H10K C11K 1_555 1_555
H11K C12K 1_555 1_555
H12K C12K 1_555 1_555
H13K C14K 1_555 1_555
H14K C14K 1_555 1_555
H15K C14K 1_555 1_555
C11 C12 1_555 1_555
C4K C5K 1_555 1_555
C9K C10K 1_555 1_555
C11K C12K 1_555 1_555

#END
