
#######################################################################
#
#                 Cambridge Crystallographic Data Centre
#                                CCDC 
#
#######################################################################
#
# If this CIF has been generated from an entry in the Cambridge 
# Structural Database, then it will include bibliographic, chemical, 
# crystal, experimental, refinement or atomic coordinate data resulting 
# from the CCDC's data processing and validation procedures.
#
#######################################################################

data_XALMOO
_chemical_formula_moiety         '(C48 H30 Co2 N4 O9)n'
_chemical_name_systematic        
catena-(bis(\m~4~-4,4'-(4,4'-bipyridine-2,6-diyl)dibenzoato)-(\m~2~-aqua)-di-cobalt)
_symmetry_cell_setting           tetragonal
_symmetry_space_group_name_H-M   'I 41 c d'
_symmetry_Int_Tables_number      110
_space_group_name_Hall           'I 4bw -2c'
loop_
_symmetry_equiv_pos_site_id
_symmetry_equiv_pos_as_xyz
1 x,y,z
2 -y,1/2+x,1/4+z
3 -x,-y,z
4 y,1/2-x,1/4+z
5 -x,y,1/2+z
6 x,-y,1/2+z
7 1/2-y,-x,1/4+z
8 1/2+y,x,1/4+z
9 1/2+x,1/2+y,1/2+z
10 1/2-y,x,3/4+z
11 1/2-x,1/2-y,1/2+z
12 1/2+y,-x,3/4+z
13 1/2-x,1/2+y,z
14 1/2+x,1/2-y,z
15 -y,1/2-x,3/4+z
16 y,1/2+x,3/4+z
_cell_length_a                   23.394(4)
_cell_length_b                   23.394(4)
_cell_length_c                   49.524(9)
_cell_angle_alpha                90
_cell_angle_beta                 90
_cell_angle_gamma                90
_cell_volume                     27103.5
_exptl_crystal_colour            pink
_exptl_crystal_description       sheet
_cell_formula_units_Z            8
loop_
_atom_site_label
_atom_site_type_symbol
_atom_site_fract_x
_atom_site_fract_y
_atom_site_fract_z
Co1 Co 0.957157(12) 0.439570(11) 0.918162(6)
O1 O 0.94029(6) 0.11201(6) 0.69630(3)
O2 O 0.88039(6) 0.04030(6) 0.70180(3)
O3 O 0.57468(5) -0.00181(6) 0.89275(3)
O4 O 0.53330(6) 0.08241(6) 0.90232(3)
O5 O 1.0000 0.5000 0.94395(4)
H1 H 1.0214 0.4805 0.9543
N1 N 0.91643(8) 0.37785(7) 0.89332(4)
N2 N 0.78127(8) 0.15494(8) 0.82209(4)
C1 C 0.94791(11) 0.33607(13) 0.88004(5)
H2 H 0.9885 0.3370 0.8810
C2 C 0.92322(13) 0.29577(13) 0.86628(7)
H3 H 0.9460 0.2672 0.8579
C3 C 0.86217(11) 0.29368(10) 0.86348(4)
C4 C 0.83245(11) 0.33440(11) 0.87661(6)
H4 H 0.7919 0.3357 0.8755
C5 C 0.86214(10) 0.37464(10) 0.89193(5)
H5 H 0.8404 0.4015 0.9020
C6 C 0.82828(11) 0.18124(10) 0.81158(5)
C7 C 0.85441(10) 0.22425(10) 0.82490(5)
H6 H 0.8884 0.2404 0.8177
C8 C 0.83260(10) 0.24477(10) 0.84852(5)
C9 C 0.78520(10) 0.22127(11) 0.85830(5)
H7 H 0.7679 0.2367 0.8740
C10 C 0.76131(10) 0.17538(10) 0.84596(5)
C11 C 0.84834(10) 0.15703(11) 0.78579(5)
C12 C 0.88806(11) 0.18375(10) 0.77004(5)
H8 H 0.9040 0.2191 0.7758
C13 C 0.90528(11) 0.16015(11) 0.74600(5)
H9 H 0.9336 0.1792 0.7357
C14 C 0.88330(9) 0.11090(10) 0.73663(4)
C15 C 0.84359(11) 0.08375(12) 0.75142(5)
H10 H 0.8259 0.0504 0.7443
C16 C 0.82788(12) 0.10316(12) 0.77663(6)
H11 H 0.8036 0.0808 0.7878
C17 C 0.90209(10) 0.08737(11) 0.71039(5)
C18 C 0.66038(10) 0.05502(10) 0.86358(4)
H12 H 0.6571 0.0151 0.8604
C19 C 0.70489(10) 0.08546(10) 0.85245(5)
H13 H 0.7317 0.0665 0.8412
C20 C 0.71135(9) 0.14406(10) 0.85753(5)
C21 C 0.67230(9) 0.17072(9) 0.87373(5)
H14 H 0.6766 0.2105 0.8771
C22 C 0.62885(10) 0.14335(9) 0.88485(5)
H15 H 0.6035 0.1636 0.8964
C23 C 0.61918(9) 0.08377(9) 0.87989(4)
C24 C 0.57290(8) 0.05249(10) 0.89265(4)
Co1B Co 1.042843(12) 0.560430(11) 0.918162(6)
Co1I Co 1.060430(11) 0.957157(12) 0.668162(6)
Co1K Co 0.939570(11) 0.042843(12) 0.668162(6)
Co1L Co 0.542843(12) -0.060430(11) 0.918162(6)
Co1L_2 Co 1.542843(12) 0.939570(11) 0.918162(6)
Co1M Co 0.457157(12) 0.060430(11) 0.918162(6)
Co1M_2 Co 1.457157(12) 1.060430(11) 0.918162(6)
O1B O 1.05971(6) 0.88799(6) 0.69630(3)
O1A O 0.88799(6) 0.44029(6) 0.94630(3)
O1C O 1.11201(6) 0.55971(6) 0.94630(3)
O2B O 1.11961(6) 0.95970(6) 0.70180(3)
O2A O 0.95970(6) 0.38039(6) 0.95180(3)
O2C O 1.04030(6) 0.61961(6) 0.95180(3)
O3B O 1.42532(5) 1.00181(6) 0.89275(3)
O3L O 0.92532(5) 0.49819(6) 0.89275(3)
O3M O 1.07468(5) 0.50181(6) 0.89275(3)
O4B O 1.46670(6) 0.91759(6) 0.90232(3)
O4L O 0.96670(6) 0.58241(6) 0.90232(3)
O4M O 1.03330(6) 0.41759(6) 0.90232(3)
H1B H 0.9786 0.5195 0.9543
N1B N 1.08357(8) 0.62215(7) 0.89332(4)
N2B N 1.21873(8) 0.84506(8) 0.82209(4)
C1B C 1.05209(11) 0.66393(13) 0.88004(5)
H2B H 1.0115 0.6630 0.8810
C2B C 1.07678(13) 0.70423(13) 0.86628(7)
H3B H 1.0540 0.7328 0.8579
C3B C 1.13783(11) 0.70632(10) 0.86348(4)
C4B C 1.16755(11) 0.66560(11) 0.87661(6)
H4B H 1.2081 0.6643 0.8755
C5B C 1.13786(10) 0.62536(10) 0.89193(5)
H5B H 1.1596 0.5985 0.9020
C6B C 1.17172(11) 0.81876(10) 0.81158(5)
C7B C 1.14559(10) 0.77575(10) 0.82490(5)
H6B H 1.1116 0.7596 0.8177
C8B C 1.16740(10) 0.75523(10) 0.84852(5)
C9B C 1.21480(10) 0.77873(11) 0.85830(5)
H7B H 1.2321 0.7633 0.8740
C10B C 1.23869(10) 0.82462(10) 0.84596(5)
C11B C 1.15166(10) 0.84297(11) 0.78579(5)
C12B C 1.11194(11) 0.81625(10) 0.77004(5)
H8B H 1.0960 0.7809 0.7758
C13B C 1.09472(11) 0.83985(11) 0.74600(5)
H9B H 1.0664 0.8208 0.7357
C14B C 1.11670(9) 0.88910(10) 0.73663(4)
C15B C 1.15641(11) 0.91625(12) 0.75142(5)
H10B H 1.1741 0.9496 0.7443
C16B C 1.17212(12) 0.89684(12) 0.77663(6)
H11B H 1.1964 0.9192 0.7878
C17B C 1.09791(10) 0.91263(11) 0.71039(5)
C18B C 1.33962(10) 0.94498(10) 0.86358(4)
H12B H 1.3429 0.9849 0.8604
C19B C 1.29511(10) 0.91454(10) 0.85245(5)
H13B H 1.2683 0.9335 0.8412
C20B C 1.28865(9) 0.85594(10) 0.85753(5)
C21B C 1.32770(9) 0.82928(9) 0.87373(5)
H14B H 1.3234 0.7895 0.8771
C22B C 1.37115(10) 0.85665(9) 0.88485(5)
H15B H 1.3965 0.8364 0.8964
C23B C 1.38082(9) 0.91623(9) 0.87989(4)
C24B C 1.42710(8) 0.94751(10) 0.89265(4)
loop_
_geom_bond_atom_site_label_1
_geom_bond_atom_site_label_2
_geom_bond_site_symmetry_1
_geom_bond_site_symmetry_2
Co1 O5 1_555 1_555
O1 C17 1_555 1_555
O2 C17 1_555 1_555
O3 C24 1_555 1_555
O4 C24 1_555 1_555
O5 H1 1_555 1_555
N1 Co1 1_555 1_555
N2 C6 1_555 1_555
C1 N1 1_555 1_555
H2 C1 1_555 1_555
C2 C1 1_555 1_555
H3 C2 1_555 1_555
C3 C2 1_555 1_555
C4 C3 1_555 1_555
H4 C4 1_555 1_555
C5 N1 1_555 1_555
H5 C5 1_555 1_555
C6 C7 1_555 1_555
C7 H6 1_555 1_555
C8 C3 1_555 1_555
C9 C8 1_555 1_555
H7 C9 1_555 1_555
C10 N2 1_555 1_555
C11 C6 1_555 1_555
C12 C11 1_555 1_555
H8 C12 1_555 1_555
C13 C12 1_555 1_555
H9 C13 1_555 1_555
C14 C13 1_555 1_555
C15 C14 1_555 1_555
H10 C15 1_555 1_555
C16 C11 1_555 1_555
H11 C16 1_555 1_555
C17 C14 1_555 1_555
C18 H12 1_555 1_555
C19 C18 1_555 1_555
H13 C19 1_555 1_555
C20 C10 1_555 1_555
C21 C20 1_555 1_555
H14 C21 1_555 1_555
C22 C21 1_555 1_555
H15 C22 1_555 1_555
C23 C18 1_555 1_555
C24 C23 1_555 1_555
Co1B O5 1_555 1_555
Co1I O1B 1_555 1_555
Co1K O1 1_555 1_555
Co1L O3 1_555 1_555
Co1L_2 O4B 1_555 1_555
Co1M O4 1_555 1_555
Co1M_2 O3B 1_555 1_555
O1B C17B 1_555 1_555
O1A Co1 1_555 1_555
O1C Co1B 1_555 1_555
O2B Co1I 1_555 1_555
O2A Co1 1_555 1_555
O2C Co1B 1_555 1_555
O3B C24B 1_555 1_555
O3L Co1 1_555 1_555
O3M Co1B 1_555 1_555
O4B C24B 1_555 1_555
O4L Co1B 1_555 1_555
O4M Co1 1_555 1_555
H1B O5 1_555 1_555
N1B Co1B 1_555 1_555
N2B C6B 1_555 1_555
C1B N1B 1_555 1_555
H2B C1B 1_555 1_555
C2B C1B 1_555 1_555
H3B C2B 1_555 1_555
C3B C2B 1_555 1_555
C4B C3B 1_555 1_555
H4B C4B 1_555 1_555
C5B N1B 1_555 1_555
H5B C5B 1_555 1_555
C6B C7B 1_555 1_555
C7B H6B 1_555 1_555
C8B C3B 1_555 1_555
C9B C8B 1_555 1_555
H7B C9B 1_555 1_555
C10B N2B 1_555 1_555
C11B C6B 1_555 1_555
C12B C11B 1_555 1_555
H8B C12B 1_555 1_555
C13B C12B 1_555 1_555
H9B C13B 1_555 1_555
C14B C13B 1_555 1_555
C15B C14B 1_555 1_555
H10B C15B 1_555 1_555
C16B C11B 1_555 1_555
H11B C16B 1_555 1_555
C17B O2B 1_555 1_555
C18B H12B 1_555 1_555
C19B C18B 1_555 1_555
H13B C19B 1_555 1_555
C20B C10B 1_555 1_555
C21B C20B 1_555 1_555
H14B C21B 1_555 1_555
C22B C21B 1_555 1_555
H15B C22B 1_555 1_555
C23B C18B 1_555 1_555
C24B C23B 1_555 1_555
O2 Co1K 1_555 1_555
C4 C5 1_555 1_555
C7 C8 1_555 1_555
C9 C10 1_555 1_555
C15 C16 1_555 1_555
C19 C20 1_555 1_555
C22 C23 1_555 1_555
C4B C5B 1_555 1_555
C7B C8B 1_555 1_555
C9B C10B 1_555 1_555
C14B C17B 1_555 1_555
C15B C16B 1_555 1_555
C19B C20B 1_555 1_555
C22B C23B 1_555 1_555

#END
