
#######################################################################
#
#                 Cambridge Crystallographic Data Centre
#                                CCDC 
#
#######################################################################
#
# If this CIF has been generated from an entry in the Cambridge 
# Structural Database, then it will include bibliographic, chemical, 
# crystal, experimental, refinement or atomic coordinate data resulting 
# from the CCDC's data processing and validation procedures.
#
#######################################################################

data_XALMII
_chemical_formula_moiety         '(C30 H26 Co3 N2 O12)n'
_chemical_name_systematic        
catena-((\m~5~-4,4'-(4,4'-Bipyridine-2,6-diyl)dibenzoato)-tris(\m~3~-acetato)-(\m~3~-hydroxo)-aqua-tri-cobalt)
_symmetry_cell_setting           hexagonal
_symmetry_space_group_name_H-M   'P 61'
_symmetry_Int_Tables_number      169
_space_group_name_Hall           'P 61'
loop_
_symmetry_equiv_pos_site_id
_symmetry_equiv_pos_as_xyz
1 x,y,z
2 x-y,x,1/6+z
3 -y,x-y,1/3+z
4 -x,-y,1/2+z
5 -x+y,-x,2/3+z
6 y,-x+y,5/6+z
_cell_length_a                   24.65(2)
_cell_length_b                   24.65(2)
_cell_length_c                   19.730(19)
_cell_angle_alpha                90
_cell_angle_beta                 90
_cell_angle_gamma                120
_cell_volume                     10382.3
_exptl_crystal_colour            pink
_exptl_crystal_description       block
_cell_formula_units_Z            6
loop_
_atom_site_label
_atom_site_type_symbol
_atom_site_fract_x
_atom_site_fract_y
_atom_site_fract_z
Co1 Co 0.196352(7) 0.160060(7) 0.945292(8)
Co2 Co 0.213978(7) 0.109322(7) 0.788563(8)
Co3 Co 0.332072(7) 0.243428(7) 0.885045(8)
O1 O 0.25434(3) 0.15796(3) 0.87331(3)
H1 H 0.2561 0.1273 0.8908
O2 O 0.38360(4) 0.20919(4) 0.83305(5)
H2 H 0.3672 0.1818 0.8019
H3 H 0.4177 0.2110 0.8446
O3 O 0.13724(4) 0.12136(4) 0.78994(4)
O4 O 0.13493(4) 0.17355(4) 0.88108(4)
O5 O 0.13760(4) 0.16536(4) 1.01670(4)
O6 O 0.07167(4) 0.13825(4) 1.10415(4)
O7 O 0.19530(4) 0.29355(4) 0.94638(5)
O8 O 0.26087(4) 0.25721(4) 0.93430(4)
O9 O 0.34860(4) 0.21496(4) 0.97573(5)
O10 O 0.25208(4) 0.15289(4) 1.01775(4)
O11 O 0.27315(4) -0.04269(4) 1.62857(4)
O12 O 0.18849(4) -0.07423(4) 1.56234(4)
N1 N 0.38367(6) 0.07673(8) 1.28852(7)
N2 N 0.66987(5) 0.08257(5) 1.23747(6)
C1 C 0.11323(6) 0.14592(6) 0.82482(7)
C2 C 0.05293(8) 0.14034(10) 0.80018(9)
H4 H 0.0178 0.0994 0.8133
H5 H 0.0542 0.1444 0.7507
H6 H 0.0475 0.1736 0.8205
C3 C 0.11060(6) 0.13266(6) 1.06917(6)
C4 C 0.12492(9) 0.08253(8) 1.09147(8)
H7 H 0.0927 0.0418 1.0739
H8 H 0.1254 0.0811 1.1411
H9 H 0.1660 0.0922 1.0738
C5 C 0.24808(6) 0.30056(6) 0.93425(6)
C6 C 0.30052(7) 0.36605(8) 0.91719(10)
H10 H 0.2844 0.3952 0.9180
H11 H 0.3169 0.3660 0.8720
H12 H 0.3342 0.3793 0.9507
C7 C 0.31011(6) 0.17704(6) 1.01866(6)
C8 C 0.33866(7) 0.15984(7) 1.07620(7)
C9 C 0.40239(8) 0.18689(10) 1.08228(9)
H13 H 0.4290 0.2184 1.0511
C10 C 0.42804(8) 0.16886(12) 1.13297(10)
H14 H 0.4723 0.1886 1.1370
C11 C 0.39041(7) 0.12219(10) 1.17844(9)
C12 C 0.32646(7) 0.09637(10) 1.17402(9)
H15 H 0.2998 0.0656 1.2059
C13 C 0.30116(7) 0.11536(8) 1.12304(8)
H16 H 0.2570 0.0973 1.1203
C14 C 0.41748(8) 0.10040(11) 1.23219(9)
C15 C 0.47450(8) 0.10263(10) 1.22197(9)
H17 H 0.4974 0.1195 1.1813
C16 C 0.49740(8) 0.07980(10) 1.27211(8)
C17 C 0.46365(7) 0.05677(9) 1.33095(8)
H18 H 0.4793 0.0428 1.3669
C18 C 0.40541(7) 0.05419(10) 1.33707(8)
C19 C 0.36571(7) 0.02809(9) 1.39802(8)
C20 C 0.39094(7) 0.03222(9) 1.46234(8)
H19 H 0.4351 0.0523 1.4677
C21 C 0.35306(7) 0.00779(8) 1.51788(7)
H20 H 0.3711 0.0107 1.5612
C22 C 0.28779(6) -0.02155(7) 1.51115(7)
C23 C 0.26252(7) -0.02538(9) 1.44734(8)
H21 H 0.2183 -0.0454 1.4422
C24 C 0.30062(7) -0.00048(10) 1.39103(8)
H22 H 0.2826 -0.0028 1.3478
C25 C 0.24618(6) -0.04766(6) 1.57306(6)
C26 C 0.55697(7) 0.08046(9) 1.26055(8)
C27 C 0.57841(8) 0.08116(11) 1.19544(8)
H23 H 0.5545 0.0807 1.1575
C28 C 0.63536(7) 0.08259(9) 1.18572(8)
H24 H 0.6498 0.0836 1.1408
C29 C 0.64897(7) 0.08136(8) 1.30014(7)
H25 H 0.6736 0.0816 1.3372
C30 C 0.59352(7) 0.07983(9) 1.31373(7)
H26 H 0.5803 0.0784 1.3593
Co1A Co 0.036292(10) 0.196352(7) 1.111959(8)
Co2A Co 0.104656(10) 0.213978(7) 0.955230(8)
Co2E Co 0.109322(7) -0.104656(10) 1.621896(8)
Co3E Co 0.243428(7) -0.088644(10) 1.718378(8)
Co3B Co 0.756572(7) 0.088644(10) 1.218378(8)
O4E O 0.17355(4) 0.03862(6) 0.71441(4)
O5E O 0.16536(4) 0.02776(6) 0.85003(4)
O6E O 0.13825(4) 0.06658(6) 0.93748(4)
O7E O 0.29355(4) 0.09825(6) 0.77971(5)
O11A O 0.31584(6) 0.27315(4) 0.79524(4)
O12A O 0.26272(6) 0.18849(4) 0.72901(4)
N2D N 0.41270(7) 0.33013(5) 0.90414(6)
loop_
_geom_bond_atom_site_label_1
_geom_bond_atom_site_label_2
_geom_bond_site_symmetry_1
_geom_bond_site_symmetry_2
Co1 O1 1_555 1_555
Co2 O1 1_555 1_555
Co3 O1 1_555 1_555
O1 H1 1_555 1_555
O2 Co3 1_555 1_555
H2 O2 1_555 1_555
H3 O2 1_555 1_555
O3 Co2 1_555 1_555
O4 Co1 1_555 1_555
O5 Co1 1_555 1_555
O6 C3 1_555 1_555
O7 C5 1_555 1_555
O8 Co1 1_555 1_555
O9 Co3 1_555 1_555
O10 Co1 1_555 1_555
O11 C25 1_555 1_555
O12 C25 1_555 1_555
N1 C14 1_555 1_555
N2 C28 1_555 1_555
C1 O3 1_555 1_555
C2 C1 1_555 1_555
H4 C2 1_555 1_555
H5 C2 1_555 1_555
H6 C2 1_555 1_555
C3 O5 1_555 1_555
C4 C3 1_555 1_555
H7 C4 1_555 1_555
H8 C4 1_555 1_555
H9 C4 1_555 1_555
C5 O8 1_555 1_555
C6 C5 1_555 1_555
H10 C6 1_555 1_555
H11 C6 1_555 1_555
H12 C6 1_555 1_555
C7 O9 1_555 1_555
C8 C7 1_555 1_555
C9 C8 1_555 1_555
H13 C9 1_555 1_555
C10 C9 1_555 1_555
H14 C10 1_555 1_555
C11 C10 1_555 1_555
C12 C11 1_555 1_555
H15 C12 1_555 1_555
C13 C8 1_555 1_555
H16 C13 1_555 1_555
C14 C11 1_555 1_555
C15 C14 1_555 1_555
H17 C15 1_555 1_555
C16 C15 1_555 1_555
C17 C16 1_555 1_555
H18 C17 1_555 1_555
C18 N1 1_555 1_555
C19 C18 1_555 1_555
C20 C19 1_555 1_555
H19 C20 1_555 1_555
C21 C20 1_555 1_555
H20 C21 1_555 1_555
C22 C21 1_555 1_555
C23 C22 1_555 1_555
H21 C23 1_555 1_555
C24 C19 1_555 1_555
H22 C24 1_555 1_555
C25 C22 1_555 1_555
C26 C16 1_555 1_555
C27 C26 1_555 1_555
H23 C27 1_555 1_555
C28 C27 1_555 1_555
H24 C28 1_555 1_555
C29 N2 1_555 1_555
H25 C29 1_555 1_555
C30 C26 1_555 1_555
H26 C30 1_555 1_555
Co1A O6 1_555 1_555
Co2A O4 1_555 1_555
Co2E O12 1_555 1_555
Co3E O11 1_555 1_555
Co3B N2 1_555 1_555
O4E Co2 1_555 1_555
O5E Co2 1_555 1_555
O6E Co1 1_555 1_555
O7E Co2 1_555 1_555
O11A Co3 1_555 1_555
O12A Co2 1_555 1_555
N2D Co3 1_555 1_555
Co3 O8 1_555 1_555
O4 C1 1_555 1_555
O5 Co2A 1_555 1_555
O7 Co2A 1_555 1_555
O10 C7 1_555 1_555
C12 C13 1_555 1_555
C17 C18 1_555 1_555
C23 C24 1_555 1_555
C29 C30 1_555 1_555

#END
