
#######################################################################
#
#                 Cambridge Crystallographic Data Centre
#                                CCDC 
#
#######################################################################
#
# If this CIF has been generated from an entry in the Cambridge 
# Structural Database, then it will include bibliographic, chemical, 
# crystal, experimental, refinement or atomic coordinate data resulting 
# from the CCDC's data processing and validation procedures.
#
#######################################################################

data_OPENUT
_chemical_formula_moiety         '(C30 H26 Eu2 N2 O14)n,1.7n(C3 H7 N1 O1)'
_chemical_name_systematic        
'catena-(tris(\m~4~-benzene-1,3-dicarboxylato)-bis(N,N-dimethylformamide)-di-europium(iii) N,N-dimethylformamide solvate)'
_symmetry_cell_setting           orthorhombic
_symmetry_space_group_name_H-M   'P n m a'
_symmetry_Int_Tables_number      62
_space_group_name_Hall           '-P 2ac 2n'
loop_
_symmetry_equiv_pos_site_id
_symmetry_equiv_pos_as_xyz
1 x,y,z
2 1/2-x,-y,1/2+z
3 1/2+x,1/2-y,1/2-z
4 -x,1/2+y,-z
5 -x,-y,-z
6 1/2+x,y,1/2-z
7 1/2-x,1/2+y,1/2+z
8 x,1/2-y,z
_cell_length_a                   8.007(5)
_cell_length_b                   29.445(5)
_cell_length_c                   15.880(5)
_cell_angle_alpha                90
_cell_angle_beta                 90
_cell_angle_gamma                90
_cell_volume                     3743.97
_exptl_crystal_colour            colorless
_exptl_crystal_description       rod
_cell_formula_units_Z            4
loop_
_atom_site_label
_atom_site_type_symbol
_atom_site_fract_x
_atom_site_fract_y
_atom_site_fract_z
C17 C -0.2522(6) 0.20774(16) 0.0891(3)
C18 C -0.3712(16) 0.2500 -0.0287(6)
N2 N -0.2952(8) 0.2500 0.0459(4)
O8 O -0.4024(18) 0.2830(4) -0.0690(7)
C17G C -0.2522(6) 0.29226(16) 0.0891(3)
O8G O -0.4024(18) 0.2170(4) -0.0690(7)
C1 C -0.1311(5) -0.51587(12) 0.3427(2)
C2 C -0.0981(5) -0.47651(12) 0.4008(2)
C3 C -0.1898(5) -0.47244(12) 0.4745(2)
H1 H -0.2768 -0.4926 0.4852
C4 C -0.1533(5) -0.43870(12) 0.5323(2)
C5 C -0.0291(5) -0.40697(13) 0.5147(3)
H2 H -0.0049 -0.3841 0.5531
C6 C 0.0586(5) -0.40977(13) 0.4391(3)
H3 H 0.1386 -0.3880 0.4259
C7 C 0.0267(5) -0.44502(14) 0.3834(2)
H4 H 0.0889 -0.4476 0.3341
C8 C -0.2549(5) -0.43655(12) 0.6115(2)
C9 C -0.4520(5) -0.59098(13) 0.5043(3)
H5 H -0.4128 -0.5615 0.4979
C10 C -0.4866(7) -0.5731(2) 0.6521(3)
H6 H -0.5226 -0.5886 0.7020
H7 H -0.5581 -0.5475 0.6419
H8 H -0.3738 -0.5627 0.6594
C11 C -0.5640(10) -0.6485(2) 0.5958(4)
H9 H -0.5876 -0.6517 0.6548
H10 H -0.4854 -0.6713 0.5789
H11 H -0.6654 -0.6520 0.5642
C12 C -0.6108(5) -0.66564(13) 0.2081(2)
C13 C -0.6623(5) -0.70904(12) 0.1670(2)
C14 C -0.7525(5) -0.70908(13) 0.0922(2)
H12 H -0.7835 -0.6818 0.0674
C15 C -0.7963(8) -0.7500 0.0547(4)
H13 H -0.8552 -0.7500 0.0043
C16 C -0.6141(7) -0.7500 0.2032(3)
H14 H -0.5494 -0.7500 0.2519
N1 N -0.4945(5) -0.60415(13) 0.5803(2)
O1 O -0.2700(3) -0.53544(9) 0.35045(17)
O2 O -0.0184(4) -0.52665(10) 0.29151(16)
O3 O -0.2240(4) -0.40625(9) 0.66698(17)
O4 O -0.6724(3) -0.62796(8) 0.18330(16)
O5 O -0.4604(3) -0.61508(10) 0.44032(17)
O6 O -0.3762(3) -0.46286(9) 0.61895(17)
O7 O -0.5030(4) -0.66708(9) 0.26553(17)
Eu1 Eu -0.44995(2) -0.588960(6) 0.293180(11)
C1E C -0.6311(5) -0.51587(12) 0.1573(2)
C2E C -0.5981(5) -0.47651(12) 0.0992(2)
C3E C -0.6898(5) -0.47244(12) 0.0255(2)
H1E H -0.7768 -0.4926 0.0148
C4E C -0.6533(5) -0.43870(12) -0.0323(2)
C5E C -0.5291(5) -0.40697(13) -0.0147(3)
H2E H -0.5049 -0.3841 -0.0531
C6E C -0.4414(5) -0.40977(13) 0.0609(3)
H3E H -0.3614 -0.3880 0.0741
C7E C -0.4733(5) -0.44502(14) 0.1166(2)
H4E H -0.4111 -0.4476 0.1659
C8E C -0.7549(5) -0.43655(12) -0.1115(2)
C9E C -0.9520(5) -0.59098(13) -0.0043(3)
H5E H -0.9128 -0.5615 0.0021
C10E C -0.9866(7) -0.5731(2) -0.1521(3)
H6E H -1.0226 -0.5886 -0.2020
H7E H -1.0581 -0.5475 -0.1419
H8E H -0.8738 -0.5627 -0.1594
C11E C -1.0640(10) -0.6485(2) -0.0958(4)
H9E H -1.0876 -0.6517 -0.1548
H10E H -0.9854 -0.6713 -0.0789
H11E H -1.1654 -0.6520 -0.0642
C12G C -0.6108(5) -0.83436(13) 0.2081(2)
C13G C -0.6623(5) -0.79096(12) 0.1670(2)
C14G C -0.7525(5) -0.79092(13) 0.0922(2)
H12G H -0.7835 -0.8182 0.0674
N1E N -0.9945(5) -0.60415(13) -0.0803(2)
O1E O -0.7700(3) -0.53544(9) 0.14955(17)
O2E O -0.5184(4) -0.52665(10) 0.20849(16)
O2_2 O -1.0184(4) -0.52665(10) 0.29151(16)
O3D O -0.7760(4) -0.59375(9) 0.33302(17)
O3A O -0.2760(4) -0.59375(9) 0.16698(17)
O3A_2 O -1.2760(4) -0.59375(9) 0.16698(17)
O3E O -0.7240(4) -0.40625(9) -0.16698(17)
O4G O -0.6724(3) -0.87204(8) 0.18330(16)
O4E O -0.1724(3) -0.62796(8) 0.31670(16)
O4E_2 O -1.1724(3) -0.62796(8) 0.31670(16)
O5E O -0.9604(3) -0.61508(10) 0.05968(17)
O6D O -0.6238(3) -0.53714(9) 0.38105(17)
O6A O -1.1238(3) -0.53714(9) 0.11895(17)
O6E O -0.8762(3) -0.46286(9) -0.11895(17)
O7G O -0.5030(4) -0.83292(9) 0.26553(17)
O7E O -1.0030(4) -0.66708(9) 0.23447(17)
Eu1D Eu -0.55005(2) -0.411040(6) 0.706820(11)
Eu1E Eu -0.94995(2) -0.588960(6) 0.206820(11)
Eu1G Eu -0.44995(2) -0.911040(6) 0.293180(11)
Eu1B Eu -0.94995(2) -0.911040(6) 0.206820(11)
Eu1E_2 Eu 0.05005(2) -0.588960(6) 0.206820(11)
Eu1A Eu -0.05005(2) -0.411040(6) 0.793180(11)
Eu1A_2 Eu -1.05005(2) -0.411040(6) -0.206820(11)
Eu1D_2 Eu -0.55005(2) -0.411040(6) -0.293180(11)
C19? C -0.886(4) 0.2170(13) 0.745(3)
C20? C -0.723(3) 0.2344(7) 0.7760(16)
C21? C -0.674(3) 0.1928(7) 0.8218(13)
loop_
_geom_bond_atom_site_label_1
_geom_bond_atom_site_label_2
_geom_bond_site_symmetry_1
_geom_bond_site_symmetry_2
C1 C2 1_555 1_555
C2 C3 1_555 1_555
C3 H1 1_555 1_555
C4 C3 1_555 1_555
C5 C4 1_555 1_555
H2 C5 1_555 1_555
C6 C5 1_555 1_555
H3 C6 1_555 1_555
C7 C2 1_555 1_555
H4 C7 1_555 1_555
C8 C4 1_555 1_555
C9 H5 1_555 1_555
C10 H6 1_555 1_555
H7 C10 1_555 1_555
H8 C10 1_555 1_555
C11 H9 1_555 1_555
H10 C11 1_555 1_555
H11 C11 1_555 1_555
C12 C13 1_555 1_555
C13 C14 1_555 1_555
C14 H12 1_555 1_555
C15 C14 1_555 1_555
H13 C15 1_555 1_555
C16 C13 1_555 1_555
H14 C16 1_555 1_555
C17 N2 1_555 1_555
C18 N2 1_555 1_555
N1 C9 1_555 1_555
N2 C17G 1_555 1_555
O1 C1 1_555 1_555
O2 C1 1_555 1_555
O3 C8 1_555 1_555
O4 C12 1_555 1_555
O5 C9 1_555 1_555
O6 C8 1_555 1_555
O7 C12 1_555 1_555
O8 C18 1_555 1_555
Eu1 O1 1_555 1_555
C1E C2E 1_555 1_555
C2E C3E 1_555 1_555
C3E H1E 1_555 1_555
C4E C3E 1_555 1_555
C5E C4E 1_555 1_555
H2E C5E 1_555 1_555
C6E C5E 1_555 1_555
H3E C6E 1_555 1_555
C7E C2E 1_555 1_555
H4E C7E 1_555 1_555
C8E C4E 1_555 1_555
C9E H5E 1_555 1_555
C10E H6E 1_555 1_555
H7E C10E 1_555 1_555
H8E C10E 1_555 1_555
C11E H9E 1_555 1_555
H10E C11E 1_555 1_555
H11E C11E 1_555 1_555
C12G C13G 1_555 1_555
C13G C16 1_555 1_555
C14G C15 1_555 1_555
H12G C14G 1_555 1_555
N1E C9E 1_555 1_555
O1E C1E 1_555 1_555
O2E Eu1 1_555 1_555
O2_2 Eu1E 1_555 1_555
O3D Eu1 1_555 1_555
O3A Eu1 1_555 1_555
O3A_2 Eu1E 1_555 1_555
O3E C8E 1_555 1_555
O4G C12G 1_555 1_555
O4E Eu1 1_555 1_555
O4E_2 Eu1E 1_555 1_555
O5E C9E 1_555 1_555
O6D Eu1 1_555 1_555
O6A Eu1E 1_555 1_555
O6E C8E 1_555 1_555
O7G C12G 1_555 1_555
O7E Eu1E 1_555 1_555
O8G C18 1_555 1_555
Eu1D O3 1_555 1_555
Eu1E O4 1_555 1_555
Eu1G O4G 1_555 1_555
Eu1B O4G 1_555 1_555
Eu1E_2 O2 1_555 1_555
Eu1A O3 1_555 1_555
Eu1A_2 O3E 1_555 1_555
Eu1D_2 O3E 1_555 1_555
C6 C7 1_555 1_555
C10 N1 1_555 1_555
C11 N1 1_555 1_555
O4 Eu1 1_555 1_555
O5 Eu1 1_555 1_555
O6 Eu1D 1_555 1_555
O7 Eu1 1_555 1_555
C1E O2E 1_555 1_555
C6E C7E 1_555 1_555
C10E N1E 1_555 1_555
C11E N1E 1_555 1_555
C13G C14G 1_555 1_555
O1E Eu1E 1_555 1_555
O3D Eu1E 1_555 1_555
O3A Eu1E_2 1_555 1_555
O4E Eu1E_2 1_555 1_555
O5E Eu1E 1_555 1_555
O6E Eu1A_2 1_555 1_555
O7G Eu1G 1_555 1_555

#END
