
#######################################################################
#
#                 Cambridge Crystallographic Data Centre
#                                CCDC 
#
#######################################################################
#
# If this CIF has been generated from an entry in the Cambridge 
# Structural Database, then it will include bibliographic, chemical, 
# crystal, experimental, refinement or atomic coordinate data resulting 
# from the CCDC's data processing and validation procedures.
#
#######################################################################

data_ENANIS
_chemical_formula_moiety         '(C18 H12 Cu1 N6 O4)n,0.75(C1 O2)'
_chemical_name_systematic        
'catena-[bis(\m-4-(1H-1,2,4-triazol-1-yl)benzoato)-copper carbon dioxide]'
_symmetry_cell_setting           orthorhombic
_symmetry_space_group_name_H-M   'P n n a'
_symmetry_Int_Tables_number      52
_space_group_name_Hall           '-P 2a 2bc'
loop_
_symmetry_equiv_pos_site_id
_symmetry_equiv_pos_as_xyz
1 x,y,z
2 1/2-x,-y,z
3 1/2-x,1/2+y,1/2-z
4 x,1/2-y,1/2-z
5 -x,-y,-z
6 1/2+x,y,-z
7 1/2+x,1/2-y,1/2+z
8 -x,1/2+y,1/2+z
_cell_length_a                   12.3348(9)
_cell_length_b                   9.9360(7)
_cell_length_c                   17.8259(14)
_cell_angle_alpha                90
_cell_angle_beta                 90
_cell_angle_gamma                90
_cell_volume                     2184.72
_exptl_crystal_colour            'dark blue'
_exptl_crystal_description       block
_cell_formula_units_Z            4
loop_
_atom_site_label
_atom_site_type_symbol
_atom_site_fract_x
_atom_site_fract_y
_atom_site_fract_z
Cu1 Cu 0.2500 0.5000 -0.16184(4)
O1 O 0.3545(2) 0.4486(3) -0.08278(18)
O2 O 0.2796(3) 0.2600(3) -0.12300(19)
N1 N 0.5288(3) 0.0489(5) 0.1687(2)
N2 N 0.4720(4) -0.0448(7) 0.2086(4)
N3 N 0.6330(3) -0.0048(4) 0.2623(2)
C1 C 0.3385(3) 0.3218(4) -0.0780(2)
C2 C 0.3936(4) 0.2481(4) -0.0154(3)
C3 C 0.4755(4) 0.3064(5) 0.0248(3)
H1 H 0.5009 0.3912 0.0113
C4 C 0.5207(4) 0.2406(5) 0.0855(3)
H2 H 0.5765 0.2803 0.1127
C5 C 0.4821(4) 0.1149(5) 0.1051(3)
C6 C 0.4011(6) 0.0546(6) 0.0658(4)
H3 H 0.3757 -0.0302 0.0792
C7 C 0.3575(5) 0.1231(6) 0.0053(4)
H4 H 0.3020 0.0831 -0.0221
C8 C 0.5371(4) -0.0724(7) 0.2640(4)
H5 H 0.5194 -0.1333 0.3017
C9 C 0.6241(3) 0.0696(5) 0.2009(3)
H6 H 0.6771 0.1279 0.1830
O1A O 0.1455(2) 0.5514(3) -0.08278(18)
O2A O 0.2204(3) 0.7400(3) -0.12300(19)
N1A N -0.0288(3) 0.9511(5) 0.1687(2)
N2A N 0.0280(4) 1.0448(7) 0.2086(4)
N3A N -0.1330(3) 1.0048(4) 0.2623(2)
C1A C 0.1615(3) 0.6782(4) -0.0780(2)
C2A C 0.1064(4) 0.7519(4) -0.0154(3)
C3A C 0.0245(4) 0.6936(5) 0.0248(3)
H1A H -0.0009 0.6088 0.0113
C4A C -0.0207(4) 0.7594(5) 0.0855(3)
H2A H -0.0765 0.7197 0.1127
C5A C 0.0179(4) 0.8851(5) 0.1051(3)
C6A C 0.0989(6) 0.9454(6) 0.0658(4)
H3A H 0.1243 1.0302 0.0792
C7A C 0.1425(5) 0.8769(6) 0.0053(4)
H4A H 0.1980 0.9169 -0.0221
C8A C -0.0371(4) 1.0724(7) 0.2640(4)
H5A H -0.0194 1.1333 0.3017
C9A C -0.1241(3) 0.9304(5) 0.2009(3)
H6A H -0.1771 0.8721 0.1830
Cu1F Cu -0.2500 1.0000 0.33816(4)
Cu1F_2 Cu 0.7500 0.0000 0.33816(4)
N3F N 0.1330(3) 0.5048(4) -0.2377(2)
N3G N 0.3670(3) 0.4952(4) -0.2377(2)
O3 O 0.6983(9) 0.4225(10) 0.8980(8)
C10 C 0.7500 0.5000 0.8960(13)
O3A O 0.8017(9) 0.5775(10) 0.8980(8)
O4 O 0.768(2) 0.316(2) 0.7925(10)
C11 C 0.772(2) 0.2500 0.7500
O4C O 0.768(2) 0.184(2) 0.7075(10)
loop_
_geom_bond_atom_site_label_1
_geom_bond_atom_site_label_2
_geom_bond_site_symmetry_1
_geom_bond_site_symmetry_2
Cu1 O1 1_555 1_555
O1 C1 1_555 1_555
O2 Cu1 1_555 1_555
N1 N2 1_555 1_555
N2 C8 1_555 1_555
N3 C8 1_555 1_555
C1 O2 1_555 1_555
C2 C1 1_555 1_555
C3 C2 1_555 1_555
H1 C3 1_555 1_555
C4 C3 1_555 1_555
H2 C4 1_555 1_555
C5 N1 1_555 1_555
C6 C5 1_555 1_555
H3 C6 1_555 1_555
C7 C2 1_555 1_555
H4 C7 1_555 1_555
C8 H5 1_555 1_555
C9 N1 1_555 1_555
H6 C9 1_555 1_555
O3 C10 1_555 1_555
C10 O3A 1_555 1_555
O4 C11 1_555 1_555
C11 O4C 1_555 1_555
O1A Cu1 1_555 1_555
O2A Cu1 1_555 1_555
N1A N2A 1_555 1_555
N2A C8A 1_555 1_555
N3A C8A 1_555 1_555
C1A O1A 1_555 1_555
C2A C1A 1_555 1_555
C3A C2A 1_555 1_555
H1A C3A 1_555 1_555
C4A C3A 1_555 1_555
H2A C4A 1_555 1_555
C5A N1A 1_555 1_555
C6A C5A 1_555 1_555
H3A C6A 1_555 1_555
C7A C2A 1_555 1_555
H4A C7A 1_555 1_555
C8A H5A 1_555 1_555
C9A N1A 1_555 1_555
H6A C9A 1_555 1_555
Cu1F N3A 1_555 1_555
Cu1F_2 N3 1_555 1_555
N3F Cu1 1_555 1_555
N3G Cu1 1_555 1_555
N3 C9 1_555 1_555
C4 C5 1_555 1_555
C6 C7 1_555 1_555
O2A C1A 1_555 1_555
N3A C9A 1_555 1_555
C4A C5A 1_555 1_555
C6A C7A 1_555 1_555

#END
