
#######################################################################
#
#                 Cambridge Crystallographic Data Centre
#                                CCDC 
#
#######################################################################
#
# If this CIF has been generated from an entry in the Cambridge 
# Structural Database, then it will include bibliographic, chemical, 
# crystal, experimental, refinement or atomic coordinate data resulting 
# from the CCDC's data processing and validation procedures.
#
#######################################################################

data_CODVAU
_chemical_formula_moiety         '(C44 H26 Cd2 O10)n,n(C3 H7 N1 O1)'
_chemical_name_systematic        
"catena-((\m~8~-4,4',4'',4'''-Pyrene-1,3,6,8-tetrayltetrabenzoato)-diaqua-di-cadmium dimethylformamide solvate)"
_symmetry_cell_setting           monoclinic
_symmetry_space_group_name_H-M   'P 21/c'
_symmetry_Int_Tables_number      14
_space_group_name_Hall           '-P 2ybc'
loop_
_symmetry_equiv_pos_site_id
_symmetry_equiv_pos_as_xyz
1 x,y,z
2 -x,1/2+y,1/2-z
3 -x,-y,-z
4 x,1/2-y,1/2+z
_cell_length_a                   7.15100(10)
_cell_length_b                   24.8988(4)
_cell_length_c                   28.6097(4)
_cell_angle_alpha                90
_cell_angle_beta                 93.4060(10)
_cell_angle_gamma                90
_cell_volume                     5085
_exptl_crystal_colour            orange
_exptl_crystal_description       block-like
_cell_formula_units_Z            4
loop_
_atom_site_label
_atom_site_type_symbol
_atom_site_fract_x
_atom_site_fract_y
_atom_site_fract_z
C1 C 0.338(4) 0.5046(6) 0.8114(5)
C2 C 0.3951(14) 0.4650(4) 0.8495(4)
C3 C 0.5787(14) 0.4659(5) 0.8689(4)
H1 H 0.6647 0.4899 0.8575
C4 C 0.6332(14) 0.4316(4) 0.9049(4)
H2 H 0.7555 0.4332 0.9178
C5 C 0.5093(13) 0.3947(4) 0.9224(3)
C6 C 0.3254(15) 0.3938(5) 0.9028(4)
H3 H 0.2399 0.3693 0.9137
C7 C 0.2706(16) 0.4287(5) 0.8675(4)
H4 H 0.1470 0.4281 0.8554
C8 C 0.5623(15) 0.3577(5) 0.9623(3)
C9 C 0.4558(13) 0.3606(4) 1.0014(3)
H5 H 0.3542 0.3840 1.0010
C10 C 0.4970(14) 0.3299(4) 1.0405(3)
C11 C 0.3855(13) 0.3400(4) 1.0829(3)
C12 C 0.1899(13) 0.3389(5) 1.0776(3)
H6 H 0.1305 0.3302 1.0488
C13 C 0.0830(16) 0.3509(5) 1.1161(4)
H7 H -0.0470 0.3498 1.1126
C14 C 0.1671(14) 0.3641(4) 1.1582(3)
C15 C 0.055(4) 0.3825(7) 1.1975(11)
C16 C 0.3602(14) 0.3650(4) 1.1632(4)
H8 H 0.4182 0.3739 1.1921
C17 C 0.4676(14) 0.3533(4) 1.1270(3)
H9 H 0.5974 0.3541 1.1316
C18 C 0.644(5) 0.2925(13) 1.0414(8)
C19 C 0.6881(18) 0.2568(5) 1.0800(4)
H10 H 0.6166 0.2585 1.1061
C20 C 0.8284(15) 0.2212(4) 1.0798(4)
H11 H 0.8535 0.1996 1.1060
C21 C 0.941(3) 0.2156(8) 1.0403(5)
C22 C 0.9031(13) 0.2507(4) 1.0013(3)
C23 C 0.7531(12) 0.2885(4) 1.0018(3)
C24 C 0.7154(19) 0.3226(6) 0.9625(4)
C25 C 0.8289(19) 0.3165(6) 0.9225(5)
H12 H 0.8044 0.3382 0.8964
C26 C 0.9691(17) 0.2804(5) 0.9222(4)
H13 H 1.0386 0.2780 0.8958
C27 C 1.014(3) 0.2457(9) 0.9609(6)
C28 C 1.1633(13) 0.2093(4) 0.9621(4)
C29 C 1.1981(15) 0.1780(5) 1.0006(4)
H14 H 1.2970 0.1538 1.0008
C30 C 1.0940(14) 0.1807(4) 1.0392(3)
C31 C 1.1391(15) 0.1399(4) 1.0778(3)
C32 C 1.0028(16) 0.1070(6) 1.0954(4)
H15 H 0.8778 0.1124 1.0856
C33 C 1.0493(15) 0.0662(5) 1.1273(4)
H16 H 0.9564 0.0437 1.1375
C34 C 1.2320(15) 0.0593(5) 1.1435(4)
C35 C 1.2818(13) 0.0178(4) 1.1813(3)
C36 C 1.3699(17) 0.0916(6) 1.1286(5)
H17 H 1.4937 0.0868 1.1397
C37 C 1.3216(15) 0.1329(5) 1.0959(4)
H18 H 1.4148 0.1557 1.0863
C38 C 1.2767(13) 0.1996(4) 0.9204(3)
C39 C 1.4718(14) 0.2004(4) 0.9258(4)
H19 H 1.5305 0.2125 0.9537
C40 C 1.5767(15) 0.1837(5) 0.8905(4)
H20 H 1.7067 0.1852 0.8939
C41 C 1.4915(18) 0.1649(5) 0.8501(3)
C42 C 1.6062(11) 0.1418(3) 0.8126(3)
C43 C 1.2994(14) 0.1650(5) 0.8417(4)
H21 H 1.2436 0.1534 0.8133
C44 C 1.1940(13) 0.1829(4) 0.8774(3)
H22 H 1.0642 0.1839 0.8727
Cd1 Cd 0.19646(6) 0.57891(2) 0.746200(16)
Cd2 Cd 0.65257(7) 0.53774(2) 0.735020(19)
H23 H 0.823(8) 0.4369(6) 0.759(3)
H24 H 0.9496(18) 0.471(2) 0.765(3)
O1 O 0.1189(6) 0.40704(19) 1.23213(16)
O2 O -0.1167(7) 0.3675(2) 1.19322(17)
O3 O 1.7786(7) 0.1460(2) 0.81681(18)
O4 O 1.5276(6) 0.1130(2) 0.78014(16)
O5 O 0.8067(8) 0.5448(3) 0.6686(2)
H25 H 0.7479 0.5274 0.6468
H26 H 0.8116 0.5778 0.6610
O6 O 0.8310(8) 0.4706(2) 0.7617(3)
O7 O 1.4498(8) 0.0191(2) 1.1970(2)
O8 O 0.1712(8) 0.5007(2) 0.7972(2)
O9 O 0.4496(7) 0.5346(2) 0.79352(18)
O10 O 1.1635(7) -0.0181(2) 1.18858(18)
Cd1A Cd 1.80354(6) 0.07891(2) 0.753800(16)
Cd1B Cd -0.19646(6) 0.42109(2) 1.253800(16)
Cd1C Cd 1.19646(6) -0.07891(2) 1.246200(16)
Cd2A Cd 1.34743(7) 0.03774(2) 0.764980(19)
Cd2B Cd 0.34743(7) 0.46226(2) 1.264980(19)
Cd2C Cd 1.65257(7) -0.03774(2) 1.235020(19)
O1B O -0.1189(6) 0.59296(19) 0.76787(16)
O1B_2 O 0.8811(6) 0.59296(19) 0.76787(16)
O2B O 0.1167(7) 0.6325(2) 0.80678(17)
O3A O 0.2214(7) 0.6460(2) 0.68319(18)
O4A O 0.4724(6) 0.6130(2) 0.71986(16)
O7C O 0.4498(8) 0.4809(2) 0.6970(2)
O10C O 0.1635(7) 0.5181(2) 0.68858(18)
C87 C 0.127(2) 0.9315(9) 0.0609(7)
H49 H 0.1194 0.9284 0.0941
H50 H 0.0823 0.8990 0.0460
H51 H 0.0521 0.9612 0.0495
C88 C 0.386(3) 0.9315(12) 0.0023(6)
H52 H 0.3700 0.8943 -0.0059
H53 H 0.5159 0.9410 0.0012
H54 H 0.3127 0.9533 -0.0196
C89 C 0.453(3) 0.9468(8) 0.0841(6)
H55 H 0.4105 0.9476 0.1142
N1 N 0.324(2) 0.9405(8) 0.0500(5)
O11 O 0.628(2) 0.9518(7) 0.0809(4)
C45? C 0.986(2) 0.1552(6) 1.1184(6)
C46? C 0.8861(17) 0.1105(7) 1.1319(7)
H27? H 0.7567 0.1093 1.1265
C47? C 0.980(2) 0.0675(6) 1.1536(7)
H28? H 0.9136 0.0375 1.1627
C48? C 1.174(2) 0.0693(7) 1.1617(7)
C49? C 1.2731(17) 0.1140(8) 1.1481(8)
H29? H 1.4025 0.1152 1.1536
C50? C 1.179(2) 0.1570(6) 1.1265(7)
H30? H 1.2456 0.1870 1.1174
C51? C 0.343(10) 0.4897(18) 0.8027(16)
C52? C 0.469(3) 0.4532(9) 0.8325(8)
C53? C 0.655(3) 0.4624(9) 0.8480(8)
H31? H 0.7107 0.4951 0.8416
C54? C 0.758(3) 0.4236(8) 0.8727(8)
H32? H 0.8821 0.4301 0.8830
C55? C 0.675(2) 0.3749(7) 0.8819(7)
C56? C 0.489(3) 0.3651(9) 0.8666(9)
H33? H 0.4338 0.3323 0.8726
C57? C 0.389(3) 0.4046(9) 0.8422(10)
H34? H 0.2644 0.3983 0.8323
C58? C 0.615(4) 0.3426(14) 0.9764(9)
H35? H 0.5501 0.3710 0.9619
C59? C 0.572(4) 0.3272(13) 1.0215(10)
H36? H 0.4816 0.3466 1.0364
C60? C 0.660(12) 0.283(3) 1.045(2)
C61? C 0.464(3) 0.2939(9) 1.1162(7)
C62? C 0.278(3) 0.2959(10) 1.1011(7)
H37? H 0.2379 0.2810 1.0725
C63? C 0.150(4) 0.3201(11) 1.1288(8)
H38? H 0.0232 0.3202 1.1192
C64? C 0.210(3) 0.3443(11) 1.1707(9)
C65? C 0.052(10) 0.367(2) 1.196(3)
C66? C 0.396(3) 0.3416(11) 1.1868(8)
H39? H 0.4373 0.3570 1.2152
C67? C 0.518(3) 0.3153(10) 1.1592(8)
H40? H 0.6422 0.3119 1.1701
C68? C 0.804(3) 0.2584(9) 1.0217(6)
C69? C 0.619(5) 0.2663(15) 1.0904(10)
C70? C 0.727(3) 0.2252(9) 1.1110(8)
H41? H 0.6976 0.2141 1.1407
C71? C 0.910(7) 0.2173(19) 1.0450(11)
C72? C 0.848(3) 0.2747(9) 0.9767(6)
C73? C 0.753(5) 0.3162(16) 0.9526(10)
C74? C 0.931(2) 0.3060(8) 0.8867(6)
H42? H 0.9574 0.3162 0.8566
C75? C 0.784(4) 0.3312(11) 0.9069(9)
C76? C 1.043(3) 0.2660(8) 0.9086(8)
C77? C 0.995(7) 0.251(2) 0.9535(13)
C78? C 1.084(4) 0.2056(11) 0.9746(9)
H43? H 1.1764 0.1878 0.9591
C79? C 0.877(3) 0.1989(10) 1.0909(7)
C80? C 1.034(3) 0.1873(12) 1.0187(8)
H44? H 1.0833 0.1551 1.0306
C81? C 1.190(2) 0.2393(9) 0.8821(7)
C82? C 1.376(3) 0.2376(9) 0.8985(8)
H45? H 1.4148 0.2539 0.9266
C83? C 1.503(3) 0.2110(10) 0.8719(9)
H46? H 1.6291 0.2153 0.8805
C84? C 1.455(3) 0.1779(14) 0.8328(10)
C85? C 1.265(3) 0.1844(12) 0.8159(9)
H47? H 1.2270 0.1700 0.7869
C86? C 1.134(3) 0.2117(9) 0.8417(7)
H48? H 1.0078 0.2113 0.8315
loop_
_geom_bond_atom_site_label_1
_geom_bond_atom_site_label_2
_geom_bond_site_symmetry_1
_geom_bond_site_symmetry_2
C1 C2 1_555 1_555
C2 C3 1_555 1_555
C3 H1 1_555 1_555
C4 C3 1_555 1_555
H2 C4 1_555 1_555
C5 C4 1_555 1_555
C6 C5 1_555 1_555
H3 C6 1_555 1_555
C7 C2 1_555 1_555
H4 C7 1_555 1_555
C8 C5 1_555 1_555
C9 C8 1_555 1_555
H5 C9 1_555 1_555
C10 C9 1_555 1_555
C11 C10 1_555 1_555
C12 C11 1_555 1_555
H6 C12 1_555 1_555
C13 C12 1_555 1_555
H7 C13 1_555 1_555
C14 C13 1_555 1_555
C15 C14 1_555 1_555
C16 C14 1_555 1_555
H8 C16 1_555 1_555
C17 C11 1_555 1_555
H9 C17 1_555 1_555
C18 C10 1_555 1_555
C19 C18 1_555 1_555
H10 C19 1_555 1_555
C20 C19 1_555 1_555
H11 C20 1_555 1_555
C21 C20 1_555 1_555
C22 C21 1_555 1_555
C23 C18 1_555 1_555
C24 C8 1_555 1_555
C25 C24 1_555 1_555
H12 C25 1_555 1_555
C26 C25 1_555 1_555
H13 C26 1_555 1_555
C27 C22 1_555 1_555
C28 C27 1_555 1_555
C29 C28 1_555 1_555
H14 C29 1_555 1_555
C30 C21 1_555 1_555
C31 C30 1_555 1_555
C32 C31 1_555 1_555
H15 C32 1_555 1_555
C33 C32 1_555 1_555
H16 C33 1_555 1_555
C34 C33 1_555 1_555
C35 C34 1_555 1_555
C36 C34 1_555 1_555
H17 C36 1_555 1_555
C37 C31 1_555 1_555
H18 C37 1_555 1_555
C38 C28 1_555 1_555
C39 C38 1_555 1_555
H19 C39 1_555 1_555
C40 C39 1_555 1_555
H20 C40 1_555 1_555
C41 C40 1_555 1_555
C42 C41 1_555 1_555
C43 C41 1_555 1_555
H21 C43 1_555 1_555
C44 C38 1_555 1_555
H22 C44 1_555 1_555
Cd1 O8 1_555 1_555
Cd2 O5 1_555 1_555
H23 O6 1_555 1_555
H24 O6 1_555 1_555
O1 C15 1_555 1_555
O2 C15 1_555 1_555
O3 C42 1_555 1_555
O4 C42 1_555 1_555
O5 H25 1_555 1_555
H26 O5 1_555 1_555
O6 Cd2 1_555 1_555
O7 C35 1_555 1_555
O8 C1 1_555 1_555
O9 C1 1_555 1_555
O10 C35 1_555 1_555
C87 H49 1_555 1_555
H50 C87 1_555 1_555
H51 C87 1_555 1_555
C88 H52 1_555 1_555
H53 C88 1_555 1_555
H54 C88 1_555 1_555
C89 H55 1_555 1_555
N1 C87 1_555 1_555
O11 C89 1_555 1_555
Cd1A O3 1_555 1_555
Cd1B O1 1_555 1_555
Cd1C O10 1_555 1_555
Cd2A O4 1_555 1_555
Cd2B O1 1_555 1_555
Cd2C O7 1_555 1_555
O1B Cd1 1_555 1_555
O1B_2 Cd2 1_555 1_555
O2B Cd1 1_555 1_555
O3A Cd1 1_555 1_555
O4A Cd1 1_555 1_555
O7C Cd2 1_555 1_555
O10C Cd1 1_555 1_555
C6 C7 1_555 1_555
C16 C17 1_555 1_555
C22 C23 1_555 1_555
C23 C24 1_555 1_555
C26 C27 1_555 1_555
C29 C30 1_555 1_555
C36 C37 1_555 1_555
C43 C44 1_555 1_555
Cd1 O9 1_555 1_555
Cd2 O9 1_555 1_555
Cd2 O4A 1_555 1_555
O2 Cd1B 1_555 1_555
O4 Cd1A 1_555 1_555
C88 N1 1_555 1_555
C89 N1 1_555 1_555

#END
