
#######################################################################
#
#                 Cambridge Crystallographic Data Centre
#                                CCDC 
#
#######################################################################
#
# If this CIF has been generated from an entry in the Cambridge 
# Structural Database, then it will include bibliographic, chemical, 
# crystal, experimental, refinement or atomic coordinate data resulting 
# from the CCDC's data processing and validation procedures.
#
#######################################################################

data_WORREC
_chemical_name_common            UTSA-60
_chemical_formula_moiety         '(C18 H14 Cu2 O10)n'
_chemical_name_systematic        
"catena-[(\m-3,3',3'',3'''-benzene-1,2,4,5-tetrayltetrakisprop-2-enoato)-diaqua-di-copper unknown solvate]"
_symmetry_cell_setting           orthorhombic
_symmetry_space_group_name_H-M   'I m m a'
_symmetry_Int_Tables_number      74
_space_group_name_Hall           '-I 2b 2'
loop_
_symmetry_equiv_pos_site_id
_symmetry_equiv_pos_as_xyz
1 x,y,z
2 -x,1/2-y,z
3 -x,1/2+y,-z
4 x,-y,-z
5 1/2+x,1/2+y,1/2+z
6 1/2-x,-y,1/2+z
7 1/2-x,y,1/2-z
8 1/2+x,1/2-y,1/2-z
9 -x,-y,-z
10 x,1/2+y,-z
11 x,1/2-y,z
12 -x,y,z
13 1/2-x,1/2-y,1/2-z
14 1/2+x,y,1/2-z
15 1/2+x,-y,1/2+z
16 1/2-x,1/2+y,1/2+z
_cell_length_a                   18.8261(10)
_cell_length_b                   22.1934(9)
_cell_length_c                   10.0062(8)
_cell_angle_alpha                90
_cell_angle_beta                 90
_cell_angle_gamma                90
_cell_volume                     4180.74
_exptl_crystal_colour            green
_cell_formula_units_Z            4
loop_
_atom_site_label
_atom_site_type_symbol
_atom_site_fract_x
_atom_site_fract_y
_atom_site_fract_z
_atom_site_U_iso_or_equiv
_atom_site_thermal_displace_type
Cu1 Cu 0.29546(4) 0.2500 0.15013(9) 0.0440 Uani
O1 O 0.15621(15) 0.31186(12) 0.2455(4) 0.0612 Uani
O2 O 0.23412(15) 0.31294(12) 0.0773(3) 0.0633 Uani
O3 O 0.3702(3) 0.2500 -0.0101(7) 0.1157 Uani
H1 H 0.3485 0.2500 -0.0849 0.1740 Uiso
H2 H 0.4149 0.2500 -0.0247 0.1740 Uiso
C1 C 0.1785(2) 0.33097(19) 0.1385(6) 0.0547 Uani
C2 C 0.1398(2) 0.38204(18) 0.0716(5) 0.0623 Uani
H3 H 0.1597 0.4007 -0.0028 0.0750 Uiso
C3 C 0.0770(2) 0.40094(18) 0.1181(5) 0.0620 Uani
H4 H 0.0576 0.3811 0.1914 0.0740 Uiso
C4 C 0.0364(2) 0.45217(16) 0.0589(5) 0.0597 Uani
C5 C 0.0722(3) 0.5000 0.0000 0.0620 Uani
H5 H 0.1216 0.5000 0.0000 0.0750 Uiso
O1C O 0.15621(15) 0.68814(12) -0.2455(4) 0.0612 Uani
O2C O 0.23412(15) 0.68706(12) -0.0773(3) 0.0633 Uani
C1C C 0.1785(2) 0.66903(19) -0.1385(6) 0.0547 Uani
C2C C 0.1398(2) 0.61796(18) -0.0716(5) 0.0623 Uani
H3C H 0.1597 0.5993 0.0028 0.0750 Uiso
C3C C 0.0770(2) 0.59906(18) -0.1181(5) 0.0620 Uani
H4C H 0.0576 0.6189 -0.1914 0.0740 Uiso
C4C C 0.0364(2) 0.54783(16) -0.0589(5) 0.0597 Uani
O1H O -0.15621(15) 0.68814(12) -0.2455(4) 0.0612 Uani
O2H O -0.23412(15) 0.68706(12) -0.0773(3) 0.0633 Uani
C1H C -0.1785(2) 0.66903(19) -0.1385(6) 0.0547 Uani
C2H C -0.1398(2) 0.61796(18) -0.0716(5) 0.0623 Uani
H3H H -0.1597 0.5993 0.0028 0.0750 Uiso
C3H C -0.0770(2) 0.59906(18) -0.1181(5) 0.0620 Uani
H4H H -0.0576 0.6189 -0.1914 0.0740 Uiso
C4H C -0.0364(2) 0.54783(16) -0.0589(5) 0.0597 Uani
C5H C -0.0722(3) 0.5000 0.0000 0.0620 Uani
H5H H -0.1216 0.5000 0.0000 0.0750 Uiso
O1K O -0.15621(15) 0.31186(12) 0.2455(4) 0.0612 Uani
O2K O -0.23412(15) 0.31294(12) 0.0773(3) 0.0633 Uani
C1K C -0.1785(2) 0.33097(19) 0.1385(6) 0.0547 Uani
C2K C -0.1398(2) 0.38204(18) 0.0716(5) 0.0623 Uani
H3K H -0.1597 0.4007 -0.0028 0.0750 Uiso
C3K C -0.0770(2) 0.40094(18) 0.1181(5) 0.0620 Uani
H4K H -0.0576 0.3811 0.1914 0.0740 Uiso
C4K C -0.0364(2) 0.45217(16) 0.0589(5) 0.0597 Uani
Cu1A Cu -0.29546(4) 0.2500 0.15013(9) 0.0440 Uani
O3A O -0.3702(3) 0.2500 -0.0101(7) 0.1157 Uani
H1A H -0.3485 0.2500 -0.0849 0.1740 Uiso
H2A H -0.4149 0.2500 -0.0247 0.1740 Uiso
Cu1B Cu -0.29546(4) 0.7500 -0.15013(9) 0.0440 Uani
Cu1C Cu 0.29546(4) 0.7500 -0.15013(9) 0.0440 Uani
Cu1D Cu -0.20454(4) 0.7500 -0.34987(9) 0.0440 Uani
Cu1E Cu 0.20454(4) 0.7500 -0.34987(9) 0.0440 Uani
Cu1F Cu 0.20454(4) 0.2500 0.34987(9) 0.0440 Uani
Cu1G Cu -0.20454(4) 0.2500 0.34987(9) 0.0440 Uani
O1F O 0.34379(15) 0.31186(12) 0.2545(4) 0.0612 Uani
O1G O -0.34379(15) 0.18814(12) 0.2545(4) 0.0612 Uani
O1L O 0.34379(15) 0.18814(12) 0.2545(4) 0.0612 Uani
O1M O -0.34379(15) 0.31186(12) 0.2545(4) 0.0612 Uani
O2A O -0.23412(15) 0.18706(12) 0.0773(3) 0.0633 Uani
O2J O 0.23412(15) 0.18706(12) 0.0773(3) 0.0633 Uani
loop_
_atom_site_aniso_label
_atom_site_aniso_U_11
_atom_site_aniso_U_22
_atom_site_aniso_U_33
_atom_site_aniso_U_23
_atom_site_aniso_U_13
_atom_site_aniso_U_12
Cu1 0.0294(5) 0.0251(5) 0.0774(7) 0.000 -0.0069(4) 0.000
O1 0.0440(16) 0.0445(16) 0.095(2) 0.0138(19) -0.0032(18) 0.0120(14)
O2 0.0492(18) 0.0477(16) 0.093(2) 0.0167(18) -0.0036(17) 0.0125(14)
O3 0.089(4) 0.122(5) 0.136(5) 0.000 0.042(4) 0.000
C1 0.034(2) 0.030(2) 0.100(4) 0.007(3) -0.011(2) -0.0005(18)
C2 0.046(3) 0.037(2) 0.104(4) 0.030(3) -0.005(2) 0.0078(19)
C3 0.041(2) 0.034(2) 0.111(4) 0.023(3) -0.009(2) -0.0013(19)
C4 0.0331(19) 0.034(2) 0.112(4) 0.030(3) -0.002(2) -0.0009(17)
C5 0.036(3) 0.040(3) 0.110(5) 0.025(4) 0.000 0.000
O1C 0.044 0.0445 0.095 0.0138 0.0032 -0.012
O2C 0.0492 0.0477 0.093 0.0167 0.0036 -0.0125
C1C 0.034 0.03 0.1 0.007 0.011 0.0005
C2C 0.046 0.037 0.104 0.03 0.005 -0.0078
C3C 0.041 0.034 0.111 0.023 0.009 0.0013
C4C 0.0331 0.034 0.112 0.03 0.002 0.0009
O1H 0.044 0.0445 0.095 0.0138 -0.0032 0.012
O2H 0.0492 0.0477 0.093 0.0167 -0.0036 0.0125
C1H 0.034 0.03 0.1 0.007 -0.011 -0.0005
C2H 0.046 0.037 0.104 0.03 -0.005 0.0078
C3H 0.041 0.034 0.111 0.023 -0.009 -0.0013
C4H 0.0331 0.034 0.112 0.03 -0.002 -0.0009
C5H 0.036 0.04 0.11 0.025 0 0
O1K 0.044 0.0445 0.095 0.0138 0.0032 -0.012
O2K 0.0492 0.0477 0.093 0.0167 0.0036 -0.0125
C1K 0.034 0.03 0.1 0.007 0.011 0.0005
C2K 0.046 0.037 0.104 0.03 0.005 -0.0078
C3K 0.041 0.034 0.111 0.023 0.009 0.0013
C4K 0.0331 0.034 0.112 0.03 0.002 0.0009
Cu1A 0.0294 0.0251 0.0774 0 0.0069 0
O3A 0.089 0.122 0.136 0 -0.042 0
Cu1B 0.0294 0.0251 0.0774 0 -0.0069 0
Cu1C 0.0294 0.0251 0.0774 0 0.0069 0
Cu1D 0.0294 0.0251 0.0774 0 -0.0069 0
Cu1E 0.0294 0.0251 0.0774 0 0.0069 0
Cu1F 0.0294 0.0251 0.0774 0 -0.0069 0
Cu1G 0.0294 0.0251 0.0774 0 0.0069 0
O1F 0.044 0.0445 0.095 -0.0138 -0.0032 -0.012
O1G 0.044 0.0445 0.095 0.0138 0.0032 -0.012
O1L 0.044 0.0445 0.095 0.0138 -0.0032 0.012
O1M 0.044 0.0445 0.095 -0.0138 0.0032 0.012
O2A 0.0492 0.0477 0.093 -0.0167 0.0036 0.0125
O2J 0.0492 0.0477 0.093 -0.0167 -0.0036 -0.0125
loop_
_geom_bond_atom_site_label_1
_geom_bond_atom_site_label_2
_geom_bond_site_symmetry_1
_geom_bond_site_symmetry_2
Cu1 O2 1_555 1_555
O1 C1 1_555 1_555
O2 C1 1_555 1_555
O3 Cu1 1_555 1_555
H1 O3 1_555 1_555
H2 O3 1_555 1_555
C1 C2 1_555 1_555
C2 H3 1_555 1_555
C3 C2 1_555 1_555
H4 C3 1_555 1_555
C4 C3 1_555 1_555
C5 C4 1_555 1_555
H5 C5 1_555 1_555
O1C C1C 1_555 1_555
O2C C1C 1_555 1_555
C1C C2C 1_555 1_555
C2C H3C 1_555 1_555
C3C C2C 1_555 1_555
H4C C3C 1_555 1_555
C4C C5 1_555 1_555
O1H C1H 1_555 1_555
O2H C1H 1_555 1_555
C1H C2H 1_555 1_555
C2H H3H 1_555 1_555
C3H C2H 1_555 1_555
H4H C3H 1_555 1_555
C4H C4C 1_555 1_555
C5H C4H 1_555 1_555
H5H C5H 1_555 1_555
O1K C1K 1_555 1_555
O2K C1K 1_555 1_555
C1K C2K 1_555 1_555
C2K H3K 1_555 1_555
C3K C2K 1_555 1_555
H4K C3K 1_555 1_555
C4K C4 1_555 1_555
Cu1A O2K 1_555 1_555
O3A Cu1A 1_555 1_555
H1A O3A 1_555 1_555
H2A O3A 1_555 1_555
Cu1B O2H 1_555 1_555
Cu1C O2C 1_555 1_555
Cu1D O1H 1_555 1_555
Cu1E O1C 1_555 1_555
Cu1F Cu1 1_555 1_555
Cu1G O1K 1_555 1_555
O1F Cu1 1_555 1_555
O1G Cu1A 1_555 1_555
O1L Cu1 1_555 1_555
O1M Cu1A 1_555 1_555
O2A Cu1A 1_555 1_555
O2J Cu1 1_555 1_555
O1 Cu1F 1_555 1_555
C3C C4C 1_555 1_555
C3H C4H 1_555 1_555
C5H C4K 1_555 1_555
C3K C4K 1_555 1_555
Cu1A Cu1G 1_555 1_555
Cu1B Cu1D 1_555 1_555
Cu1C Cu1E 1_555 1_555

#END
