
#######################################################################
#
#                 Cambridge Crystallographic Data Centre
#                                CCDC 
#
#######################################################################
#
# If this CIF has been generated from an entry in the Cambridge 
# Structural Database, then it will include bibliographic, chemical, 
# crystal, experimental, refinement or atomic coordinate data resulting 
# from the CCDC's data processing and validation procedures.
#
#######################################################################

data_NISBIC
_chemical_formula_moiety         '(C19 H12 N2 O6 Zn1)n,0.5n(C3 H7 N1 O1)'
_chemical_name_systematic        
"catena-((\m~4~-N-(3,5-dicarboxylphenyl)-N'-(4-carboxylbenzyl)imidazole)-zinc N,N-dimethylformamide solvate)"
_symmetry_cell_setting           monoclinic
_symmetry_space_group_name_H-M   'C 2/c'
_symmetry_Int_Tables_number      15
_space_group_name_Hall           '-C 2yc'
loop_
_symmetry_equiv_pos_site_id
_symmetry_equiv_pos_as_xyz
1 x,y,z
2 -x,y,1/2-z
3 1/2+x,1/2+y,z
4 1/2-x,1/2+y,1/2-z
5 -x,-y,-z
6 x,-y,1/2+z
7 1/2-x,1/2-y,-z
8 1/2+x,1/2-y,1/2+z
_cell_length_a                   25.843(3)
_cell_length_b                   8.6601(4)
_cell_length_c                   17.4254(11)
_cell_angle_alpha                90
_cell_angle_beta                 102.435(9)
_cell_angle_gamma                90
_cell_volume                     3808.37
_exptl_crystal_colour            colorless
_exptl_crystal_description       plate
_cell_formula_units_Z            8
loop_
_atom_site_label
_atom_site_type_symbol
_atom_site_fract_x
_atom_site_fract_y
_atom_site_fract_z
C20 C 0.95169(14) 0.7843(11) 0.2323(16)
H13 H 0.9210 0.8497 0.2213
O7 O 0.9396(8) 0.6591(18) 0.1974(11)
N3 N 1.0000 0.8678(11) 0.2500
C21 C 1.0000 1.0349(11) 0.2500
H14 H 0.9642 1.0718 0.2348
C20A C 1.04831(14) 0.7843(11) 0.2677(16)
H13A H 1.0790 0.8497 0.2787
O7A O 1.0604(8) 0.6591(18) 0.3026(11)
H14A H 1.0358 1.0718 0.2652
C1 C 0.8468(3) 0.4551(8) 0.1310(4)
H1 H 0.8374 0.5565 0.1124
C2 C 0.8737(3) 0.2127(8) 0.1369(4)
H2 H 0.8869 0.1171 0.1225
C3 C 0.8565(3) 0.2425(8) 0.2034(4)
H3 H 0.8555 0.1719 0.2448
C4 C 0.8182(3) 0.4768(8) 0.2565(4)
C5 C 0.7907(3) 0.3929(8) 0.3024(4)
H4 H 0.7874 0.2839 0.2972
C6 C 0.7678(3) 0.4726(8) 0.3567(4)
C7 C 0.7736(3) 0.6295(7) 0.3643(4)
H5 H 0.7567 0.6833 0.3997
C8 C 0.8040(3) 0.7119(8) 0.3206(4)
C9 C 0.8261(3) 0.6329(8) 0.2660(4)
H6 H 0.8466 0.6868 0.2355
C10 C 0.7389(3) 0.3864(8) 0.4092(4)
C11 C 0.8141(3) 0.8815(7) 0.3362(4)
C12 C 0.8818(4) 0.3649(10) 0.0153(4)
H7 H 0.8759 0.4734 -0.0023
H8 H 0.8580 0.2986 -0.0232
C13 C 0.9388(3) 0.3208(9) 0.0176(4)
C14 C 0.9810(3) 0.3770(8) 0.0727(4)
H9 H 0.9747 0.4452 0.1124
C15 C 1.0324(3) 0.3359(9) 0.0712(4)
H10 H 1.0611 0.3759 0.1095
C16 C 1.0420(3) 0.2349(9) 0.0130(5)
C17 C 0.9999(4) 0.1796(13) -0.0417(6)
H11 H 1.0063 0.1111 -0.0813
C18 C 0.9479(4) 0.2212(12) -0.0409(6)
H12 H 0.9192 0.1822 -0.0795
C19 C 1.0969(4) 0.1831(10) 0.0111(5)
N1 N 0.8406(2) 0.3946(6) 0.1998(3)
N2 N 0.8683(3) 0.3474(7) 0.0942(3)
O1 O 0.7391(2) 0.2405(5) 0.4098(3)
O2 O 0.7170(2) 0.4686(5) 0.4528(3)
O3 O 0.8439(2) 0.9531(6) 0.3026(3)
O4 O 0.7916(3) 0.9352(6) 0.3893(3)
O5 O 1.1355(2) 0.2569(6) 0.0524(3)
O6 O 1.1040(3) 0.0673(8) -0.0262(4)
Zn1 Zn 1.19453(4) 0.11573(9) 0.04548(5)
O1A O 1.2609(2) 0.2405(5) 0.0902(3)
O2G O 1.2170(2) 0.0314(5) -0.0472(3)
O4A O 1.2084(3) -0.0648(6) 0.1107(3)
Zn1A Zn 0.80547(4) 0.11573(9) 0.45452(5)
Zn1A_2 Zn 0.80547(4) 1.11573(9) 0.45452(5)
Zn1G Zn 0.69453(4) 0.38427(9) 0.54548(5)
H15? H 1.0157 1.0718 0.3017
H16? H 1.0201 1.0718 0.2134
H17? H 1.0722 0.8153 0.2336
H18? H 1.0678 0.8153 0.3219
C22? C 1.05026(14) 0.7876(11) 0.2694(18)
H19? H 1.0440 0.6783 0.2667
loop_
_geom_bond_atom_site_label_1
_geom_bond_atom_site_label_2
_geom_bond_site_symmetry_1
_geom_bond_site_symmetry_2
C1 H1 1_555 1_555
C2 H2 1_555 1_555
C3 C2 1_555 1_555
H3 C3 1_555 1_555
C4 C5 1_555 1_555
C5 H4 1_555 1_555
C6 C5 1_555 1_555
C7 C6 1_555 1_555
H5 C7 1_555 1_555
C8 C7 1_555 1_555
C9 C4 1_555 1_555
H6 C9 1_555 1_555
C10 C6 1_555 1_555
C11 C8 1_555 1_555
C12 H7 1_555 1_555
H8 C12 1_555 1_555
C13 C12 1_555 1_555
C14 C13 1_555 1_555
H9 C14 1_555 1_555
C15 C14 1_555 1_555
H10 C15 1_555 1_555
C16 C15 1_555 1_555
C17 C16 1_555 1_555
H11 C17 1_555 1_555
C18 C13 1_555 1_555
H12 C18 1_555 1_555
C19 C16 1_555 1_555
N1 C1 1_555 1_555
N2 C1 1_555 1_555
O1 C10 1_555 1_555
O2 C10 1_555 1_555
O3 C11 1_555 1_555
O4 C11 1_555 1_555
O5 C19 1_555 1_555
O6 C19 1_555 1_555
Zn1 O5 1_555 1_555
C20 H13 1_555 1_555
O7 C20 1_555 1_555
N3 C20 1_555 1_555
C21 N3 1_555 1_555
H14 C21 1_555 1_555
O1A Zn1 1_555 1_555
O2G Zn1 1_555 1_555
O4A Zn1 1_555 1_555
Zn1A O1 1_555 1_555
Zn1A_2 O4 1_555 1_555
Zn1G O2 1_555 1_555
C20A N3 1_555 1_555
H13A C20A 1_555 1_555
O7A C20A 1_555 1_555
H14A C21 1_555 1_555
C2 N2 1_555 1_555
C3 N1 1_555 1_555
C4 N1 1_555 1_555
C8 C9 1_555 1_555
C12 N2 1_555 1_555
C17 C18 1_555 1_555
O6 Zn1 1_555 1_555

#END
