
#######################################################################
#
#                 Cambridge Crystallographic Data Centre
#                                CCDC 
#
#######################################################################
#
# If this CIF has been generated from an entry in the Cambridge 
# Structural Database, then it will include bibliographic, chemical, 
# crystal, experimental, refinement or atomic coordinate data resulting 
# from the CCDC's data processing and validation procedures.
#
#######################################################################

data_VAGTOO
_chemical_name_common            MOF-645
_chemical_formula_moiety         '(C51 H35 N1 O20 Zn5)n,n(C3 H7 N1 O1)'
_chemical_name_systematic        
"catena-[bis(\m~3~-Hydroxo)-tetrakis(\m~2~-1,3-azulenedicarboxylato-O,O')-aqua-(dimethylformamide-O)-penta-zinc dimethylformamide solvate]"
_symmetry_cell_setting           monoclinic
_symmetry_space_group_name_H-M   'C 2'
_symmetry_Int_Tables_number      5
_space_group_name_Hall           'C 2y'
loop_
_symmetry_equiv_pos_site_id
_symmetry_equiv_pos_as_xyz
1 x,y,z
2 -x,y,-z
3 1/2+x,1/2+y,z
4 1/2-x,1/2+y,-z
_cell_length_a                   15.7939(2)
_cell_length_b                   16.6435(1)
_cell_length_c                   12.2880(2)
_cell_angle_alpha                90
_cell_angle_beta                 123.831(2)
_cell_angle_gamma                90
_cell_volume                     2683.19
_exptl_crystal_colour            red
_exptl_crystal_description       prism
_cell_formula_units_Z            2
loop_
_atom_site_label
_atom_site_type_symbol
_atom_site_fract_x
_atom_site_fract_y
_atom_site_fract_z
C1 C 0.09881(15) 0.88484(11) -0.75475(19)
C2 C 0.13654(16) 0.80177(11) -0.71829(19)
C3 C 0.17396(16) 0.77014(12) -0.59364(19)
H1 H 0.1753 0.7973 -0.5266
C4 C 0.2090(2) 0.69192(13) -0.5851(2)
C5 C 0.1914(2) 0.67085(14) -0.7085(2)
C6 C 0.14583(16) 0.74227(12) -0.79338(19)
C7 C 0.12057(17) 0.75151(14) -0.9206(2)
H2 H 0.0971 0.8022 -0.9571
C8 C 0.1255(2) 0.69547(18) -1.0011(3)
H3 H 0.1085 0.7143 -1.0821
C9 C 0.1527(3) 0.6146(2) -0.9753(3)
H4 H 0.1461 0.5860 -1.0446
C10 C 0.1880(4) 0.5705(2) -0.8623(3)
H5 H 0.1997 0.5163 -0.8675
C11 C 0.2082(4) 0.59555(19) -0.7430(3)
H6 H 0.2367 0.5571 -0.6768
C12 C 0.2622(2) 0.64633(13) -0.4621(2)
C13 C -0.22724(16) 0.99629(12) -1.0998(2)
C14 C -0.29478(15) 0.93555(11) -1.0992(2)
C15 C -0.25868(16) 0.87420(11) -1.0054(2)
H7 H -0.1908 0.8667 -0.9376
C16 C -0.33982(15) 0.82572(11) -1.0288(2)
C17 C -0.43096(15) 0.85789(12) -1.1378(2)
C18 C -0.40231(16) 0.92758(12) -1.1853(2)
C19 C -0.46560(19) 0.97549(16) -1.2937(3)
H8 H -0.4335 1.0155 -1.3110
C20 C -0.5725(2) 0.9712(2) -1.3811(3)
H9 H -0.6012 1.0071 -1.4508
C21 C -0.6408(2) 0.92071(19) -1.3773(3)
H10 H -0.7091 0.9296 -1.4423
C22 C -0.62205(18) 0.85897(16) -1.2908(3)
H11 H -0.6796 0.8326 -1.3060
C23 C -0.52947(17) 0.83085(13) -1.1845(2)
H12 H -0.5336 0.7884 -1.1384
C24 C -0.32779(17) 0.75353(12) -0.9510(2)
O1 O -0.05324(10) 1.08863(8) -1.14519(13)
H13 H -0.0018 1.1311 -1.1138
O2 O 0.0820(3) 0.9115(4) -0.8611(6)
O3 O 0.0908(4) 0.9255(6) -0.6764(9)
O4 O 0.25625(14) 0.67324(12) -0.37040(16)
O5 O 0.2883(3) 0.5759(2) -0.4547(3)
O6 O -0.26458(12) 1.04443(10) -1.19627(16)
O7 O -0.13626(13) 0.99945(13) -1.00339(16)
O8 O -0.24568(17) 0.74139(12) -0.84224(19)
O9 O -0.39839(14) 0.70430(10) -0.9890(2)
O10 O 0.0120(5) 1.0997(4) -1.3468(6)
N1 N 0.0000 1.1966(3) -1.5000
C25 C -0.0244(8) 1.1254(5) -1.4597(9)
H14 H -0.0746 1.0934 -1.5270
C26 C 0.0511(5) 1.2466(4) -1.3887(6)
H15 H 0.0688 1.2963 -1.4109
H16 H 0.1119 1.2204 -1.3203
H17 H 0.0073 1.2573 -1.3591
O11 O 0.0762(3) 1.0325(3) -1.2456(4)
H18 H 0.092(2) 1.012(4) -1.295(3)
H19 H 0.1236(15) 1.031(5) -1.1664(13)
Zn1 Zn 0.0000 0.999950(16) -1.0000
Zn2 Zn -0.185810(15) 1.137710(11) -1.187740(19)
Zn3 Zn -0.070420(18) 1.039510(13) -1.30039(2)
C1A C -0.09881(15) 0.88484(11) -1.24525(19)
C2A C -0.13654(16) 0.80177(11) -1.28171(19)
C3A C -0.17396(16) 0.77014(12) -1.40636(19)
H1A H -0.1753 0.7973 -1.4734
C4A C -0.2090(2) 0.69192(13) -1.4149(2)
C5A C -0.1914(2) 0.67085(14) -1.2915(2)
C6A C -0.14583(16) 0.74227(12) -1.20662(19)
C7A C -0.12057(17) 0.75151(14) -1.0794(2)
H2A H -0.0971 0.8022 -1.0429
C8A C -0.1255(2) 0.69547(18) -0.9989(3)
H3A H -0.1085 0.7143 -0.9179
C9A C -0.1527(3) 0.6146(2) -1.0247(3)
H4A H -0.1461 0.5860 -0.9554
C10A C -0.1880(4) 0.5705(2) -1.1377(3)
H5A H -0.1997 0.5163 -1.1325
C11A C -0.2082(4) 0.59555(19) -1.2570(3)
H6A H -0.2367 0.5571 -1.3232
C12A C -0.2622(2) 0.64633(13) -1.5379(2)
C13A C 0.22724(16) 0.99629(12) -0.9002(2)
C14A C 0.29478(15) 0.93555(11) -0.9008(2)
C15A C 0.25868(16) 0.87420(11) -0.9946(2)
H7A H 0.1908 0.8667 -1.0624
C16A C 0.33982(15) 0.82572(11) -0.9712(2)
C17A C 0.43096(15) 0.85789(12) -0.8622(2)
C18A C 0.40231(16) 0.92758(12) -0.8147(2)
C19A C 0.46560(19) 0.97549(16) -0.7063(3)
H8A H 0.4335 1.0155 -0.6890
C20A C 0.5725(2) 0.9712(2) -0.6189(3)
H9A H 0.6012 1.0071 -0.5492
C21A C 0.6408(2) 0.92071(19) -0.6227(3)
H10A H 0.7091 0.9296 -0.5577
C22A C 0.62205(18) 0.85897(16) -0.7092(3)
H11A H 0.6796 0.8326 -0.6940
C23A C 0.52947(17) 0.83085(13) -0.8155(2)
H12A H 0.5336 0.7884 -0.8616
C24A C 0.32779(17) 0.75353(12) -1.0490(2)
O1A O 0.05324(10) 1.08863(8) -0.85481(13)
H13A H 0.0018 1.1311 -0.8862
O2A O -0.0820(3) 0.9115(4) -1.1389(6)
O3A O -0.0908(4) 0.9255(6) -1.3236(9)
O4A O -0.25625(14) 0.67324(12) -1.62960(16)
O4B O -0.24375(14) 1.17324(12) -1.37040(16)
O4C O 0.24375(14) 1.17324(12) -0.62960(16)
O5A O -0.2883(3) 0.5759(2) -1.5453(3)
O5B O -0.2117(3) 1.0759(2) -1.4547(3)
O5C O 0.2117(3) 1.0759(2) -0.5453(3)
O6A O 0.26458(12) 1.04443(10) -0.80373(16)
O7A O 0.13626(13) 0.99945(13) -0.99661(16)
O8A O 0.24568(17) 0.74139(12) -1.15776(19)
O8C O -0.25432(17) 1.24139(12) -1.15776(19)
O8B O 0.25432(17) 1.24139(12) -0.84224(19)
O9A O 0.39839(14) 0.70430(10) -1.0110(2)
O9C O -0.10161(14) 1.20430(10) -1.0110(2)
O9B O 0.10161(14) 1.20430(10) -0.9890(2)
O10A O -0.0120(5) 1.0997(4) -1.6532(6)
O10A_2 O -0.0120(5) 1.0997(4) -0.6532(6)
C25A C 0.0244(8) 1.1254(5) -1.5403(9)
H14A H 0.0746 1.0934 -1.4730
C26A C -0.0511(5) 1.2466(4) -1.6113(6)
H15A H -0.0688 1.2963 -1.5891
H16A H -0.1119 1.2204 -1.6797
H17A H -0.0073 1.2573 -1.6409
O11A O -0.0762(3) 1.0325(3) -0.7544(4)
H18A H -0.092(2) 1.012(4) -0.705(3)
H19A H -0.1236(15) 1.031(5) -0.8336(13)
Zn2A Zn 0.185810(15) 1.137710(11) -0.812260(19)
Zn2B Zn 0.314190(15) 0.637710(11) -0.187740(19)
Zn2C Zn -0.314190(15) 0.637710(11) -0.812260(19)
Zn2C_2 Zn -0.314190(15) 0.637710(11) -1.812260(19)
Zn2B_2 Zn 0.314190(15) 0.637710(11) -1.187740(19)
Zn3A Zn 0.070420(18) 1.039510(13) -0.69961(2)
Zn3B Zn 0.429580(18) 0.539510(13) -0.30039(2)
Zn3A_2 Zn 0.070420(18) 1.039510(13) -1.69961(2)
Zn3C Zn -0.429580(18) 0.539510(13) -1.69961(2)
N2 N 1.0000 0.8283(3) 0.5000
C27 C 1.0000 0.7440(4) 0.5000
C28 C 0.9186(10) 0.8569(10) 0.3800(10)
C29 C 1.0774(8) 0.8721(6) 0.5951(9)
O12 O 0.9103(5) 0.9403(5) 0.3918(6)
C28A C 1.0814(10) 0.8569(10) 0.6200(10)
C29A C 0.9226(8) 0.8721(6) 0.4049(9)
O12A O 1.0897(5) 0.9403(5) 0.6082(6)
H20? H 0.9449 0.7248 0.4162
H21? H 0.9915 0.7248 0.5670
H22? H 1.0635 0.7248 0.5167
H23? H 0.8802 0.8124 0.3245
H24? H 1.0558 0.8886 0.6611
H25? H 0.8753 0.8896 0.3940
H26? H 1.1303 0.8418 0.6623
O13? O 0.9536(3) 0.9046(4) 0.8733(6)
O14? O 0.8793(4) 0.9300(6) 0.6553(9)
O15? O 0.6620(3) 0.5958(2) 0.4502(3)
loop_
_geom_bond_atom_site_label_1
_geom_bond_atom_site_label_2
_geom_bond_site_symmetry_1
_geom_bond_site_symmetry_2
C1 C2 1_555 1_555
C2 C3 1_555 1_555
C3 H1 1_555 1_555
C4 C3 1_555 1_555
C5 C4 1_555 1_555
C6 C2 1_555 1_555
C7 C6 1_555 1_555
H2 C7 1_555 1_555
C8 C7 1_555 1_555
H3 C8 1_555 1_555
C9 C8 1_555 1_555
H4 C9 1_555 1_555
C10 C9 1_555 1_555
H5 C10 1_555 1_555
C11 C5 1_555 1_555
H6 C11 1_555 1_555
C12 C4 1_555 1_555
C13 C14 1_555 1_555
C14 C15 1_555 1_555
C15 H7 1_555 1_555
C16 C15 1_555 1_555
C17 C16 1_555 1_555
C18 C14 1_555 1_555
C19 C18 1_555 1_555
H8 C19 1_555 1_555
C20 C19 1_555 1_555
H9 C20 1_555 1_555
C21 C20 1_555 1_555
H10 C21 1_555 1_555
C22 C21 1_555 1_555
H11 C22 1_555 1_555
C23 C17 1_555 1_555
H12 C23 1_555 1_555
C24 C16 1_555 1_555
O1 H13 1_555 1_555
O2 C1 1_555 1_555
O3 C1 1_555 1_555
O4 C12 1_555 1_555
O5 C12 1_555 1_555
O6 C13 1_555 1_555
O7 C13 1_555 1_555
O8 C24 1_555 1_555
O9 C24 1_555 1_555
O10 C25 1_555 1_555
N1 C25 1_555 1_555
C25 H14 1_555 1_555
C26 N1 1_555 1_555
H15 C26 1_555 1_555
H16 C26 1_555 1_555
H17 C26 1_555 1_555
O11 H18 1_555 1_555
H19 O11 1_555 1_555
Zn1 O1 1_555 1_555
Zn2 O1 1_555 1_555
Zn3 O1 1_555 1_555
N2 C27 1_555 1_555
C28 N2 1_555 1_555
C29 N2 1_555 1_555
O12 C28 1_555 1_555
C1A C2A 1_555 1_555
C2A C3A 1_555 1_555
C3A H1A 1_555 1_555
C4A C3A 1_555 1_555
C5A C4A 1_555 1_555
C6A C2A 1_555 1_555
C7A C6A 1_555 1_555
H2A C7A 1_555 1_555
C8A C7A 1_555 1_555
H3A C8A 1_555 1_555
C9A C8A 1_555 1_555
H4A C9A 1_555 1_555
C10A C9A 1_555 1_555
H5A C10A 1_555 1_555
C11A C5A 1_555 1_555
H6A C11A 1_555 1_555
C12A C4A 1_555 1_555
C13A C14A 1_555 1_555
C14A C15A 1_555 1_555
C15A H7A 1_555 1_555
C16A C15A 1_555 1_555
C17A C16A 1_555 1_555
C18A C14A 1_555 1_555
C19A C18A 1_555 1_555
H8A C19A 1_555 1_555
C20A C19A 1_555 1_555
H9A C20A 1_555 1_555
C21A C20A 1_555 1_555
H10A C21A 1_555 1_555
C22A C21A 1_555 1_555
H11A C22A 1_555 1_555
C23A C17A 1_555 1_555
H12A C23A 1_555 1_555
C24A C16A 1_555 1_555
O1A Zn1 1_555 1_555
H13A O1A 1_555 1_555
O2A Zn1 1_555 1_555
O3A Zn3 1_555 1_555
O4A C12A 1_555 1_555
O4B Zn2 1_555 1_555
O4C Zn2A 1_555 1_555
O5A C12A 1_555 1_555
O5B Zn3 1_555 1_555
O5C Zn3A 1_555 1_555
O6A C13A 1_555 1_555
O7A Zn1 1_555 1_555
O8A C24A 1_555 1_555
O8C Zn2 1_555 1_555
O8B Zn2A 1_555 1_555
O9A C24A 1_555 1_555
O9C Zn2 1_555 1_555
O9B Zn2A 1_555 1_555
O10A C25A 1_555 1_555
O10A_2 Zn3A 1_555 1_555
C25A N1 1_555 1_555
H14A C25A 1_555 1_555
C26A N1 1_555 1_555
H15A C26A 1_555 1_555
H16A C26A 1_555 1_555
H17A C26A 1_555 1_555
O11A H18A 1_555 1_555
H19A O11A 1_555 1_555
Zn2A O1A 1_555 1_555
Zn2B O4 1_555 1_555
Zn2C O8 1_555 1_555
Zn2C_2 O4A 1_555 1_555
Zn2B_2 O8A 1_555 1_555
Zn3A O3 1_555 1_555
Zn3B O5 1_555 1_555
Zn3A_2 O10A 1_555 1_555
Zn3C O5A 1_555 1_555
C28A N2 1_555 1_555
C29A N2 1_555 1_555
O12A C29 1_555 1_555
C5 C6 1_555 1_555
C10 C11 1_555 1_555
C17 C18 1_555 1_555
C22 C23 1_555 1_555
O2 Zn1 1_555 1_555
O6 Zn2 1_555 1_555
O7 Zn1 1_555 1_555
O9 Zn2C 1_555 1_555
O10 Zn3 1_555 1_555
C25 C25A 1_555 1_555
O11 Zn3 1_555 1_555
C28 C29A 1_555 1_555
C29 C28A 1_555 1_555
O12 C29A 1_555 1_555
C1A O2A 1_555 1_555
C1A O3A 1_555 1_555
C5A C6A 1_555 1_555
C10A C11A 1_555 1_555
C13A O7A 1_555 1_555
C17A C18A 1_555 1_555
C22A C23A 1_555 1_555
O1A Zn3A 1_555 1_555
O6A Zn2A 1_555 1_555
O9A Zn2B_2 1_555 1_555
O11A Zn3A 1_555 1_555
C28A O12A 1_555 1_555

#END
