
#######################################################################
#
#                 Cambridge Crystallographic Data Centre
#                                CCDC 
#
#######################################################################
#
# If this CIF has been generated from an entry in the Cambridge 
# Structural Database, then it will include bibliographic, chemical, 
# crystal, experimental, refinement or atomic coordinate data resulting 
# from the CCDC's data processing and validation procedures.
#
#######################################################################

data_LIQFOI
_chemical_formula_moiety         '(C24 H23 N4 Ni2 O52 P1 W12)n,8n(H2 O1)'
_chemical_name_systematic        
"catena-((\m-phosphato)-bis(\m-3-carboxy-2,2'-bipyridine-3'-carboxylato)-(\m-hydroxo)-pentacosakis(\m-oxo)-tetraaqua-decaoxo-di-nickel-dodeca-tungsten octahydrate)"
_symmetry_cell_setting           monoclinic
_symmetry_space_group_name_H-M   'P 21/n'
_symmetry_Int_Tables_number      14
_space_group_name_Hall           '-P 2yn'
loop_
_symmetry_equiv_pos_site_id
_symmetry_equiv_pos_as_xyz
1 x,y,z
2 1/2-x,1/2+y,1/2-z
3 -x,-y,-z
4 1/2+x,1/2-y,1/2+z
_cell_length_a                   10.9156(12)
_cell_length_b                   16.1295(17)
_cell_length_c                   22.701(3)
_cell_angle_alpha                90
_cell_angle_beta                 94.523(2)
_cell_angle_gamma                90
_cell_volume                     3984.36
_exptl_crystal_colour            green
_exptl_crystal_description       block
_cell_formula_units_Z            2
loop_
_atom_site_label
_atom_site_type_symbol
_atom_site_fract_x
_atom_site_fract_y
_atom_site_fract_z
O29 O 0.032(2) 0.0096(16) 0.4050(12)
O30 O 0.631(3) -0.097(2) 0.3105(14)
O31 O 0.313(4) 0.550(2) 0.0362(17)
O32 O 0.769(5) -0.160(4) 0.372(2)
O33 O 0.742(8) -0.164(6) 0.278(4)
W1 W 0.73833(3) 0.02287(2) 0.115138(16)
W2 W 0.43524(4) 0.09321(2) 0.136061(16)
W3 W 0.19618(3) 0.06617(3) 0.022430(18)
W4 W 0.49845(4) -0.12280(3) 0.129827(17)
W5 W 0.26374(4) -0.14955(3) 0.013400(18)
W6 W 0.56870(4) -0.21515(3) -0.005923(19)
P1 P 0.5000 0.0000 0.0000
O1 O 0.4668(10) -0.0876(7) 0.0252(5)
O2 O 0.4207(9) 0.0606(6) 0.0307(4)
O3 O 0.6262(9) 0.0142(6) 0.0160(4)
O4 O 0.5361(9) 0.0021(6) 0.0643(5)
O5 O 0.6073(7) 0.0851(4) 0.1435(4)
O6 O 0.8489(7) 0.0343(5) 0.1705(4)
O7 O 0.6562(7) -0.0723(4) 0.1395(4)
O8 O 0.2354(8) -0.1151(4) -0.0658(3)
O9 O 0.1853(8) 0.0427(5) -0.0596(4)
O10 O 0.4358(7) -0.0201(5) 0.1552(4)
O11 O 0.4081(7) 0.1352(5) 0.2015(3)
O12 O 0.5539(7) -0.1857(5) -0.0874(3)
O13 O 0.2752(7) 0.0780(5) 0.0996(4)
O14 O 0.7261(8) -0.1658(5) -0.0038(3)
O15 O 0.1891(8) -0.0490(4) 0.0350(3)
O16 O 0.0557(7) 0.0969(6) 0.0315(4)
O17 O 0.5000(7) -0.1807(4) 0.1908(3)
O18 O 0.1523(8) -0.2190(4) 0.0189(3)
O19 O 0.5685(8) -0.1953(6) 0.0749(4)
O20 O 0.3459(8) -0.1489(6) 0.0903(4)
O21 O 0.3959(8) -0.2157(6) -0.0094(4)
O22 O 0.6014(8) -0.3156(4) -0.0078(3)
Ni1 Ni 0.27344(12) 0.15053(6) 0.28837(5)
O23 O 0.1555(10) 0.1601(6) 0.3663(4)
H1 H 0.1894 0.1567 0.4014
H2 H 0.0801 0.1464 0.3612
O24 O 0.4103(8) 0.0994(4) 0.3366(3)
H3 H 0.4123 0.0488 0.3261
H4 H 0.4001 0.0988 0.3734
N1 N 0.1617(7) 0.2101(4) 0.2291(3)
N2 N 0.3427(7) 0.2643(4) 0.2980(3)
O25 O 0.3627(8) 0.3910(5) 0.1456(3)
O26 O 0.2002(10) 0.4203(5) 0.0848(3)
H5 H 0.2470 0.4559 0.0739
O27 O 0.2957(6) 0.5432(3) 0.2367(3)
O28 O 0.1378(6) 0.4602(4) 0.2133(3)
C1 C 0.0720(9) 0.1717(6) 0.1946(5)
H6 H 0.0385 0.1224 0.2071
C2 C 0.0301(10) 0.2060(7) 0.1408(6)
H7 H -0.0381 0.1832 0.1196
C3 C 0.0883(11) 0.2733(6) 0.1184(5)
H8 H 0.0656 0.2925 0.0805
C4 C 0.1823(10) 0.3124(5) 0.1536(4)
C5 C 0.2096(9) 0.2825(5) 0.2106(4)
C6 C 0.2534(12) 0.3794(7) 0.1267(5)
C7 C 0.4197(9) 0.2882(6) 0.3454(4)
H9 H 0.4546 0.2484 0.3712
C8 C 0.4451(10) 0.3683(6) 0.3549(4)
H10 H 0.5012 0.3838 0.3859
C9 C 0.3887(9) 0.4278(6) 0.3191(4)
H11 H 0.4040 0.4835 0.3271
C10 C 0.3074(9) 0.4050(5) 0.2703(4)
C11 C 0.2909(7) 0.3210(5) 0.2599(4)
C12 C 0.2410(9) 0.4753(5) 0.2366(4)
O1B O 0.5332(10) 0.0876(7) -0.0252(5)
O2B O 0.5793(9) -0.0606(6) -0.0307(4)
O3B O 0.3738(9) -0.0142(6) -0.0160(4)
O4B O 0.4639(9) -0.0021(6) -0.0643(5)
W1B W 0.26167(3) -0.02287(2) -0.115138(16)
W2B W 0.56476(4) -0.09321(2) -0.136061(16)
W3B W 0.80382(3) -0.06617(3) -0.022430(18)
W4B W 0.50155(4) 0.12280(3) -0.129827(17)
W5B W 0.73626(4) 0.14955(3) -0.013400(18)
W6B W 0.43130(4) 0.21515(3) 0.005923(19)
O5B O 0.3927(7) -0.0851(4) -0.1435(4)
O6B O 0.1511(7) -0.0343(5) -0.1705(4)
O7B O 0.3438(7) 0.0723(4) -0.1395(4)
O8B O 0.7646(8) 0.1151(4) 0.0658(3)
O9B O 0.8147(8) -0.0427(5) 0.0596(4)
O10B O 0.5642(7) 0.0201(5) -0.1552(4)
O11B O 0.5919(7) -0.1352(5) -0.2015(3)
O12B O 0.4461(7) 0.1857(5) 0.0874(3)
O13B O 0.7248(7) -0.0780(5) -0.0996(4)
O14B O 0.2739(8) 0.1658(5) 0.0038(3)
O15B O 0.8109(8) 0.0490(4) -0.0350(3)
O16B O 0.9443(7) -0.0969(6) -0.0315(4)
O17B O 0.5000(7) 0.1807(4) -0.1908(3)
O18B O 0.8477(8) 0.2190(4) -0.0189(3)
O19B O 0.4315(8) 0.1953(6) -0.0749(4)
O20B O 0.6541(8) 0.1489(6) -0.0903(4)
O21B O 0.6041(8) 0.2157(6) 0.0094(4)
O22B O 0.3986(8) 0.3156(4) 0.0078(3)
Ni1B Ni 0.72656(12) -0.15053(6) -0.28837(5)
O23B O 0.8445(10) -0.1601(6) -0.3663(4)
H1B H 0.8106 -0.1567 -0.4014
H2B H 0.9199 -0.1464 -0.3612
O24B O 0.5897(8) -0.0994(4) -0.3366(3)
H3B H 0.5877 -0.0488 -0.3261
H4B H 0.5999 -0.0988 -0.3734
N1B N 0.8383(7) -0.2101(4) -0.2291(3)
N2B N 0.6573(7) -0.2643(4) -0.2980(3)
O25B O 0.6373(8) -0.3910(5) -0.1456(3)
O26B O 0.7998(10) -0.4203(5) -0.0848(3)
H5B H 0.7530 -0.4559 -0.0739
O27B O 0.7043(6) -0.5432(3) -0.2367(3)
O28B O 0.8622(6) -0.4602(4) -0.2133(3)
C1B C 0.9280(9) -0.1717(6) -0.1946(5)
H6B H 0.9615 -0.1224 -0.2071
C2B C 0.9699(10) -0.2060(7) -0.1408(6)
H7B H 1.0381 -0.1832 -0.1196
C3B C 0.9117(11) -0.2733(6) -0.1184(5)
H8B H 0.9344 -0.2925 -0.0805
C4B C 0.8177(10) -0.3124(5) -0.1536(4)
C5B C 0.7904(9) -0.2825(5) -0.2106(4)
C6B C 0.7466(12) -0.3794(7) -0.1267(5)
C7B C 0.5803(9) -0.2882(6) -0.3454(4)
H9B H 0.5454 -0.2484 -0.3712
C8B C 0.5549(10) -0.3683(6) -0.3549(4)
H10B H 0.4988 -0.3838 -0.3859
C9B C 0.6113(9) -0.4278(6) -0.3191(4)
H11B H 0.5960 -0.4835 -0.3271
C10B C 0.6926(9) -0.4050(5) -0.2703(4)
C11B C 0.7091(7) -0.3210(5) -0.2599(4)
C12B C 0.7590(9) -0.4753(5) -0.2366(4)
Ni1A Ni 0.22656(12) 0.65053(6) 0.21163(5)
Ni1C Ni 0.77344(12) -0.65053(6) -0.21163(5)
O27A O 0.2043(6) 0.0432(3) 0.2633(3)
O27C O 0.7957(6) -0.0432(3) -0.2633(3)
O34? O 0.178(4) 0.596(2) 0.0355(17)
O35? O 0.095(4) 0.596(2) 0.0355(16)
O36? O 0.029(3) 0.626(2) 0.0421(15)
O37? O -0.084(5) 0.687(3) 0.042(2)
O38? O 0.675(7) 0.154(4) 0.280(3)
O39? O 0.745(7) 0.077(4) 0.298(3)
O40? O 0.730(5) -0.101(4) 0.431(2)
O41? O 0.817(8) -0.224(5) 0.271(4)
O42? O 0.833(6) -0.209(4) 0.341(3)
loop_
_geom_bond_atom_site_label_1
_geom_bond_atom_site_label_2
_geom_bond_site_symmetry_1
_geom_bond_site_symmetry_2
W1 O3 1_555 1_555
W2 O2 1_555 1_555
W3 O2 1_555 1_555
W4 O1 1_555 1_555
W5 O1 1_555 1_555
W6 O1 1_555 1_555
P1 O1 1_555 1_555
O1 O3B 1_555 1_555
O2 P1 1_555 1_555
O3 P1 1_555 1_555
O4 W1 1_555 1_555
O5 W1 1_555 1_555
O6 W1 1_555 1_555
O7 W1 1_555 1_555
O8 W5 1_555 1_555
O9 W3 1_555 1_555
O10 W2 1_555 1_555
O11 W2 1_555 1_555
O12 W6 1_555 1_555
O13 W2 1_555 1_555
O14 W6 1_555 1_555
O15 W3 1_555 1_555
O16 W3 1_555 1_555
O17 W4 1_555 1_555
O18 W5 1_555 1_555
O19 W4 1_555 1_555
O20 W4 1_555 1_555
O21 W5 1_555 1_555
O22 W6 1_555 1_555
Ni1 O11 1_555 1_555
O23 Ni1 1_555 1_555
H1 O23 1_555 1_555
H2 O23 1_555 1_555
O24 Ni1 1_555 1_555
H3 O24 1_555 1_555
H4 O24 1_555 1_555
N1 Ni1 1_555 1_555
N2 Ni1 1_555 1_555
O25 C6 1_555 1_555
O26 H5 1_555 1_555
O27 C12 1_555 1_555
O28 C12 1_555 1_555
C1 N1 1_555 1_555
H6 C1 1_555 1_555
C2 C1 1_555 1_555
H7 C2 1_555 1_555
C3 C2 1_555 1_555
H8 C3 1_555 1_555
C4 C3 1_555 1_555
C5 N1 1_555 1_555
C6 O26 1_555 1_555
C7 N2 1_555 1_555
H9 C7 1_555 1_555
C8 C7 1_555 1_555
H10 C8 1_555 1_555
C9 C8 1_555 1_555
H11 C9 1_555 1_555
C10 C9 1_555 1_555
C11 N2 1_555 1_555
C12 C10 1_555 1_555
O1B P1 1_555 1_555
O2B P1 1_555 1_555
O3B P1 1_555 1_555
O4B P1 1_555 1_555
W1B O8 1_555 1_555
W2B O12 1_555 1_555
W3B O14 1_555 1_555
W4B O1B 1_555 1_555
W5B O1B 1_555 1_555
W6B O1B 1_555 1_555
O5B W1B 1_555 1_555
O6B W1B 1_555 1_555
O7B W1B 1_555 1_555
O8B W1 1_555 1_555
O9B W1 1_555 1_555
O10B W2B 1_555 1_555
O11B W2B 1_555 1_555
O12B W2 1_555 1_555
O13B W2B 1_555 1_555
O14B W3 1_555 1_555
O15B W3B 1_555 1_555
O16B W3B 1_555 1_555
O17B W4B 1_555 1_555
O18B W5B 1_555 1_555
O19B W4B 1_555 1_555
O20B W4B 1_555 1_555
O21B W5B 1_555 1_555
O22B W6B 1_555 1_555
Ni1B O11B 1_555 1_555
O23B Ni1B 1_555 1_555
H1B O23B 1_555 1_555
H2B O23B 1_555 1_555
O24B Ni1B 1_555 1_555
H3B O24B 1_555 1_555
H4B O24B 1_555 1_555
N1B Ni1B 1_555 1_555
N2B Ni1B 1_555 1_555
O25B C6B 1_555 1_555
O26B H5B 1_555 1_555
O27B C12B 1_555 1_555
O28B C12B 1_555 1_555
C1B N1B 1_555 1_555
H6B C1B 1_555 1_555
C2B C1B 1_555 1_555
H7B C2B 1_555 1_555
C3B C2B 1_555 1_555
H8B C3B 1_555 1_555
C4B C3B 1_555 1_555
C5B N1B 1_555 1_555
C6B O26B 1_555 1_555
C7B N2B 1_555 1_555
H9B C7B 1_555 1_555
C8B C7B 1_555 1_555
H10B C8B 1_555 1_555
C9B C8B 1_555 1_555
H11B C9B 1_555 1_555
C10B C9B 1_555 1_555
C11B N2B 1_555 1_555
C12B C10B 1_555 1_555
Ni1A O27 1_555 1_555
Ni1C O27B 1_555 1_555
O27A Ni1 1_555 1_555
O27C Ni1B 1_555 1_555
W2 O5 1_555 1_555
W3 O13 1_555 1_555
W4 O7 1_555 1_555
W4 O10 1_555 1_555
W5 O15 1_555 1_555
W5 O20 1_555 1_555
W6 O19 1_555 1_555
W6 O21 1_555 1_555
P1 O4 1_555 1_555
O2 O4 1_555 1_555
O2 O3B 1_555 1_555
O3 O4 1_555 1_555
O3 O1B 1_555 1_555
O3 O2B 1_555 1_555
O9 W1B 1_555 1_555
C4 C5 1_555 1_555
C4 C6 1_555 1_555
C5 C11 1_555 1_555
C10 C11 1_555 1_555
O2B O4B 1_555 1_555
O2B W2B 1_555 1_555
O2B W3B 1_555 1_555
O3B O4B 1_555 1_555
O3B W1B 1_555 1_555
O4B W1B 1_555 1_555
W2B O5B 1_555 1_555
W3B O9B 1_555 1_555
W3B O13B 1_555 1_555
W4B O7B 1_555 1_555
W4B O10B 1_555 1_555
W5B O8B 1_555 1_555
W5B O15B 1_555 1_555
W5B O20B 1_555 1_555
W6B O12B 1_555 1_555
W6B O14B 1_555 1_555
W6B O19B 1_555 1_555
W6B O21B 1_555 1_555
C4B C5B 1_555 1_555
C4B C6B 1_555 1_555
C5B C11B 1_555 1_555
C10B C11B 1_555 1_555

#END
