
#######################################################################
#
#                 Cambridge Crystallographic Data Centre
#                                CCDC 
#
#######################################################################
#
# If this CIF has been generated from an entry in the Cambridge 
# Structural Database, then it will include bibliographic, chemical, 
# crystal, experimental, refinement or atomic coordinate data resulting 
# from the CCDC's data processing and validation procedures.
#
#######################################################################

data_HEGKAP
_chemical_formula_moiety         
'(C22 H20 N2 O8 Zn2)n,4n(C3 H7 N1 O1),0.4n(H2 O1)'
_chemical_name_systematic        
"catena-(bis(\m~4~-1,4-Benzenedicarboxylato)-(\m~2~-1,4-diazabicyclo(2.2.2)octane-N,N')-di-zinc dimethylformamide solvate hydrate)"
_symmetry_cell_setting           tetragonal
_symmetry_space_group_name_H-M   'P 4/n c c'
_symmetry_Int_Tables_number      130
_space_group_name_Hall           '-P 4a 2ac'
loop_
_symmetry_equiv_pos_site_id
_symmetry_equiv_pos_as_xyz
1 x,y,z
2 1/2-y,x,z
3 1/2+x,-y,1/2-z
4 1/2-x,1/2-y,z
5 1/2+y,1/2+x,1/2-z
6 y,1/2-x,z
7 -x,1/2+y,1/2-z
8 -y,-x,1/2-z
9 -x,-y,-z
10 1/2+y,-x,-z
11 1/2-x,y,1/2+z
12 1/2+x,1/2+y,-z
13 1/2-y,1/2-x,1/2+z
14 -y,1/2+x,-z
15 x,1/2-y,1/2+z
16 y,x,1/2+z
_cell_length_a                   14.8999(3)
_cell_length_b                   14.8999(3)
_cell_length_c                   19.1362(9)
_cell_angle_alpha                90
_cell_angle_beta                 90
_cell_angle_gamma                90
_cell_volume                     4248.37
_exptl_crystal_colour            colorless
_exptl_crystal_description       cube
_cell_formula_units_Z            4
loop_
_atom_site_label
_atom_site_type_symbol
_atom_site_fract_x
_atom_site_fract_y
_atom_site_fract_z
O2 O 0.7500 0.2500 0.2500
Zn1 Zn 0.2500 0.2500 0.83865(3)
Zn2 Zn 0.2500 0.2500 0.68555(3)
O3 O 0.37996(11) 0.28327(11) 0.70598(9)
O4 O 0.36626(11) 0.31780(12) 0.81939(9)
C4 C 0.48272(15) 0.38576(16) 0.75560(13)
C5 C 0.52107(17) 0.42198(17) 0.81554(13)
H8 H 0.5019 0.4023 0.8603
C6 C 0.51320(17) 0.41274(17) 0.69019(13)
H9 H 0.4894 0.3856 0.6492
C7 C 0.40400(15) 0.32355(15) 0.76085(13)
N2 N 0.2500 0.2500 0.9455(2)
N3 N 0.2500 0.2500 1.0791(2)
C8 C 0.2866(7) 0.3366(5) 0.9716(4)
H10 H 0.2493 0.3868 0.9543
H11 H 0.3485 0.3450 0.9540
C9 C 0.2869(8) 0.3364(5) 1.0509(4)
H12 H 0.3491 0.3448 1.0680
H13 H 0.2503 0.3872 1.0683
C10 C 0.3081(6) 0.1766(6) 0.9730(4)
H14 H 0.3146 0.3704 0.9564
H15 H 0.2135 0.3819 0.9551
C11 C 0.3243(7) 0.3068(6) 1.0523(4)
H16 H 0.2172 0.3824 1.0690
H17 H 0.3176 0.3687 1.0703
C12 C 0.1579(4) 0.2376(7) 0.9726(4)
H18 H 0.3660 0.3208 0.9564
H19 H 0.2856 0.3815 0.9542
C13 C 0.2402(4) 0.3427(8) 1.0514(4)
H20 H 0.2912 0.3799 1.0675
H21 H 0.3697 0.3158 1.0697
C6G C 0.58726(17) 0.48680(17) 0.80981(13)
C4G C 0.61424(16) 0.51728(15) 0.74440(13)
C5G C 0.57802(17) 0.47893(17) 0.68446(13)
H8G H 0.5977 0.4981 0.6397
C7G C 0.67645(15) 0.59600(15) 0.73915(13)
O3G O 0.71673(11) 0.62004(11) 0.79402(9)
O4G O 0.68220(12) 0.63374(11) 0.68061(9)
H9G H 0.6144 0.5106 0.8508
C10C C 0.1919(6) 0.3234(6) 0.9730(4)
C8A C 0.1634(5) 0.2866(7) 0.9716(4)
H10A H 0.1132 0.2493 0.9543
H15A H 0.1181 0.2135 0.9551
C10E C 0.1766(6) 0.1919(6) 0.9730(4)
C8C C 0.2134(7) 0.1634(5) 0.9716(4)
H10C H 0.2507 0.1132 0.9543
H15C H 0.2865 0.1181 0.9551
C8E C 0.3366(5) 0.2134(7) 0.9716(4)
H10E H 0.3868 0.2507 0.9543
H15E H 0.3819 0.2865 0.9551
C10A C 0.3234(6) 0.3081(6) 0.9730(4)
H11C H 0.1515 0.1550 0.9540
C9C C 0.2131(8) 0.1636(5) 1.0509(4)
H11A H 0.1550 0.3485 0.9540
C9A C 0.1636(5) 0.2869(8) 1.0509(4)
C9E C 0.3364(5) 0.2131(8) 1.0509(4)
H11E H 0.3450 0.1515 0.9540
C11E C 0.3068(6) 0.1757(7) 1.0523(4)
H14E H 0.3704 0.1854 0.9564
C12A C 0.2624(7) 0.1579(4) 0.9726(4)
C12C C 0.3421(4) 0.2624(7) 0.9726(4)
H12E H 0.3448 0.1509 1.0680
H13E H 0.3872 0.2497 1.0683
C12E C 0.2376(7) 0.3421(4) 0.9726(4)
H12A H 0.1552 0.3491 1.0680
C11A C 0.1932(6) 0.3243(7) 1.0523(4)
C11C C 0.1757(7) 0.1932(6) 1.0523(4)
H14C H 0.1854 0.1296 0.9564
H12C H 0.1509 0.1552 1.0680
H13C H 0.2497 0.1128 1.0683
H16C H 0.2828 0.1176 1.0690
C13C C 0.2598(4) 0.1573(8) 1.0514(4)
C13A C 0.1573(8) 0.2402(4) 1.0514(4)
H14A H 0.1296 0.3146 0.9564
H18A H 0.1792 0.3660 0.9564
H19A H 0.1185 0.2856 0.9542
H13A H 0.1128 0.2503 1.0683
H16A H 0.1176 0.2172 1.0690
H17C H 0.1824 0.1313 1.0703
H17A H 0.1313 0.3176 1.0703
C13E C 0.3427(8) 0.2598(4) 1.0514(4)
H18E H 0.3208 0.1340 0.9564
H19E H 0.3815 0.2144 0.9542
H18C H 0.1340 0.1792 0.9564
H19C H 0.2144 0.1185 0.9542
H16E H 0.3824 0.2828 1.0690
H17E H 0.3687 0.1824 1.0703
H20A H 0.1201 0.2912 1.0675
H21A H 0.1842 0.3697 1.0697
H20C H 0.2088 0.1201 1.0675
H21C H 0.1303 0.1842 1.0697
H21E H 0.3158 0.1303 1.0697
H20E H 0.3799 0.2088 1.0675
O3A O 0.21673(11) 0.37996(11) 0.70598(9)
O4A O 0.18220(12) 0.36626(11) 0.81939(9)
C4A C 0.11424(16) 0.48272(15) 0.75560(13)
C5A C 0.07802(17) 0.52107(17) 0.81554(13)
H8A H 0.0977 0.5019 0.8603
C6A C 0.08726(17) 0.51320(17) 0.69019(13)
H9A H 0.1144 0.4894 0.6492
C7A C 0.17645(15) 0.40400(15) 0.76085(13)
C6B C 0.01320(17) 0.58726(17) 0.80981(13)
C4B C -0.01728(15) 0.61424(16) 0.74440(13)
C5B C 0.02107(17) 0.57802(17) 0.68446(13)
H8B H 0.0019 0.5977 0.6397
C7B C -0.09600(15) 0.67645(15) 0.73915(13)
O3B O -0.12004(11) 0.71673(11) 0.79402(9)
O4B O -0.13374(11) 0.68220(12) 0.68061(9)
H9B H -0.0106 0.6144 0.8508
O4C O 0.13374(11) 0.18220(12) 0.81939(9)
O4E O 0.31780(12) 0.13374(11) 0.81939(9)
O3C O 0.12004(11) 0.21673(11) 0.70598(9)
O3E O 0.28327(11) 0.12004(11) 0.70598(9)
N3J N 0.2500 0.2500 0.5791(2)
Zn2J Zn 0.2500 0.2500 1.18555(3)
Zn2B Zn 0.7500 0.7500 0.81445(3)
Zn1B Zn 0.7500 0.7500 0.66135(3)
Zn2B_2 Zn -0.2500 0.7500 0.81445(3)
Zn1B_2 Zn -0.2500 0.7500 0.66135(3)
O1 O 0.8737(4) 0.0105(4) 0.4913(3)
C1 C 0.9141(5) 0.0722(4) 0.4631(4)
H1 H 0.9678 0.0923 0.4848
N1 N 0.8900(3) 0.1122(3) 0.4064(3)
C2 C 0.8200(6) 0.0731(5) 0.3587(6)
H2 H 0.8103 0.1137 0.3191
H3 H 0.7637 0.0655 0.3845
H4 H 0.8404 0.0147 0.3414
C3 C 0.9405(4) 0.1834(4) 0.3737(4)
H5 H 0.9090 0.2036 0.3316
H6 H 1.0002 0.1613 0.3610
H7 H 0.9464 0.2337 0.4064
O5? O 0.7855(11) 0.0262(12) 0.4607(10)
C14? C 0.8274(15) 0.0527(16) 0.4099(8)
H22? H 0.8116 0.0256 0.3667
N4? N 0.8900(3) 0.1122(3) 0.4064(3)
C15? C 0.9264(19) 0.1478(19) 0.3388(7)
H23? H 0.9738 0.1916 0.3486
H24? H 0.8780 0.1769 0.3125
H25? H 0.9511 0.0982 0.3113
C16? C 0.9250(17) 0.1590(16) 0.4667(8)
H26? H 0.8984 0.1339 0.5093
H27? H 0.9099 0.2229 0.4633
H28? H 0.9903 0.1520 0.4684
H29? H 0.7926 0.2492 0.2488
H30? H 0.7604 0.2214 0.2790
loop_
_geom_bond_atom_site_label_1
_geom_bond_atom_site_label_2
_geom_bond_site_symmetry_1
_geom_bond_site_symmetry_2
O1 C1 1_555 1_555
C1 H1 1_555 1_555
N1 C1 1_555 1_555
C2 N1 1_555 1_555
H2 C2 1_555 1_555
H3 C2 1_555 1_555
H4 C2 1_555 1_555
C3 N1 1_555 1_555
H5 C3 1_555 1_555
H6 C3 1_555 1_555
H7 C3 1_555 1_555
Zn1 O4 1_555 1_555
Zn2 O3 1_555 1_555
O3 C7 1_555 1_555
O4 C7 1_555 1_555
C4 C5 1_555 1_555
C5 H8 1_555 1_555
C6 C4 1_555 1_555
H9 C6 1_555 1_555
C7 C4 1_555 1_555
N2 Zn1 1_555 1_555
N3 C9 1_555 1_555
C8 N2 1_555 1_555
H10 C8 1_555 1_555
H11 C8 1_555 1_555
C9 C8 1_555 1_555
H12 C9 1_555 1_555
H13 C9 1_555 1_555
C10 N2 1_555 1_555
H14 C8 1_555 1_555
H15 H10 1_555 1_555
C11 N3 1_555 1_555
H16 C9 1_555 1_555
H17 C9 1_555 1_555
C12 N2 1_555 1_555
H18 C8 1_555 1_555
H19 C8 1_555 1_555
C13 N3 1_555 1_555
H20 C9 1_555 1_555
H21 H12 1_555 1_555
C6G C5 1_555 1_555
C4G C6G 1_555 1_555
C5G C6 1_555 1_555
H8G C5G 1_555 1_555
C7G C4G 1_555 1_555
O3G C7G 1_555 1_555
O4G C7G 1_555 1_555
H9G C6G 1_555 1_555
C10C N2 1_555 1_555
C8A N2 1_555 1_555
H10A C12 1_555 1_555
H15A C12 1_555 1_555
C10E N2 1_555 1_555
C8C N2 1_555 1_555
H10C C8C 1_555 1_555
H15C C10 1_555 1_555
C8E N2 1_555 1_555
H10E C8E 1_555 1_555
H15E H18 1_555 1_555
C10A N2 1_555 1_555
H11C C12 1_555 1_555
C9C N3 1_555 1_555
H11A C10C 1_555 1_555
C9A N3 1_555 1_555
C9E N3 1_555 1_555
H11E C10 1_555 1_555
C11E N3 1_555 1_555
H14E C10 1_555 1_555
C12A N2 1_555 1_555
C12C N2 1_555 1_555
H12E C9E 1_555 1_555
H13E C11 1_555 1_555
C12E N2 1_555 1_555
H12A C13 1_555 1_555
C11A N3 1_555 1_555
C11C N3 1_555 1_555
H14C C10E 1_555 1_555
H12C C9C 1_555 1_555
H13C C9C 1_555 1_555
H16C C9C 1_555 1_555
C13C N3 1_555 1_555
C13A N3 1_555 1_555
H14A C12 1_555 1_555
H18A H15 1_555 1_555
H19A C12 1_555 1_555
H13A C9A 1_555 1_555
H16A C9A 1_555 1_555
H17C C9C 1_555 1_555
H17A C9A 1_555 1_555
C13E N3 1_555 1_555
H18E C10 1_555 1_555
H19E C10 1_555 1_555
H18C C12 1_555 1_555
H19C C10E 1_555 1_555
H16E C11 1_555 1_555
H17E C9E 1_555 1_555
H20A C9A 1_555 1_555
H21A H16 1_555 1_555
H20C C9C 1_555 1_555
H21C C11C 1_555 1_555
H21E C11E 1_555 1_555
H20E C9E 1_555 1_555
O3A Zn2 1_555 1_555
O4A Zn1 1_555 1_555
C4A C5A 1_555 1_555
C5A H8A 1_555 1_555
C6A C4A 1_555 1_555
H9A C6A 1_555 1_555
C7A O3A 1_555 1_555
C6B C5A 1_555 1_555
C4B C6B 1_555 1_555
C5B C6A 1_555 1_555
H8B C5B 1_555 1_555
C7B C4B 1_555 1_555
O3B C7B 1_555 1_555
O4B C7B 1_555 1_555
H9B C6B 1_555 1_555
O4C Zn1 1_555 1_555
O4E Zn1 1_555 1_555
O3C Zn2 1_555 1_555
O3E Zn2 1_555 1_555
N3J Zn2 1_555 1_555
Zn2J N3 1_555 1_555
Zn2B O3G 1_555 1_555
Zn1B O4G 1_555 1_555
Zn2B_2 O3B 1_555 1_555
Zn1B_2 O4B 1_555 1_555
C8 C11 1_555 1_555
C8 C13 1_555 1_555
C8 C10C 1_555 1_555
C8 C10A 1_555 1_555
C8 C12C 1_555 1_555
C8 C12E 1_555 1_555
H10 H19 1_555 1_555
H10 C12E 1_555 1_555
H11 H14 1_555 1_555
H11 H18 1_555 1_555
H11 C10A 1_555 1_555
H11 C12C 1_555 1_555
C9 C11 1_555 1_555
C9 C13 1_555 1_555
C9 C10A 1_555 1_555
C9 C12E 1_555 1_555
C9 C11A 1_555 1_555
C9 C13E 1_555 1_555
H12 C11 1_555 1_555
H12 H17 1_555 1_555
H12 C13E 1_555 1_555
H13 H16 1_555 1_555
H13 C13 1_555 1_555
H13 H20 1_555 1_555
H13 C11A 1_555 1_555
C10 C8C 1_555 1_555
C10 C8E 1_555 1_555
C10 C9E 1_555 1_555
C10 C11E 1_555 1_555
C10 C12A 1_555 1_555
C10 C12C 1_555 1_555
C10 C13C 1_555 1_555
H14 H19 1_555 1_555
H14 C10A 1_555 1_555
H14 C12E 1_555 1_555
H15 C10C 1_555 1_555
H15 C12E 1_555 1_555
C11 H17 1_555 1_555
C11 C13 1_555 1_555
C11 H20 1_555 1_555
C11 H21 1_555 1_555
C11 C10A 1_555 1_555
C11 C9E 1_555 1_555
C11 C12C 1_555 1_555
C11 C13E 1_555 1_555
H16 C13 1_555 1_555
H16 C11A 1_555 1_555
H17 C13 1_555 1_555
H17 H20 1_555 1_555
C12 C10C 1_555 1_555
C12 C8A 1_555 1_555
C12 C10E 1_555 1_555
C12 C8C 1_555 1_555
C12 C9A 1_555 1_555
C12 C11C 1_555 1_555
C12 C13A 1_555 1_555
H18 C10A 1_555 1_555
H18 C12C 1_555 1_555
H19 C10A 1_555 1_555
H19 C12E 1_555 1_555
C13 H20 1_555 1_555
C13 C10C 1_555 1_555
C13 C9A 1_555 1_555
C13 C12E 1_555 1_555
C13 C11A 1_555 1_555
C13 H21A 1_555 1_555
H21 C13E 1_555 1_555
H21 H16E 1_555 1_555
C4G C5G 1_555 1_555
C10C C8A 1_555 1_555
C10C C9A 1_555 1_555
C10C C12E 1_555 1_555
C10C C11A 1_555 1_555
C10C H14A 1_555 1_555
C10C H18A 1_555 1_555
C10C H19A 1_555 1_555
C8A H10A 1_555 1_555
C8A C10E 1_555 1_555
C8A H11A 1_555 1_555
C8A C9A 1_555 1_555
C8A C12E 1_555 1_555
C8A C11A 1_555 1_555
C8A C13A 1_555 1_555
C8A H14A 1_555 1_555
C8A H18A 1_555 1_555
C8A H19A 1_555 1_555
H10A H15A 1_555 1_555
H10A H19A 1_555 1_555
H15A C10E 1_555 1_555
H15A H18C 1_555 1_555
C10E C8C 1_555 1_555
C10E H11C 1_555 1_555
C10E C9C 1_555 1_555
C10E C12A 1_555 1_555
C10E C11C 1_555 1_555
C10E C13A 1_555 1_555
C10E H18C 1_555 1_555
C8C H11C 1_555 1_555
C8C C9C 1_555 1_555
C8C C12A 1_555 1_555
C8C C11C 1_555 1_555
C8C H14C 1_555 1_555
C8C C13C 1_555 1_555
C8C H18C 1_555 1_555
C8C H19C 1_555 1_555
H10C H15C 1_555 1_555
H10C C12A 1_555 1_555
H10C H19C 1_555 1_555
H15C C12A 1_555 1_555
H15C H18E 1_555 1_555
C8E C10A 1_555 1_555
C8E C9E 1_555 1_555
C8E H11E 1_555 1_555
C8E C11E 1_555 1_555
C8E H14E 1_555 1_555
C8E C12A 1_555 1_555
C8E C12C 1_555 1_555
C8E C13E 1_555 1_555
C8E H18E 1_555 1_555
C8E H19E 1_555 1_555
H10E H15E 1_555 1_555
H10E C12C 1_555 1_555
H10E H19E 1_555 1_555
H15E C10A 1_555 1_555
H15E C12C 1_555 1_555
C10A C12C 1_555 1_555
C10A C12E 1_555 1_555
C10A C13E 1_555 1_555
H11C H14C 1_555 1_555
H11C H18C 1_555 1_555
C9C C11E 1_555 1_555
C9C C12A 1_555 1_555
C9C C11C 1_555 1_555
C9C C13C 1_555 1_555
C9C C13A 1_555 1_555
H11A C12E 1_555 1_555
H11A H14A 1_555 1_555
H11A H18A 1_555 1_555
C9A H12A 1_555 1_555
C9A C11A 1_555 1_555
C9A C11C 1_555 1_555
C9A C13A 1_555 1_555
C9E C11E 1_555 1_555
C9E C12C 1_555 1_555
C9E H13E 1_555 1_555
C9E C13C 1_555 1_555
C9E C13E 1_555 1_555
C9E H16E 1_555 1_555
H11E H14E 1_555 1_555
H11E C12A 1_555 1_555
H11E H18E 1_555 1_555
C11E C12A 1_555 1_555
C11E H12E 1_555 1_555
C11E H13C 1_555 1_555
C11E H16C 1_555 1_555
C11E C13C 1_555 1_555
C11E C13E 1_555 1_555
C11E H17E 1_555 1_555
C11E H20E 1_555 1_555
H14E C12C 1_555 1_555
H14E H19E 1_555 1_555
C12A H14C 1_555 1_555
C12A C13C 1_555 1_555
C12A H18E 1_555 1_555
C12A H19C 1_555 1_555
C12C C13E 1_555 1_555
C12C H19E 1_555 1_555
H12E C13C 1_555 1_555
H12E H17E 1_555 1_555
H12E H21E 1_555 1_555
H13E C13E 1_555 1_555
H13E H16E 1_555 1_555
H13E H20E 1_555 1_555
C12E C11A 1_555 1_555
C12E H18A 1_555 1_555
H12A C11A 1_555 1_555
H12A H17A 1_555 1_555
H12A H21A 1_555 1_555
C11A C13A 1_555 1_555
C11A H17A 1_555 1_555
C11A H20A 1_555 1_555
C11A H21A 1_555 1_555
C11C H12C 1_555 1_555
C11C C13C 1_555 1_555
C11C C13A 1_555 1_555
C11C H13A 1_555 1_555
C11C H16A 1_555 1_555
C11C H17C 1_555 1_555
C11C H20C 1_555 1_555
H14C H19C 1_555 1_555
H12C C13A 1_555 1_555
H12C H17C 1_555 1_555
H12C H21C 1_555 1_555
H13C H16C 1_555 1_555
H13C C13C 1_555 1_555
H13C H20C 1_555 1_555
H16C C13C 1_555 1_555
H16C H21E 1_555 1_555
C13C H17C 1_555 1_555
C13C H20C 1_555 1_555
C13C H21E 1_555 1_555
C13A H13A 1_555 1_555
C13A H16A 1_555 1_555
C13A H17A 1_555 1_555
C13A H20A 1_555 1_555
C13A H21C 1_555 1_555
H14A H19A 1_555 1_555
H13A H16A 1_555 1_555
H13A H20A 1_555 1_555
H16A H21C 1_555 1_555
H17C H20C 1_555 1_555
H17A H20A 1_555 1_555
C13E H16E 1_555 1_555
C13E H17E 1_555 1_555
C13E H20E 1_555 1_555
H17E H20E 1_555 1_555
O4A C7A 1_555 1_555
C4A C7A 1_555 1_555
C4B C5B 1_555 1_555

#END
