
#######################################################################
#
#                 Cambridge Crystallographic Data Centre
#                                CCDC 
#
#######################################################################
#
# If this CIF has been generated from an entry in the Cambridge 
# Structural Database, then it will include bibliographic, chemical, 
# crystal, experimental, refinement or atomic coordinate data resulting 
# from the CCDC's data processing and validation procedures.
#
#######################################################################

data_YEGKIG
_chemical_formula_moiety         '(C4 H6 N8 Zn1)n,n(C3 H8 O1),0.6n(H2 O1)'
_chemical_name_systematic        
'catena-(bis(\m~2~-3-amino-1,2,4-triazole)-zinc isopropanol clathrate hydrate)'
_symmetry_cell_setting           cubic
_symmetry_space_group_name_H-M   'F d -3 m'
_symmetry_Int_Tables_number      227
_space_group_name_Hall           '-F 4vw 2vw 3'
loop_
_symmetry_equiv_pos_site_id
_symmetry_equiv_pos_as_xyz
1 x,y,z
2 -y,1/4+x,1/4+z
3 x,1/4-y,1/4-z
4 z,x,y
5 3/4-x,1/4-y,1/2+z
6 3/4+y,1/4+x,1/2-z
7 -x,1/4+z,1/4+y
8 3/4+y,-x,3/4+z
9 3/4-x,y,3/4-z
10 3/4-z,1/4-x,1/2+y
11 -y,-x,-z
12 3/4+x,-z,3/4+y
13 z,1/4-x,1/4-y
14 -x,-z,-y
15 3/4-z,x,3/4-y
16 3/4+x,1/4+z,1/2-y
17 y,z,x
18 3/4+z,-y,3/4+x
19 1/2-z,3/4+y,1/4+x
20 3/4+z,3/4+y,-x
21 1/2+y,3/4-z,1/4-x
22 -z,-y,-x
23 1/4-y,z,1/4-x
24 3/4-y,3/4-z,x
25 1/4+z,-y,1/4+x
26 x,1/2+y,1/2+z
27 -y,3/4+x,3/4+z
28 x,3/4-y,3/4-z
29 z,1/2+x,1/2+y
30 3/4-x,3/4-y,z
31 3/4+y,3/4+x,-z
32 -x,3/4+z,3/4+y
33 3/4+y,1/2-x,1/4+z
34 3/4-x,1/2+y,1/4-z
35 3/4-z,3/4-x,y
36 -y,1/2-x,1/2-z
37 3/4+x,1/2-z,1/4+y
38 z,3/4-x,3/4-y
39 -x,1/2-z,1/2-y
40 3/4-z,1/2+x,1/4-y
41 3/4+x,3/4+z,-y
42 y,1/2+z,1/2+x
43 3/4+z,1/2-y,1/4+x
44 1/2-z,1/4+y,3/4+x
45 3/4+z,1/4+y,1/2-x
46 1/2+y,1/4-z,3/4-x
47 -z,1/2-y,1/2-x
48 1/4-y,1/2+z,3/4-x
49 3/4-y,1/4-z,1/2+x
50 1/4+z,1/2-y,3/4+x
51 1/2+x,y,1/2+z
52 1/2-y,1/4+x,3/4+z
53 1/2+x,1/4-y,3/4-z
54 1/2+z,x,1/2+y
55 1/4-x,1/4-y,z
56 1/4+y,1/4+x,-z
57 1/2-x,1/4+z,3/4+y
58 1/4+y,-x,1/4+z
59 1/4-x,y,1/4-z
60 1/4-z,1/4-x,y
61 1/2-y,-x,1/2-z
62 1/4+x,-z,1/4+y
63 1/2+z,1/4-x,3/4-y
64 1/2-x,-z,1/2-y
65 1/4-z,x,1/4-y
66 1/4+x,1/4+z,-y
67 1/2+y,z,1/2+x
68 -z,3/4+y,3/4+x
69 1/4+z,3/4+y,1/2-x
70 y,3/4-z,3/4-x
71 1/2-z,-y,1/2-x
72 3/4-y,z,3/4-x
73 1/4-y,3/4-z,1/2+x
74 1/2+x,1/2+y,z
75 1/2-y,3/4+x,1/4+z
76 1/2+x,3/4-y,1/4-z
77 1/2+z,1/2+x,y
78 1/4-x,3/4-y,1/2+z
79 1/4+y,3/4+x,1/2-z
80 1/2-x,3/4+z,1/4+y
81 1/4+y,1/2-x,3/4+z
82 1/4-x,1/2+y,3/4-z
83 1/4-z,3/4-x,1/2+y
84 1/2-y,1/2-x,-z
85 1/4+x,1/2-z,3/4+y
86 1/2+z,3/4-x,1/4-y
87 1/2-x,1/2-z,-y
88 1/4-z,1/2+x,3/4-y
89 1/4+x,3/4+z,1/2-y
90 1/2+y,1/2+z,x
91 -z,1/4+y,1/4+x
92 1/4+z,1/4+y,-x
93 y,1/4-z,1/4-x
94 1/2-z,1/2-y,-x
95 3/4-y,1/2+z,1/4-x
96 1/4-y,1/4-z,x
97 -x,-y,-z
98 y,3/4-x,3/4-z
99 -x,3/4+y,3/4+z
100 -z,-x,-y
101 1/4+x,3/4+y,1/2-z
102 1/4-y,3/4-x,1/2+z
103 x,3/4-z,3/4-y
104 1/4-y,x,1/4-z
105 1/4+x,-y,1/4+z
106 1/4+z,3/4+x,1/2-y
107 y,x,z
108 1/4-x,z,1/4-y
109 -z,3/4+x,3/4+y
110 x,z,y
111 1/4+z,-x,1/4+y
112 1/4-x,3/4-z,1/2+y
113 -y,-z,-x
114 1/4-z,y,1/4-x
115 1/2+z,1/4-y,3/4-x
116 1/4-z,1/4-y,x
117 1/2-y,1/4+z,3/4+x
118 z,y,x
119 3/4+y,-z,3/4+x
120 1/4+y,1/4+z,-x
121 3/4-z,y,3/4-x
122 -x,1/2-y,1/2-z
123 y,1/4-x,1/4-z
124 -x,1/4+y,1/4+z
125 -z,1/2-x,1/2-y
126 1/4+x,1/4+y,-z
127 1/4-y,1/4-x,z
128 x,1/4-z,1/4-y
129 1/4-y,1/2+x,3/4-z
130 1/4+x,1/2-y,3/4+z
131 1/4+z,1/4+x,-y
132 y,1/2+x,1/2+z
133 1/4-x,1/2+z,3/4-y
134 -z,1/4+x,1/4+y
135 x,1/2+z,1/2+y
136 1/4+z,1/2-x,3/4+y
137 1/4-x,1/4-z,y
138 -y,1/2-z,1/2-x
139 1/4-z,1/2+y,3/4-x
140 1/2+z,3/4-y,1/4-x
141 1/4-z,3/4-y,1/2+x
142 1/2-y,3/4+z,1/4+x
143 z,1/2+y,1/2+x
144 3/4+y,1/2-z,1/4+x
145 1/4+y,3/4+z,1/2-x
146 3/4-z,1/2+y,1/4-x
147 1/2-x,-y,1/2-z
148 1/2+y,3/4-x,1/4-z
149 1/2-x,3/4+y,1/4+z
150 1/2-z,-x,1/2-y
151 3/4+x,3/4+y,-z
152 3/4-y,3/4-x,z
153 1/2+x,3/4-z,1/4-y
154 3/4-y,x,3/4-z
155 3/4+x,-y,3/4+z
156 3/4+z,3/4+x,-y
157 1/2+y,x,1/2+z
158 3/4-x,z,3/4-y
159 1/2-z,3/4+x,1/4+y
160 1/2+x,z,1/2+y
161 3/4+z,-x,3/4+y
162 3/4-x,3/4-z,y
163 1/2-y,-z,1/2-x
164 z,1/4-y,1/4-x
165 3/4-z,1/4-y,1/2+x
166 -y,1/4+z,1/4+x
167 1/2+z,y,1/2+x
168 1/4+y,-z,1/4+x
169 3/4+y,1/4+z,1/2-x
170 1/2-x,1/2-y,-z
171 1/2+y,1/4-x,3/4-z
172 1/2-x,1/4+y,3/4+z
173 1/2-z,1/2-x,-y
174 3/4+x,1/4+y,1/2-z
175 3/4-y,1/4-x,1/2+z
176 1/2+x,1/4-z,3/4-y
177 3/4-y,1/2+x,1/4-z
178 3/4+x,1/2-y,1/4+z
179 3/4+z,1/4+x,1/2-y
180 1/2+y,1/2+x,z
181 3/4-x,1/2+z,1/4-y
182 1/2-z,1/4+x,3/4+y
183 1/2+x,1/2+z,y
184 3/4+z,1/2-x,1/4+y
185 3/4-x,1/4-z,1/2+y
186 1/2-y,1/2-z,-x
187 z,3/4-y,3/4-x
188 3/4-z,3/4-y,x
189 -y,3/4+z,3/4+x
190 1/2+z,1/2+y,x
191 1/4+y,1/2-z,3/4+x
192 3/4+y,3/4+z,-x
_cell_length_a                   13.9429(16)
_cell_length_b                   13.9429(16)
_cell_length_c                   13.9429(16)
_cell_angle_alpha                90
_cell_angle_beta                 90
_cell_angle_gamma                90
_cell_volume                     2710.56
_exptl_crystal_colour            colorless
_exptl_crystal_description       block
_cell_formula_units_Z            8
loop_
_atom_site_label
_atom_site_type_symbol
_atom_site_fract_x
_atom_site_fract_y
_atom_site_fract_z
_atom_site_U_iso_or_equiv
_atom_site_thermal_displace_type
Zn1 Zn 0.1250 0.1250 0.6250 0.1790 Uani
N1 N 0.034(3) 0.216(5) 0.683(3) 0.1800 Uiso
N2 N -0.019(4) 0.269(4) 0.619(4) 0.2300 Uiso
C1 C 0.076(3) 0.332(5) 0.674(3) 0.2000 Uiso
H1 H 0.1250 0.3600 0.6250 0.2450 Uiso
N3 N -0.041(4) 0.291(5) 0.642(4) 0.2300 Uiso
H2 H 0.0862 0.3581 0.6638 0.2820 Uiso
H3 H -0.0174 0.2674 0.5868 0.2820 Uiso
N1B N 0.034(3) 0.034(5) 0.567(3) 0.1800 Uiso
N1QB N 0.216(5) 0.067(3) 0.716(3) 0.1800 Uiso
N1TB N 0.034(5) 0.067(3) 0.534(3) 0.1800 Uiso
N1N N 0.067(3) 0.034(3) 0.534(5) 0.1800 Uiso
N1I N 0.067(3) 0.216(3) 0.716(5) 0.1800 Uiso
N1BB N 0.216(3) 0.034(5) 0.683(3) 0.1800 Uiso
N1FB N 0.216(3) 0.216(5) 0.567(3) 0.1800 Uiso
N1AB N 0.183(3) 0.034(3) 0.716(5) 0.1800 Uiso
N1JB N 0.183(3) 0.216(3) 0.534(5) 0.1800 Uiso
N1OA N 0.216(5) 0.183(3) 0.534(3) 0.1800 Uiso
N1UA N 0.034(5) 0.183(3) 0.716(3) 0.1800 Uiso
N2M N 0.019(4) 0.381(4) 0.731(4) 0.2300 Uiso
C1UA C -0.082(5) 0.174(3) 0.674(3) 0.2000 Uiso
C1M C -0.076(3) 0.326(3) 0.668(5) 0.2000 Uiso
C1FB C 0.174(3) 0.332(5) 0.576(3) 0.2000 Uiso
N3M N 0.041(4) 0.358(4) 0.709(5) 0.2300 Uiso
N3WA N -0.108(4) 0.209(5) 0.709(4) 0.2300 Uiso
H2FB H 0.1638 0.3581 0.5862 0.2820 Uiso
H2M H -0.0862 0.3362 0.6419 0.2820 Uiso
O1 O 0.307(6) 0.307(6) 0.807(6) 0.5000 Uiso
N4? N 0.188(2) 0.010(4) 0.688(2) 0.1420 Uiso
C2? C 0.256(3) 0.021(4) 0.756(3) 0.1460 Uiso
loop_
_atom_site_aniso_label
_atom_site_aniso_U_11
_atom_site_aniso_U_22
_atom_site_aniso_U_33
_atom_site_aniso_U_23
_atom_site_aniso_U_13
_atom_site_aniso_U_12
Zn1 0.179(5) 0.179(5) 0.179(5) 0.000 0.000 0.000
loop_
_geom_bond_atom_site_label_1
_geom_bond_atom_site_label_2
_geom_bond_site_symmetry_1
_geom_bond_site_symmetry_2
Zn1 N1 1_555 1_555
N1 N2 1_555 1_555
N2 N3 1_555 1_555
C1 N1 1_555 1_555
H1 C1 1_555 1_555
N3 N1 1_555 1_555
H2 C1 1_555 1_555
H3 N2 1_555 1_555
N1B Zn1 1_555 1_555
N1QB Zn1 1_555 1_555
N1TB Zn1 1_555 1_555
N1N Zn1 1_555 1_555
N1I Zn1 1_555 1_555
N1BB Zn1 1_555 1_555
N1FB Zn1 1_555 1_555
N1AB Zn1 1_555 1_555
N1JB Zn1 1_555 1_555
N1OA Zn1 1_555 1_555
N1UA Zn1 1_555 1_555
N2M C1 1_555 1_555
C1UA N1 1_555 1_555
C1M N2 1_555 1_555
C1FB H1 1_555 1_555
N3M C1 1_555 1_555
N3WA N3 1_555 1_555
H2FB H1 1_555 1_555
H2M N3 1_555 1_555
N1 N1I 1_555 1_555
N1 N1UA 1_555 1_555
C1 N1I 1_555 1_555
H1 H2 1_555 1_555
N3 H3 1_555 1_555
N3 C1M 1_555 1_555
N3 N3M 1_555 1_555
H2 N3M 1_555 1_555
N1B N1TB 1_555 1_555
N1B N1N 1_555 1_555
N1QB N1BB 1_555 1_555
N1QB N1AB 1_555 1_555
N1TB N1N 1_555 1_555
N1I N1UA 1_555 1_555
N1BB N1AB 1_555 1_555
N1FB N1JB 1_555 1_555
N1FB N1OA 1_555 1_555
N1FB C1FB 1_555 1_555
N1JB N1OA 1_555 1_555
N1JB C1FB 1_555 1_555
N1UA C1UA 1_555 1_555
N2M N3M 1_555 1_555
C1UA N3WA 1_555 1_555
C1M H2M 1_555 1_555
C1FB H2FB 1_555 1_555

#END
