
#######################################################################
#
#                 Cambridge Crystallographic Data Centre
#                                CCDC 
#
#######################################################################
#
# If this CIF has been generated from an entry in the Cambridge 
# Structural Database, then it will include bibliographic, chemical, 
# crystal, experimental, refinement or atomic coordinate data resulting 
# from the CCDC's data processing and validation procedures.
#
#######################################################################

data_EZILUV
_chemical_name_common            
"catena-[(mu!5$-5-(Pyridin-3-ylethynyl)benzene-1,3-dicarboxylato-N,O,O',O'',O''')-copper(ii) dimethylformamide solvate hydrate]"
_chemical_formula_moiety         
'(C15 H7 Cu1 N1 O4)n,0.36n(C3 H7 N1 O1),0.41n(H2 O1)'
_chemical_name_systematic        
"catena-[(\m~5~-5-(Pyridin-3-ylethynyl)isophthalato-N,O,O',O'',O''')-copper(ii) dimethylformamide solvate hydrate]"
_symmetry_cell_setting           rhombohedral
_symmetry_space_group_name_H-M   'R -3 c'
_symmetry_Int_Tables_number      167
_space_group_name_Hall           '-R 3 2"c'
loop_
_symmetry_equiv_pos_site_id
_symmetry_equiv_pos_as_xyz
1 x,y,z
2 -y,x-y,z
3 -x+y,-x,z
4 y,x,1/2-z
5 x-y,-y,1/2-z
6 -x,-x+y,1/2-z
7 2/3+x,1/3+y,1/3+z
8 2/3-y,1/3+x-y,1/3+z
9 2/3-x+y,1/3-x,1/3+z
10 2/3+y,1/3+x,5/6-z
11 2/3+x-y,1/3-y,5/6-z
12 2/3-x,1/3-x+y,5/6-z
13 1/3+x,2/3+y,2/3+z
14 1/3-y,2/3+x-y,2/3+z
15 1/3-x+y,2/3-x,2/3+z
16 1/3+y,2/3+x,1/6-z
17 1/3+x-y,2/3-y,1/6-z
18 1/3-x,2/3-x+y,1/6-z
19 -x,-y,-z
20 y,-x+y,-z
21 x-y,x,-z
22 -y,-x,1/2+z
23 -x+y,y,1/2+z
24 x,x-y,1/2+z
25 1/3-x,2/3-y,2/3-z
26 1/3+y,2/3-x+y,2/3-z
27 1/3+x-y,2/3+x,2/3-z
28 1/3-y,2/3-x,1/6+z
29 1/3-x+y,2/3+y,1/6+z
30 1/3+x,2/3+x-y,1/6+z
31 2/3-x,1/3-y,1/3-z
32 2/3+y,1/3-x+y,1/3-z
33 2/3+x-y,1/3+x,1/3-z
34 2/3-y,1/3-x,5/6+z
35 2/3-x+y,1/3+y,5/6+z
36 2/3+x,1/3+x-y,5/6+z
_cell_length_a                   18.249(3)
_cell_length_b                   18.249(3)
_cell_length_c                   72.569(15)
_cell_angle_alpha                90
_cell_angle_beta                 90
_cell_angle_gamma                120
_cell_volume                     20929.6
_exptl_crystal_colour            blue
_exptl_crystal_description       'hexagonal plate'
_cell_formula_units_Z            36
loop_
_atom_site_label
_atom_site_type_symbol
_atom_site_fract_x
_atom_site_fract_y
_atom_site_fract_z
_atom_site_U_iso_or_equiv
_atom_site_thermal_displace_type
Cu1 Cu 0.792188(19) 1.177395(19) 0.931121(4) 0.0203 Uani
O1 O 0.68754(13) 1.13387(14) 0.91743(3) 0.0318 Uani
O2 O 0.72831(13) 1.08984(14) 0.89261(3) 0.0312 Uani
O3 O 0.44087(13) 1.15989(15) 0.91604(3) 0.0340 Uani
O4 O 0.35371(12) 1.11607(15) 0.89163(3) 0.0330 Uani
N1 N 0.40690(16) 0.86966(13) 0.78883(3) 0.0292 Uani
C1 C 0.43688(17) 0.90591(16) 0.80504(4) 0.0266 Uani
H1 H 0.4887 0.9582 0.8053 0.0320 Uiso
C2 C 0.3327(2) 0.79529(18) 0.78853(4) 0.0352 Uani
H2 H 0.3103 0.7695 0.7770 0.0420 Uiso
C3 C 0.2883(2) 0.7552(2) 0.80430(5) 0.0502 Uani
H3 H 0.2370 0.7026 0.8036 0.0600 Uiso
C4 C 0.3204(2) 0.7936(2) 0.82120(5) 0.0492 Uani
H4 H 0.2913 0.7676 0.8323 0.0590 Uiso
C5 C 0.3959(2) 0.87088(18) 0.82169(4) 0.0330 Uani
C6 C 0.4311(2) 0.9161(2) 0.83859(4) 0.0383 Uani
C7 C 0.4602(2) 0.9584(2) 0.85228(4) 0.0370 Uani
C8 C 0.48955(19) 1.0094(2) 0.86854(4) 0.0324 Uani
C9 C 0.56690(19) 1.0291(2) 0.87666(4) 0.0330 Uani
H5 H 0.6011 1.0090 0.8713 0.0400 Uiso
C10 C 0.59355(17) 1.07798(17) 0.89252(4) 0.0272 Uani
C11 C 0.54359(16) 1.10798(17) 0.90035(4) 0.0269 Uani
H6 H 0.5615 1.1406 0.9113 0.0320 Uiso
C12 C 0.46754(16) 1.08997(17) 0.89203(4) 0.0275 Uani
C13 C 0.44079(18) 1.0412(2) 0.87616(4) 0.0321 Uani
H7 H 0.3892 1.0294 0.8704 0.0390 Uiso
C14 C 0.67552(17) 1.10152(17) 0.90151(3) 0.0255 Uani
C15 C 0.41678(16) 1.12522(17) 0.90053(4) 0.0276 Uani
Cu1I Cu 0.844062(19) 1.125521(19) 0.902212(4) 0.0203 Uani
Cu1B Cu 0.385207(27) 1.207812(19) 0.931121(4) 0.0203 Uani
Cu1J Cu 0.281460(27) 1.155938(19) 0.902212(4) 0.0203 Uani
Cu1IA Cu 0.458855(19) 0.948126(27) 0.764454(4) 0.0203 Uani
O2I O 0.75651(14) 1.06164(13) 0.94072(3) 0.0312 Uani
O3A O 0.84011(15) 1.28098(20) 0.91604(3) 0.0340 Uani
O4J O 0.90431(19) 1.21726(15) 0.94170(3) 0.0330 Uani
N1CA N 0.74023(16) 1.20391(21) 0.95550(3) 0.0292 Uani
loop_
_atom_site_aniso_label
_atom_site_aniso_U_11
_atom_site_aniso_U_22
_atom_site_aniso_U_33
_atom_site_aniso_U_23
_atom_site_aniso_U_13
_atom_site_aniso_U_12
Cu1 0.02364(16) 0.02401(16) 0.02168(15) -0.00044(9) 0.00011(9) 0.01824(12)
O1 0.0301(9) 0.0469(12) 0.0269(8) -0.0096(8) -0.0057(7) 0.0257(9)
O2 0.0290(9) 0.0433(11) 0.0309(9) -0.0112(8) -0.0056(7) 0.0253(9)
O3 0.0250(9) 0.0508(12) 0.0321(9) -0.0155(8) -0.0067(7) 0.0234(9)
O4 0.0246(9) 0.0464(12) 0.0325(9) -0.0110(8) -0.0059(7) 0.0212(9)
N1 0.0392(12) 0.0164(8) 0.0258(9) 0.0011(7) -0.0007(8) 0.0093(8)
C1 0.0283(11) 0.0197(10) 0.0271(11) -0.0022(8) -0.0030(9) 0.0084(9)
C2 0.0377(14) 0.0253(12) 0.0313(12) -0.0004(10) -0.0020(11) 0.0073(11)
C3 0.0476(19) 0.0340(15) 0.0376(15) 0.0030(12) 0.0022(14) -0.0032(14)
C4 0.0466(19) 0.0422(17) 0.0344(15) 0.0039(13) 0.0068(13) 0.0038(15)
C5 0.0367(14) 0.0305(13) 0.0295(12) -0.0020(10) -0.0009(10) 0.0150(11)
C6 0.0469(17) 0.0376(15) 0.0314(13) -0.0051(11) -0.0022(12) 0.0219(14)
C7 0.0403(15) 0.0435(16) 0.0317(13) -0.0097(11) -0.0059(11) 0.0244(14)
C8 0.0354(14) 0.0397(15) 0.0271(11) -0.0089(10) -0.0050(10) 0.0225(12)
C9 0.0370(14) 0.0435(15) 0.0263(11) -0.0073(10) -0.0032(10) 0.0259(13)
C10 0.0271(11) 0.0310(12) 0.0290(11) -0.0051(9) -0.0043(9) 0.0187(10)
C11 0.0236(11) 0.0297(12) 0.0278(11) -0.0058(9) -0.0031(8) 0.0136(9)
C12 0.0206(10) 0.0314(12) 0.0282(11) -0.0065(9) -0.0031(8) 0.0113(9)
C13 0.0297(12) 0.0404(15) 0.0288(11) -0.0079(10) -0.0060(9) 0.0194(11)
C14 0.0278(11) 0.0297(11) 0.0245(10) -0.0025(8) -0.0024(8) 0.0186(10)
C15 0.0224(10) 0.0294(12) 0.0285(11) -0.0032(9) 0.0002(8) 0.0111(9)
Cu1I 0.02401 0.02364 0.02168 -0.00011 0.00044 0.01824
Cu1B 0.01117 0.02364 0.02168 -0.00011 -0.00055 0.0054
Cu1J 0.01117 0.02401 0.02168 -0.00044 -0.00055 0.00577
Cu1IA 0.02364 0.01117 0.02168 0.00055 0.00011 0.0054
O2I 0.0433 0.029 0.0309 0.0056 0.0112 0.0253
O3A 0.0508 0.029 0.0321 0.0088 0.0155 0.0274
O4J 0.0286 0.0464 0.0325 -0.011 -0.0051 0.0252
N1CA 0.0392 0.037 0.0258 -0.0018 -0.0007 0.0299
loop_
_geom_bond_atom_site_label_1
_geom_bond_atom_site_label_2
_geom_bond_site_symmetry_1
_geom_bond_site_symmetry_2
Cu1 O1 1_555 1_555
O1 C14 1_555 1_555
O2 C14 1_555 1_555
O3 C15 1_555 1_555
O4 C15 1_555 1_555
N1 C1 1_555 1_555
C1 H1 1_555 1_555
C2 N1 1_555 1_555
H2 C2 1_555 1_555
C3 C2 1_555 1_555
H3 C3 1_555 1_555
C4 C3 1_555 1_555
H4 C4 1_555 1_555
C5 C1 1_555 1_555
C6 C5 1_555 1_555
C7 C6 1_555 1_555
C8 C7 1_555 1_555
C9 C8 1_555 1_555
H5 C9 1_555 1_555
C10 C9 1_555 1_555
C11 C10 1_555 1_555
H6 C11 1_555 1_555
C12 C11 1_555 1_555
C13 C8 1_555 1_555
H7 C13 1_555 1_555
C14 C10 1_555 1_555
C15 C12 1_555 1_555
Cu1I O2 1_555 1_555
Cu1B O3 1_555 1_555
Cu1J O4 1_555 1_555
Cu1IA N1 1_555 1_555
O2I Cu1 1_555 1_555
O3A Cu1 1_555 1_555
O4J Cu1 1_555 1_555
N1CA Cu1 1_555 1_555
C4 C5 1_555 1_555
C12 C13 1_555 1_555

#END
