
#######################################################################
#
#                 Cambridge Crystallographic Data Centre
#                                CCDC 
#
#######################################################################
#
# If this CIF has been generated from an entry in the Cambridge 
# Structural Database, then it will include bibliographic, chemical, 
# crystal, experimental, refinement or atomic coordinate data resulting 
# from the CCDC's data processing and validation procedures.
#
#######################################################################

data_XOPVUU
_chemical_formula_moiety         '(C78 H48 N12 Ni6 O36)n,18n(C3 H7 N1 O1)'
_chemical_name_systematic        
"catena-[bis(\m~3~-Dihydrogen 1,3,5-benzenetricarboxylato-O,O',O'')-bis(\m~3~-hydrogen 1,3,5-benzenetricarboxylato-O,O',O'')-bis(\m~3~-1,3,5-benzenetricarboxylato-O,O',O'',O''',O'''',O''''')-hexakis(\m~2~-pyrazine-N,N')-hexa-nickel(ii) dimethylformamide solvate]"
_symmetry_cell_setting           hexagonal
_symmetry_space_group_name_H-M   'P -6 2 c'
_symmetry_Int_Tables_number      190
_space_group_name_Hall           'P -6c -2c'
loop_
_symmetry_equiv_pos_site_id
_symmetry_equiv_pos_as_xyz
1 x,y,z
2 -y,x-y,z
3 -x+y,-x,z
4 x,y,1/2-z
5 -y,x-y,1/2-z
6 -x+y,-x,1/2-z
7 y,x,-z
8 x-y,-y,-z
9 -x,-x+y,-z
10 y,x,1/2+z
11 x-y,-y,1/2+z
12 -x,-x+y,1/2+z
_cell_length_a                   16.6361(8)
_cell_length_b                   16.6361(8)
_cell_length_c                   27.868(3)
_cell_angle_alpha                90
_cell_angle_beta                 90
_cell_angle_gamma                120
_cell_volume                     6679.43
_exptl_crystal_colour            'dark green'
_exptl_crystal_description       platy
_cell_formula_units_Z            2
loop_
_atom_site_label
_atom_site_type_symbol
_atom_site_fract_x
_atom_site_fract_y
_atom_site_fract_z
Ni1 Ni -0.01263(9) 0.33123(7) 0.37564(4)
C1 C -0.1588(9) 0.3369(7) 0.3742(3)
C2 C -0.2486(9) 0.3328(7) 0.3718(4)
C3 C -0.3346(7) 0.2546(9) 0.3692(4)
H1 H -0.3352 0.1988 0.3651
C4 C 0.0585(10) 0.1939(9) 0.3746(3)
C5 C 0.0286(9) 0.0927(9) 0.3709(4)
C6 C 0.0901(9) 0.0634(9) 0.3700(4)
H2 H 0.1530 0.1072 0.3688
C7 C 0.2016(9) 0.4754(10) 0.3756(3)
C8 C 0.2702(10) 0.5750(10) 0.3720(4)
C9 C 0.2395(10) 0.6371(10) 0.3719(3)
H3 H 0.1763 0.6173 0.3718
O1 O -0.0841(6) 0.4120(6) 0.3736(2)
O2 O -0.1593(5) 0.2538(5) 0.3765(2)
O3 O -0.0038(5) 0.2162(6) 0.3690(2)
O4 O 0.1381(14) 0.2571(15) 0.3767(4)
O5 O 0.1130(6) 0.4472(7) 0.3748(2)
O6 O 0.2333(12) 0.4188(14) 0.3854(5)
N1 N -0.0145(5) 0.3320(4) 0.2984(3)
N2 N -0.0038(5) 0.3337(4) 0.4499(3)
C10 C 0.0100(12) 0.4102(9) 0.2737(3)
H4 H 0.0272 0.4651 0.2901
C11 C -0.0320(12) 0.2563(9) 0.2740(3)
H5 H -0.0444 0.2027 0.2904
C12 C -0.0565(11) 0.2537(12) 0.4762(6)
H6 H -0.0931 0.1989 0.4595
C13 C 0.0583(12) 0.3085(10) 0.4799(6)
H7 H 0.0975 0.2919 0.4646
Ni1B Ni -0.65614(11) 0.01263(9) 0.37564(4)
Ni1A Ni -0.33123(7) 0.65614(11) 0.37564(4)
Ni1B_2 Ni 0.34386(11) 0.01263(9) 0.37564(4)
Ni1A_2 Ni -0.33123(7) -0.34386(11) 0.37564(4)
Ni1B_3 Ni 0.34386(11) 1.01263(9) 0.37564(4)
Ni1A_3 Ni 0.66877(7) 0.65614(11) 0.37564(4)
Ni1C Ni -0.01263(9) 0.33123(7) 0.12436(4)
Ni1H Ni 0.01263(9) 0.34386(11) 0.62436(4)
Ni1A_4 Ni -1.33123(7) -0.34386(11) 0.37564(4)
Ni1_2 Ni -1.01263(9) 0.33123(7) 0.37564(4)
Ni1_3 Ni -1.01263(9) -0.66877(7) 0.37564(4)
Ni1E Ni -0.65614(11) 0.01263(9) 0.12436(4)
Ni1F Ni -0.66877(7) -0.01263(9) 0.62436(4)
Ni1D Ni -0.33123(7) 0.65614(11) 0.12436(4)
Ni1G Ni -0.34386(11) 0.66877(7) 0.62436(4)
Ni1_4 Ni 0.98737(9) 0.33123(7) 0.37564(4)
C1B C -0.5043(11) 0.1588(9) 0.3742(3)
C1A C -0.3369(7) 0.5043(11) 0.3742(3)
C1B_2 C 0.4957(11) 0.1588(9) 0.3742(3)
C1A_2 C 0.6631(7) 0.5043(11) 0.3742(3)
C1_2 C 0.8412(9) 0.3369(7) 0.3742(3)
C2B C -0.4186(11) 0.2486(9) 0.3718(4)
C2A C -0.3328(7) 0.4186(11) 0.3718(4)
C2B_2 C 0.5814(11) 0.2486(9) 0.3718(4)
C2A_2 C 0.6672(7) 0.4186(11) 0.3718(4)
C2_2 C 0.7514(9) 0.3328(7) 0.3718(4)
C3B C -0.4108(11) 0.3346(7) 0.3692(4)
C3A C -0.2546(9) 0.4108(11) 0.3692(4)
C3B_2 C 0.5892(11) 0.3346(7) 0.3692(4)
C3A_2 C 0.7454(9) 0.4108(11) 0.3692(4)
C3_2 C 0.6654(7) 0.2546(9) 0.3692(4)
H1A H -0.1988 0.4660 0.3651
H1B H -0.4660 0.3352 0.3651
H1B_2 H 0.5340 0.3352 0.3651
H1_2 H 0.6648 0.1988 0.3651
H1A_2 H 0.8012 0.4660 0.3651
C4B C 0.1354(13) -0.0585(10) 0.3746(3)
C4A C -0.1939(9) -0.1354(13) 0.3746(3)
C4B_2 C -0.8646(13) -0.0585(10) 0.3746(3)
C4A_2 C -1.1939(9) -0.1354(13) 0.3746(3)
C4_2 C -0.9415(10) 0.1939(9) 0.3746(3)
C5B C 0.0641(13) -0.0286(9) 0.3709(4)
C5A C -0.0927(9) -0.0641(13) 0.3709(4)
C5B_2 C -0.9359(13) -0.0286(9) 0.3709(4)
C5A_2 C -1.0927(9) -0.0641(13) 0.3709(4)
C5_2 C -0.9714(9) 0.0927(9) 0.3709(4)
C6B C -0.0267(13) -0.0901(9) 0.3700(4)
C6A C -0.0634(9) 0.0267(13) 0.3700(4)
C6B_2 C -1.0267(13) -0.0901(9) 0.3700(4)
C6A_2 C -1.0634(9) 0.0267(13) 0.3700(4)
C6_2 C -0.9099(9) 0.0634(9) 0.3700(4)
H2A H -0.1072 0.0458 0.3688
H2B H -0.0458 -0.1530 0.3688
H2B_2 H -1.0458 -0.1530 0.3688
H2_2 H -0.8470 0.1072 0.3688
H2A_2 H -1.1072 0.0458 0.3688
C7B C 0.2738(13) 0.7984(9) 0.3756(3)
C7A C 0.5246(10) 0.7262(13) 0.3756(3)
C7B_2 C -0.7262(13) -0.2016(9) 0.3756(3)
C7A_2 C -0.4754(10) -0.2738(13) 0.3756(3)
C7_2 C -0.7984(9) -0.5246(10) 0.3756(3)
C8B C 0.3048(14) 0.7298(10) 0.3720(4)
C8A C 0.4250(10) 0.6952(14) 0.3720(4)
C8B_2 C -0.6952(14) -0.2702(10) 0.3720(4)
C8A_2 C -0.5750(10) -0.3048(14) 0.3720(4)
C8_2 C -0.7298(10) -0.4250(10) 0.3720(4)
C9B C 0.3976(14) 0.7605(10) 0.3719(3)
C9A C 0.3629(10) 0.6024(14) 0.3719(3)
C9B_2 C -0.6024(14) -0.2395(10) 0.3719(3)
C9A_2 C -0.6371(10) -0.3976(14) 0.3719(3)
C9_2 C -0.7605(10) -0.3629(10) 0.3719(3)
H3A H 0.3827 0.5590 0.3718
H3B H 0.4410 0.8237 0.3718
H3B_2 H -0.5590 -0.1763 0.3718
H3_2 H -0.8237 -0.3827 0.3718
H3A_2 H -0.6173 -0.4410 0.3718
O1B O -0.5039(8) 0.0841(6) 0.3736(2)
O1A O -0.4120(6) 0.5039(8) 0.3736(2)
O1B_2 O 0.4961(8) 0.0841(6) 0.3736(2)
O1A_2 O 0.5880(6) 0.5039(8) 0.3736(2)
O1_2 O 0.9159(6) 0.4120(6) 0.3736(2)
O1A_3 O -0.4120(6) -0.4961(8) 0.3736(2)
O1B_3 O 0.4961(8) 1.0841(6) 0.3736(2)
O2B O -0.5869(7) 0.1593(5) 0.3765(2)
O2A O -0.2538(5) 0.5869(7) 0.3765(2)
O2B_2 O 0.4131(7) 0.1593(5) 0.3765(2)
O2A_2 O 0.7462(5) 0.5869(7) 0.3765(2)
O2_2 O 0.8407(5) 0.2538(5) 0.3765(2)
O2A_3 O -0.2538(5) -0.4131(7) 0.3765(2)
O2B_3 O 0.4131(7) 1.1593(5) 0.3765(2)
O3B O 0.2200(8) 0.0038(5) 0.3690(2)
O3A O -0.2162(6) -0.2200(8) 0.3690(2)
O3B_2 O -0.7800(8) 0.0038(5) 0.3690(2)
O3A_2 O -1.2162(6) -0.2200(8) 0.3690(2)
O3_2 O -1.0038(5) 0.2162(6) 0.3690(2)
O3A_3 O -0.2162(6) 0.7800(8) 0.3690(2)
O3B_3 O 0.2200(8) 1.0038(5) 0.3690(2)
O4B O 0.1190(21) -0.1381(14) 0.3767(4)
O4A O -0.2571(15) -0.1190(21) 0.3767(4)
O4B_2 O -0.8810(21) -0.1381(14) 0.3767(4)
O4A_2 O -1.2571(15) -0.1190(21) 0.3767(4)
O4_2 O -0.8619(14) 0.2571(15) 0.3767(4)
O5B O 0.3342(9) 0.8870(6) 0.3748(2)
O5A O 0.5528(7) 0.6658(9) 0.3748(2)
O5B_2 O -0.6658(9) -0.1130(6) 0.3748(2)
O5A_2 O -0.4472(7) -0.3342(9) 0.3748(2)
O5_2 O -0.8870(6) -0.5528(7) 0.3748(2)
O5A_3 O -0.4472(7) 0.6658(9) 0.3748(2)
O5B_3 O 0.3342(9) -0.1130(6) 0.3748(2)
O6B O 0.1855(18) 0.7667(12) 0.3854(5)
O6A O 0.5812(14) 0.8145(18) 0.3854(5)
O6B_2 O -0.8145(18) -0.2333(12) 0.3854(5)
O6A_2 O -0.4188(14) -0.1855(18) 0.3854(5)
O6_2 O -0.7667(12) -0.5812(14) 0.3854(5)
N1C N -0.0145(5) 0.3320(4) 0.2016(3)
N1B N -0.6535(6) 0.0145(5) 0.2984(3)
N1E N -0.6535(6) 0.0145(5) 0.2016(3)
N1A N -0.3320(4) 0.6535(6) 0.2984(3)
N1D N -0.3320(4) 0.6535(6) 0.2016(3)
N1B_2 N 0.3465(6) 0.0145(5) 0.2984(3)
N1A_2 N -0.3320(4) -0.3465(6) 0.2984(3)
N1B_3 N 0.3465(6) 1.0145(5) 0.2984(3)
N2H N 0.0038(5) 0.3375(6) 0.5501(3)
N2B N -0.6625(6) 0.0038(5) 0.4499(3)
N2F N -0.6663(4) -0.0038(5) 0.5501(3)
N2A N -0.3337(4) 0.6625(6) 0.4499(3)
N2G N -0.3375(6) 0.6663(4) 0.5501(3)
N2B_2 N 0.3375(6) 0.0038(5) 0.4499(3)
N2A_2 N -0.3337(4) -0.3375(6) 0.4499(3)
N2B_3 N 0.3375(6) 1.0038(5) 0.4499(3)
C10C C 0.0100(12) 0.4102(9) 0.2263(3)
C10B C -0.5998(15) -0.0100(12) 0.2737(3)
C10E C -0.5998(15) -0.0100(12) 0.2263(3)
C10A C -0.4102(9) 0.5998(15) 0.2737(3)
C10D C -0.4102(9) 0.5998(15) 0.2263(3)
H4C H 0.0272 0.4651 0.2099
H4B H -0.5621 -0.0272 0.2901
H4E H -0.5621 -0.0272 0.2099
H4A H -0.4651 0.5621 0.2901
H4D H -0.4651 0.5621 0.2099
C11C C -0.0320(12) 0.2563(9) 0.2260(3)
C11B C -0.7117(15) 0.0320(12) 0.2740(3)
C11E C -0.7117(15) 0.0320(12) 0.2260(3)
C11A C -0.2563(9) 0.7117(15) 0.2740(3)
C11D C -0.2563(9) 0.7117(15) 0.2260(3)
H5C H -0.0444 0.2027 0.2096
H5B H -0.7529 0.0444 0.2904
H5E H -0.7529 0.0444 0.2096
H5A H -0.2027 0.7529 0.2904
H5D H -0.2027 0.7529 0.2096
C12H C 0.0565(11) 0.3102(16) 0.5238(6)
C12B C -0.6898(16) 0.0565(11) 0.4762(6)
C12F C -0.7463(12) -0.0565(11) 0.5238(6)
C12A C -0.2537(12) 0.6898(16) 0.4762(6)
C12G C -0.3102(16) 0.7463(12) 0.5238(6)
H6H H 0.0931 0.2920 0.5405
H6B H -0.7080 0.0931 0.4595
H6F H -0.8011 -0.0931 0.5405
H6A H -0.1989 0.7080 0.4595
H6G H -0.2920 0.8011 0.5405
C13H C -0.0583(12) 0.2502(16) 0.5201(6)
C13B C -0.7498(16) -0.0583(12) 0.4799(6)
C13F C -0.6915(10) 0.0583(12) 0.5201(6)
C13A C -0.3085(10) 0.7498(16) 0.4799(6)
C13G C -0.2502(16) 0.6915(10) 0.5201(6)
H7H H -0.0975 0.1944 0.5354
H7B H -0.8056 -0.0975 0.4646
H7F H -0.7081 0.0975 0.5354
H7A H -0.2919 0.8056 0.4646
H7G H -0.1944 0.7081 0.5354
C14? C 0.0632(9) 0.3543(12) 0.2741(3)
H8? H 0.1176 0.3699 0.2907
C15? C -0.0924(9) 0.3121(12) 0.2740(3)
H9? H -0.1463 0.2982 0.2906
C16? C 0.0543(11) 0.4130(12) 0.4738(6)
H10? H 0.0914 0.4671 0.4567
C17? C -0.0585(12) 0.3556(10) 0.4814(6)
H11? H -0.1011 0.3688 0.4671
loop_
_geom_bond_atom_site_label_1
_geom_bond_atom_site_label_2
_geom_bond_site_symmetry_1
_geom_bond_site_symmetry_2
Ni1 O1 1_555 1_555
C1 C2 1_555 1_555
C2 C3 1_555 1_555
C3 H1 1_555 1_555
C4 C5 1_555 1_555
C5 C6 1_555 1_555
C6 H2 1_555 1_555
C7 C8 1_555 1_555
C8 C9 1_555 1_555
C9 H3 1_555 1_555
O1 C1 1_555 1_555
O2 Ni1 1_555 1_555
O3 Ni1 1_555 1_555
O4 C4 1_555 1_555
O5 Ni1 1_555 1_555
O6 C7 1_555 1_555
N1 Ni1 1_555 1_555
N2 Ni1 1_555 1_555
C10 N1 1_555 1_555
H4 C10 1_555 1_555
C11 N1 1_555 1_555
H5 C11 1_555 1_555
C12 N2 1_555 1_555
H6 C12 1_555 1_555
C13 N2 1_555 1_555
H7 C13 1_555 1_555
Ni1B O1B 1_555 1_555
Ni1A O1A 1_555 1_555
Ni1B_2 O1B_2 1_555 1_555
Ni1A_2 O1A_3 1_555 1_555
Ni1B_3 O1B_3 1_555 1_555
Ni1A_3 O1A_2 1_555 1_555
Ni1C N1C 1_555 1_555
Ni1H N2H 1_555 1_555
Ni1A_4 O3A_2 1_555 1_555
Ni1_2 O3_2 1_555 1_555
Ni1_3 O5_2 1_555 1_555
Ni1E N1E 1_555 1_555
Ni1F N2F 1_555 1_555
Ni1D N1D 1_555 1_555
Ni1G N2G 1_555 1_555
Ni1_4 O1_2 1_555 1_555
C1B C2B 1_555 1_555
C1A C2A 1_555 1_555
C1B_2 C2B_2 1_555 1_555
C1A_2 C2A_2 1_555 1_555
C1_2 C2_2 1_555 1_555
C2B C3 1_555 1_555
C2A C3B 1_555 1_555
C2B_2 C3B_2 1_555 1_555
C2A_2 C3B_2 1_555 1_555
C2_2 C3A_2 1_555 1_555
C3B C2B 1_555 1_555
C3A C2 1_555 1_555
C3B_2 H1B_2 1_555 1_555
C3A_2 C2A_2 1_555 1_555
C3_2 C2B_2 1_555 1_555
H1A C3A 1_555 1_555
H1B C3B 1_555 1_555
H1_2 C3_2 1_555 1_555
H1A_2 C3A_2 1_555 1_555
C4B C5B 1_555 1_555
C4A C5A 1_555 1_555
C4B_2 C5B_2 1_555 1_555
C4A_2 C5A_2 1_555 1_555
C4_2 C5_2 1_555 1_555
C5B C6 1_555 1_555
C5A C6B 1_555 1_555
C5B_2 C6B_2 1_555 1_555
C5A_2 C6B_2 1_555 1_555
C5_2 C6A_2 1_555 1_555
C6B C5B 1_555 1_555
C6A C5 1_555 1_555
C6B_2 H2B_2 1_555 1_555
C6A_2 C5A_2 1_555 1_555
C6_2 C5B_2 1_555 1_555
H2A C6A 1_555 1_555
H2B C6B 1_555 1_555
H2_2 C6_2 1_555 1_555
H2A_2 C6A_2 1_555 1_555
C7B C8B 1_555 1_555
C7A C8A 1_555 1_555
C7B_2 C8B_2 1_555 1_555
C7A_2 C8A_2 1_555 1_555
C7_2 C8_2 1_555 1_555
C8B C9 1_555 1_555
C8A C9B 1_555 1_555
C8B_2 C9B_2 1_555 1_555
C8A_2 C9B_2 1_555 1_555
C8_2 C9A_2 1_555 1_555
C9B C8B 1_555 1_555
C9A C8 1_555 1_555
C9B_2 H3B_2 1_555 1_555
C9A_2 C8A_2 1_555 1_555
C9_2 C8B_2 1_555 1_555
H3A C9A 1_555 1_555
H3B C9B 1_555 1_555
H3_2 C9_2 1_555 1_555
H3A_2 C9A_2 1_555 1_555
O1B C1B 1_555 1_555
O1A C1A 1_555 1_555
O1B_2 C1B_2 1_555 1_555
O1A_2 C1A_2 1_555 1_555
O1_2 C1_2 1_555 1_555
O2B Ni1B 1_555 1_555
O2A Ni1A 1_555 1_555
O2B_2 Ni1B_2 1_555 1_555
O2A_2 Ni1A_3 1_555 1_555
O2_2 Ni1_4 1_555 1_555
O2A_3 Ni1A_2 1_555 1_555
O2B_3 Ni1B_3 1_555 1_555
O3B Ni1B_2 1_555 1_555
O3A Ni1A_2 1_555 1_555
O3B_2 Ni1B 1_555 1_555
O3A_2 C4A_2 1_555 1_555
O3_2 C4_2 1_555 1_555
O3A_3 Ni1A 1_555 1_555
O3B_3 Ni1B_3 1_555 1_555
O4B C4B 1_555 1_555
O4A C4A 1_555 1_555
O4B_2 C4B_2 1_555 1_555
O4A_2 C4A_2 1_555 1_555
O4_2 C4_2 1_555 1_555
O5B Ni1B_3 1_555 1_555
O5A Ni1A_3 1_555 1_555
O5B_2 Ni1B 1_555 1_555
O5A_2 Ni1A_2 1_555 1_555
O5_2 C7_2 1_555 1_555
O5A_3 Ni1A 1_555 1_555
O5B_3 Ni1B_2 1_555 1_555
O6B C7B 1_555 1_555
O6A C7A 1_555 1_555
O6B_2 C7B_2 1_555 1_555
O6A_2 C7A_2 1_555 1_555
O6_2 C7_2 1_555 1_555
N1C C10C 1_555 1_555
N1B Ni1B 1_555 1_555
N1E C10E 1_555 1_555
N1A Ni1A 1_555 1_555
N1D C10D 1_555 1_555
N1B_2 Ni1B_2 1_555 1_555
N1A_2 Ni1A_2 1_555 1_555
N1B_3 Ni1B_3 1_555 1_555
N2H C12H 1_555 1_555
N2B Ni1B 1_555 1_555
N2F C12F 1_555 1_555
N2A Ni1A 1_555 1_555
N2G C12G 1_555 1_555
N2B_2 Ni1B_2 1_555 1_555
N2A_2 Ni1A_2 1_555 1_555
N2B_3 Ni1B_3 1_555 1_555
C10C C10 1_555 1_555
C10B N1B 1_555 1_555
C10E C10B 1_555 1_555
C10A N1A 1_555 1_555
C10D C10A 1_555 1_555
H4C C10C 1_555 1_555
H4B C10B 1_555 1_555
H4E C10E 1_555 1_555
H4A C10A 1_555 1_555
H4D C10D 1_555 1_555
C11C C11 1_555 1_555
C11B N1B 1_555 1_555
C11E N1E 1_555 1_555
C11A N1A 1_555 1_555
C11D N1D 1_555 1_555
H5C C11C 1_555 1_555
H5B C11B 1_555 1_555
H5E C11E 1_555 1_555
H5A C11A 1_555 1_555
H5D C11D 1_555 1_555
C12H C13 1_555 1_555
C12B N2B 1_555 1_555
C12F H6F 1_555 1_555
C12A N2A 1_555 1_555
C12G H6G 1_555 1_555
H6H C12H 1_555 1_555
H6B C12B 1_555 1_555
H6A C12A 1_555 1_555
C13H C12 1_555 1_555
C13B N2B 1_555 1_555
C13F N2F 1_555 1_555
C13A N2A 1_555 1_555
C13G N2G 1_555 1_555
H7H C13H 1_555 1_555
H7B C13B 1_555 1_555
H7F C13F 1_555 1_555
H7A C13A 1_555 1_555
H7G C13G 1_555 1_555
C1 O2 1_555 1_555
C4 O3 1_555 1_555
C7 O5 1_555 1_555
C1B O2B 1_555 1_555
C1A O2A 1_555 1_555
C1B_2 O2B_2 1_555 1_555
C1A_2 O2A_2 1_555 1_555
C1_2 O2_2 1_555 1_555
C2A C3A 1_555 1_555
C2_2 C3_2 1_555 1_555
C4B O3B 1_555 1_555
C4A O3A 1_555 1_555
C4B_2 O3B_2 1_555 1_555
C5A C6A 1_555 1_555
C5_2 C6_2 1_555 1_555
C7B O5B 1_555 1_555
C7A O5A 1_555 1_555
C7B_2 O5B_2 1_555 1_555
C7A_2 O5A_2 1_555 1_555
C8A C9A 1_555 1_555
C8_2 C9_2 1_555 1_555
N1C C11C 1_555 1_555
N2H C13H 1_555 1_555
C11B C11E 1_555 1_555
C11A C11D 1_555 1_555
C12B C13F 1_555 1_555
C12F C13B 1_555 1_555
C12A C13G 1_555 1_555
C12G C13A 1_555 1_555

#END
