
#######################################################################
#
#                 Cambridge Crystallographic Data Centre
#                                CCDC 
#
#######################################################################
#
# If this CIF has been generated from an entry in the Cambridge 
# Structural Database, then it will include bibliographic, chemical, 
# crystal, experimental, refinement or atomic coordinate data resulting 
# from the CCDC's data processing and validation procedures.
#
#######################################################################

data_LUSWOM
_chemical_formula_moiety         '(C34 H28 Cu2 N2 O8)n'
_chemical_name_systematic        
catena-(tetrakis(\m~2~-benzoato)-(\m~2~-2,3-dimethylpyrazine)-di-copper(ii))
_symmetry_cell_setting           triclinic
_symmetry_space_group_name_H-M   'P -1'
_symmetry_Int_Tables_number      2
_space_group_name_Hall           '-P 1'
loop_
_symmetry_equiv_pos_site_id
_symmetry_equiv_pos_as_xyz
1 x,y,z
2 -x,-y,-z
_cell_length_a                   10.484(3)
_cell_length_b                   10.515(3)
_cell_length_c                   15.681(5)
_cell_angle_alpha                81.244(6)
_cell_angle_beta                 82.174(6)
_cell_angle_gamma                88.840(7)
_cell_volume                     1692.6
_exptl_crystal_colour            blue
_exptl_crystal_description       plate
_cell_formula_units_Z            2
loop_
_atom_site_label
_atom_site_type_symbol
_atom_site_fract_x
_atom_site_fract_y
_atom_site_fract_z
_atom_site_U_iso_or_equiv
_atom_site_thermal_displace_type
C1 C 0.4105(4) 0.6983(4) 0.5601(3) 0.0384 Uani
C2 C 0.3583(4) 0.8147(4) 0.5972(3) 0.0387 Uani
C3 C 0.3507(5) 0.9305(4) 0.5445(3) 0.0517 Uani
H1 H 0.3828 0.9383 0.4856 0.0620 Uiso
C4 C 0.2954(6) 1.0360(5) 0.5787(4) 0.0658 Uani
H2 H 0.2904 1.1144 0.5427 0.0790 Uiso
C5 C 0.2483(5) 1.0249(5) 0.6649(3) 0.0644 Uani
H3 H 0.2093 1.0953 0.6872 0.0780 Uiso
C6 C 0.2580(5) 0.9107(5) 0.7189(3) 0.0641 Uani
H4 H 0.2273 0.9044 0.7779 0.0770 Uiso
C7 C 0.3136(4) 0.8049(4) 0.6858(3) 0.0515 Uani
H5 H 0.3211 0.7276 0.7225 0.0620 Uiso
C8 C 0.7118(4) 0.5438(4) 0.5497(3) 0.0460 Uani
C9 C 0.8318(5) 0.5756(5) 0.5831(4) 0.0584 Uani
C10 C 0.8443(6) 0.5367(6) 0.6690(5) 0.0866 Uani
H6 H 0.7790 0.4879 0.7044 0.1040 Uiso
C11 C 0.9524(9) 0.5680(8) 0.7049(6) 0.1235 Uani
H7 H 0.9602 0.5436 0.7635 0.1480 Uiso
C12 C 1.0453(9) 0.6364(8) 0.6486(7) 0.1243 Uani
H8 H 1.1179 0.6589 0.6711 0.1490 Uiso
C13 C 1.0413(7) 0.6749(7) 0.5625(7) 0.1101 Uani
H9 H 1.1094 0.7189 0.5267 0.1320 Uiso
C14 C 0.9280(6) 0.6445(6) 0.5300(5) 0.0824 Uani
H10 H 0.9192 0.6718 0.4718 0.0990 Uiso
C15 C 0.1107(4) 0.0421(4) 1.1267(3) 0.0416 Uani
C16 C 0.1760(4) 0.0733(4) 1.1998(3) 0.0444 Uani
C17 C 0.1266(5) 0.0308(5) 1.2846(3) 0.0635 Uani
H11 H 0.0527 -0.0197 1.2972 0.0760 Uiso
C18 C 0.1875(6) 0.0633(6) 1.3520(4) 0.0792 Uani
H12 H 0.1536 0.0351 1.4095 0.0950 Uiso
C19 C 0.2962(6) 0.1361(6) 1.3341(4) 0.0751 Uani
H13 H 0.3359 0.1580 1.3794 0.0910 Uiso
C20 C 0.3471(6) 0.1769(5) 1.2504(4) 0.0731 Uani
H14 H 0.4226 0.2250 1.2385 0.0880 Uiso
C21 C 0.2869(5) 0.1470(5) 1.1828(3) 0.0590 Uani
H15 H 0.3212 0.1767 1.1255 0.0710 Uiso
C22 C -0.1277(4) 0.2055(4) 1.0116(3) 0.0401 Uani
C23 C -0.2017(5) 0.3278(4) 1.0213(3) 0.0474 Uani
C24 C -0.1519(6) 0.4440(5) 0.9807(4) 0.0732 Uani
H16 H -0.0727 0.4479 0.9455 0.0880 Uiso
C25 C -0.2204(7) 0.5568(5) 0.9924(5) 0.0980 Uani
H17 H -0.1863 0.6359 0.9650 0.1170 Uiso
C26 C -0.3346(7) 0.5523(6) 1.0425(5) 0.0945 Uani
H18 H -0.3794 0.6280 1.0497 0.1130 Uiso
C27 C -0.3855(7) 0.4374(7) 1.0830(5) 0.0979 Uani
H19 H -0.4649 0.4344 1.1180 0.1170 Uiso
C28 C -0.3190(6) 0.3255(5) 1.0721(4) 0.0751 Uani
H20 H -0.3543 0.2471 1.0996 0.0900 Uiso
C29 C 0.2547(4) 0.3458(4) 0.7263(3) 0.0423 Uani
H21 H 0.2149 0.4100 0.6916 0.0510 Uiso
C30 C 0.1841(4) 0.2779(4) 0.7979(3) 0.0395 Uani
H22 H 0.0967 0.2953 0.8098 0.0470 Uiso
C31 C 0.3631(4) 0.1670(4) 0.8334(2) 0.0381 Uani
C32 C 0.4354(4) 0.2326(4) 0.7583(3) 0.0423 Uani
C33 C 0.4261(5) 0.0732(5) 0.8965(3) 0.0604 Uani
H23 H 0.3686 0.0538 0.9499 0.0910 Uiso
H24 H 0.5039 0.1101 0.9079 0.0910 Uiso
H25 H 0.4462 -0.0044 0.8722 0.0910 Uiso
C34 C 0.5755(5) 0.2037(5) 0.7337(4) 0.0699 Uani
H26 H 0.6040 0.2465 0.6759 0.1050 Uiso
H27 H 0.5869 0.1125 0.7357 0.1050 Uiso
H28 H 0.6250 0.2336 0.7739 0.1050 Uiso
Cu1 Cu 0.46302(5) 0.42845(4) 0.57536(3) 0.0384 Uani
Cu2 Cu 0.09044(5) 0.06568(4) 0.94524(3) 0.0358 Uani
N1 N 0.3806(3) 0.3217(3) 0.7049(2) 0.0413 Uani
N2 N 0.2372(3) 0.1874(3) 0.8511(2) 0.0366 Uani
O1 O 0.4620(3) 0.7136(3) 0.48234(19) 0.0530 Uani
O2 O 0.3988(3) 0.5925(3) 0.60978(19) 0.0523 Uani
O3 O 0.6329(3) 0.4720(3) 0.6005(2) 0.0580 Uani
O4 O 0.6964(3) 0.5937(3) 0.4735(2) 0.0557 Uani
O5 O 0.0094(3) -0.0251(3) 1.14497(18) 0.0485 Uani
O6 O 0.1612(3) 0.0876(3) 1.05122(18) 0.0502 Uani
O7 O -0.0229(3) 0.2146(3) 0.9609(2) 0.0523 Uani
O8 O -0.1744(3) 0.1033(3) 1.05491(19) 0.0487 Uani
Cu1A Cu 0.53698(5) 0.57155(4) 0.42464(3) 0.0384 Uani
Cu2A Cu -0.09044(5) -0.06568(4) 1.05476(3) 0.0358 Uani
O1A O 0.5380(3) 0.2864(3) 0.51766(19) 0.0530 Uani
O4A O 0.3036(3) 0.4063(3) 0.5265(2) 0.0557 Uani
O5A O -0.0094(3) 0.0251(3) 0.85503(18) 0.0485 Uani
O8A O 0.1744(3) -0.1033(3) 0.94509(19) 0.0487 Uani
loop_
_atom_site_aniso_label
_atom_site_aniso_U_11
_atom_site_aniso_U_22
_atom_site_aniso_U_33
_atom_site_aniso_U_23
_atom_site_aniso_U_13
_atom_site_aniso_U_12
C1 0.037 0.039 0.036 -0.0026 0.0029 -0.0013
C2 0.035 0.042 0.038 -0.0075 0.0013 -0.0037
C3 0.062 0.046 0.044 -0.0074 0.004 0.004
C4 0.086 0.044 0.064 -0.009 0.002 0.007
C5 0.074 0.059 0.064 -0.032 0.002 0.005
C6 0.08 0.066 0.046 -0.02 0.006 -0.004
C7 0.059 0.054 0.041 -0.01 -0.001 -0.002
C8 0.039 0.04 0.057 -0.009 0.002 0.0025
C9 0.049 0.05 0.077 -0.013 -0.007 0
C10 0.071 0.094 0.099 -0.011 -0.03 -0.004
C11 0.113 0.133 0.13 -0.008 -0.049 0.002
C12 0.104 0.124 0.153 -0.023 -0.042 -0.015
C13 0.071 0.102 0.155 -0.018 -0.005 -0.023
C14 0.058 0.08 0.109 -0.019 -0.004 -0.01
C15 0.049 0.037 0.036 -0.0024 -0.0002 0.0083
C16 0.048 0.047 0.037 -0.0053 -0.0044 0.0094
C17 0.058 0.088 0.043 -0.007 -0.004 -0.006
C18 0.087 0.108 0.042 -0.009 -0.009 0.001
C19 0.08 0.088 0.064 -0.021 -0.023 0.004
C20 0.075 0.073 0.073 -0.005 -0.021 -0.009
C21 0.064 0.062 0.049 -0.002 -0.008 0
C22 0.051 0.0362 0.0309 -0.0024 -0.0005 0.0024
C23 0.055 0.039 0.047 -0.0062 -0.004 0.0066
C24 0.068 0.045 0.099 0.001 0.002 0.001
C25 0.107 0.044 0.138 -0.002 -0.013 0.005
C26 0.102 0.063 0.122 -0.031 -0.012 0.027
C27 0.094 0.085 0.109 -0.019 0.007 0.032
C28 0.077 0.059 0.08 -0.004 0.012 0.021
C29 0.047(2) 0.0354(19) 0.035(2) 0.0119(16) 0.0082(17) 0.0058(17)
C30 0.037(2) 0.0371(19) 0.037(2) 0.0036(16) 0.0104(16) 0.0045(16)
C31 0.043(2) 0.0332(18) 0.0329(19) 0.0037(15) 0.0043(17) -0.0007(16)
C32 0.044(2) 0.037(2) 0.038(2) 0.0055(17) 0.0101(17) 0.0009(17)
C33 0.049(3) 0.070(3) 0.050(3) 0.020(2) 0.003(2) 0.005(2)
C34 0.050(3) 0.075(3) 0.067(3) 0.022(3) 0.017(2) 0.013(2)
Cu1 0.0410(3) 0.0357(3) 0.0309(3) 0.00446(19) 0.0121(2) -0.0015(2)
Cu2 0.0443(3) 0.0316(2) 0.0254(2) 0.00382(18) 0.00859(19) -0.0021(2)
N1 0.0433(19) 0.0362(17) 0.0356(17) 0.0062(14) 0.0126(15) 0.0013(14)
N2 0.0414(18) 0.0343(16) 0.0288(15) 0.0013(13) 0.0076(14) -0.0013(14)
O1 0.07 0.0384 0.0409 -0.0003 0.02 0.0045
O2 0.068 0.041 0.0396 0.0003 0.0141 0.0048
O3 0.047 0.064 0.057 0.0108 -0.0065 -0.0109
O4 0.0454 0.0612 0.0537 0.0015 0.0072 -0.0096
O5 0.0548 0.0581 0.0294 0.0009 -0.0011 -0.008
O6 0.0579 0.0584 0.0304 0.0004 0.0017 -0.011
O7 0.0602 0.0357 0.0516 0.0043 0.013 0.0035
O8 0.0557 0.0372 0.0446 0.0018 0.0142 0.0044
Cu1A 0.041 0.0357 0.0309 0.00446 0.0121 -0.0015
Cu2A 0.0443 0.0316 0.0254 0.00382 0.00859 -0.0021
O1A 0.070(2) 0.0384(15) 0.0409(16) -0.0003(13) 0.0200(15) 0.0045(14)
O4A 0.0454(17) 0.0612(19) 0.0537(19) 0.0015(16) 0.0072(15) -0.0096(15)
O5A 0.0548(18) 0.0581(18) 0.0294(14) 0.0009(13) -0.0011(13) -0.0080(15)
O8A 0.0557(18) 0.0372(14) 0.0446(16) 0.0018(13) 0.0142(14) 0.0044(13)
loop_
_geom_bond_atom_site_label_1
_geom_bond_atom_site_label_2
_geom_bond_site_symmetry_1
_geom_bond_site_symmetry_2
C1 C2 1_555 1_555
C2 C3 1_555 1_555
C3 H1 1_555 1_555
C4 C3 1_555 1_555
H2 C4 1_555 1_555
C5 C4 1_555 1_555
H3 C5 1_555 1_555
C6 C5 1_555 1_555
H4 C6 1_555 1_555
C7 C2 1_555 1_555
H5 C7 1_555 1_555
C8 C9 1_555 1_555
C9 C10 1_555 1_555
C10 H6 1_555 1_555
C11 C10 1_555 1_555
H7 C11 1_555 1_555
C12 C11 1_555 1_555
H8 C12 1_555 1_555
C13 C12 1_555 1_555
H9 C13 1_555 1_555
C14 C9 1_555 1_555
H10 C14 1_555 1_555
C15 C16 1_555 1_555
C16 C17 1_555 1_555
C17 H11 1_555 1_555
C18 C17 1_555 1_555
H12 C18 1_555 1_555
C19 C18 1_555 1_555
H13 C19 1_555 1_555
C20 C19 1_555 1_555
H14 C20 1_555 1_555
C21 C16 1_555 1_555
H15 C21 1_555 1_555
C22 C23 1_555 1_555
C23 C24 1_555 1_555
C24 H16 1_555 1_555
C25 C24 1_555 1_555
H17 C25 1_555 1_555
C26 C25 1_555 1_555
H18 C26 1_555 1_555
C27 C26 1_555 1_555
H19 C27 1_555 1_555
C28 C23 1_555 1_555
H20 C28 1_555 1_555
C29 H21 1_555 1_555
C30 C29 1_555 1_555
H22 C30 1_555 1_555
C31 C32 1_555 1_555
C32 C34 1_555 1_555
C33 C31 1_555 1_555
H23 C33 1_555 1_555
H24 C33 1_555 1_555
H25 C33 1_555 1_555
C34 H26 1_555 1_555
H27 C34 1_555 1_555
H28 C34 1_555 1_555
Cu1 N1 1_555 1_555
Cu2 N2 1_555 1_555
N1 C29 1_555 1_555
N2 C30 1_555 1_555
O1 C1 1_555 1_555
O2 C1 1_555 1_555
O3 C8 1_555 1_555
O4 C8 1_555 1_555
O5 C15 1_555 1_555
O6 C15 1_555 1_555
O7 C22 1_555 1_555
O8 C22 1_555 1_555
Cu1A Cu1 1_555 1_555
Cu2A Cu2 1_555 1_555
O1A Cu1 1_555 1_555
O4A Cu1 1_555 1_555
O5A Cu2 1_555 1_555
O8A Cu2 1_555 1_555
C6 C7 1_555 1_555
C13 C14 1_555 1_555
C20 C21 1_555 1_555
C27 C28 1_555 1_555
C31 N2 1_555 1_555
C32 N1 1_555 1_555
Cu1 O2 1_555 1_555
Cu1 O3 1_555 1_555
Cu2 O6 1_555 1_555
Cu2 O7 1_555 1_555
O1 Cu1A 1_555 1_555
O4 Cu1A 1_555 1_555
O5 Cu2A 1_555 1_555
O8 Cu2A 1_555 1_555

#END
