
#######################################################################
#
#                 Cambridge Crystallographic Data Centre
#                                CCDC 
#
#######################################################################
#
# If this CIF has been generated from an entry in the Cambridge 
# Structural Database, then it will include bibliographic, chemical, 
# crystal, experimental, refinement or atomic coordinate data resulting 
# from the CCDC's data processing and validation procedures.
#
#######################################################################

data_GERNOI
_chemical_formula_moiety         '(C76 H68 N14 O18 Zn3)n,24n(H2 O1)'
_chemical_name_systematic        
"catena-(bis(\m~4~-2-((3,5-bis((1-carboxyethyl)carbamoyl)benzoyl)amino)-propanoate)-tetrakis(\m~2~-4,4'-bipyridine)-tri-zinc tetracosahydrate)"
_symmetry_cell_setting           orthorhombic
_symmetry_space_group_name_H-M   'P 21 21 2'
_symmetry_Int_Tables_number      18
_space_group_name_Hall           'P 2 2ab'
loop_
_symmetry_equiv_pos_site_id
_symmetry_equiv_pos_as_xyz
1 x,y,z
2 -x,-y,z
3 1/2-x,1/2+y,-z
4 1/2+x,1/2-y,-z
_cell_length_a                   18.743(4)
_cell_length_b                   24.386(5)
_cell_length_c                   11.392(2)
_cell_angle_alpha                90
_cell_angle_beta                 90
_cell_angle_gamma                90
_cell_volume                     5206.9
_exptl_crystal_colour            colorless
_cell_formula_units_Z            2
loop_
_atom_site_label
_atom_site_type_symbol
_atom_site_fract_x
_atom_site_fract_y
_atom_site_fract_z
Zn1 Zn 0.5000 0.5000 0.46209(9)
Zn2 Zn 0.70093(4) 0.48202(3) 0.46677(7)
C1 C 0.6187(3) 0.3970(2) 0.4650(6)
C2 C 0.5702(3) 0.3467(2) 0.4679(7)
H1 H 0.5255 0.3551 0.4253
C3 C 0.5526(4) 0.3322(3) 0.5937(6)
H2 H 0.5948 0.3178 0.6321
H3 H 0.5151 0.3048 0.5949
H4 H 0.5365 0.3648 0.6347
C4 C 0.6137(4) 0.2976(3) 0.2940(7)
C5 C 0.6604(4) 0.2531(3) 0.2493(6)
C6 C 0.6489(5) 0.2315(3) 0.1381(6)
H5 H 0.6098 0.2436 0.0933
C7 C 0.6942(5) 0.1927(3) 0.0933(6)
C8 C 0.7523(5) 0.1726(3) 0.1602(6)
H6 H 0.7837 0.1463 0.1290
C9 C 0.7616(4) 0.1927(3) 0.2729(6)
C10 C 0.7161(4) 0.2330(3) 0.3178(6)
H7 H 0.7230 0.2466 0.3942
C11 C 0.6826(5) 0.1684(3) -0.0288(8)
C12 C 0.5515(6) 0.1870(6) -0.2412(10)
H8 H 0.5368 0.2251 -0.2384
H9 H 0.5278 0.1668 -0.1789
H10 H 0.5385 0.1714 -0.3165
C13 C 0.6330(5) 0.1833(4) -0.2247(7)
H11 H 0.6478 0.1446 -0.2357
C14 C 0.6701(5) 0.2185(4) -0.3178(7)
C15 C 0.8199(4) 0.1698(3) 0.3467(6)
C16 C 0.8538(5) 0.1709(3) 0.6660(7)
H12 H 0.8083 0.1566 0.6924
H13 H 0.8531 0.2107 0.6699
H14 H 0.8916 0.1570 0.7159
C17 C 0.8671(4) 0.1530(3) 0.5397(7)
H15 H 0.9128 0.1692 0.5131
C18 C 0.8742(4) 0.0904(2) 0.5363(6)
C19 C 0.7364(4) 0.5205(3) 0.8377(6)
H16 H 0.7599 0.5496 0.8757
C20 C 0.7314(4) 0.5199(3) 0.7176(6)
H17 H 0.7481 0.5506 0.6763
C21 C 0.6778(4) 0.4370(3) 0.7177(6)
H18 H 0.6575 0.4074 0.6765
C22 C 0.6780(5) 0.4343(3) 0.8414(6)
H19 H 0.6592 0.4039 0.8814
C23 C 0.7074(4) 0.4789(3) 0.9023(6)
C24 C 0.7056(4) 0.4778(3) 1.0321(6)
C25 C 0.7199(5) 0.4328(3) 1.0943(7)
H20 H 0.7318 0.4001 1.0552
C26 C 0.7174(5) 0.4336(3) 1.2182(6)
H21 H 0.7283 0.4015 1.2603
C27 C 0.6851(4) 0.5244(3) 1.2121(6)
H22 H 0.6709 0.5562 1.2525
C28 C 0.6891(5) 0.5273(3) 1.0939(6)
H23 H 0.6814 0.5604 1.0538
C29 C 0.8539(4) 0.4465(4) 0.4849(11)
H24 H 0.8330 0.4129 0.5062
C30 C 0.9273(4) 0.4498(3) 0.4801(13)
H25 H 0.9546 0.4185 0.4970
C31 C 0.9611(4) 0.4973(3) 0.4514(7)
C32 C 0.9169(5) 0.5411(4) 0.4263(11)
H26 H 0.9364 0.5753 0.4061
C33 C 0.8434(4) 0.5343(4) 0.4312(9)
H27 H 0.8143 0.5643 0.4119
C34 C 0.5106(4) 0.4542(3) 0.2127(6)
H28 H 0.5191 0.4215 0.2542
C35 C 0.5096(4) 0.4523(3) 0.0940(6)
H29 H 0.5154 0.4185 0.0557
C36 C 0.5000 0.5000 0.0277(9)
C37 C 0.5000 0.5000 -0.1024(9)
C38 C 0.4658(4) 0.4600(3) -0.1674(6)
H30 H 0.4415 0.4316 -0.1282
C39 C 0.4665(4) 0.4609(3) -0.2878(6)
H31 H 0.4424 0.4329 -0.3285
N1 N 0.6055(3) 0.3010(2) 0.4110(5)
H32 H 0.6222 0.2746 0.4545
N2 N 0.6501(4) 0.1998(3) -0.1043(5)
H33 H 0.6377 0.2326 -0.0819
N3 N 0.8110(3) 0.1724(2) 0.4641(5)
H34 H 0.7719 0.1857 0.4937
N4 N 0.7042(3) 0.4782(2) 0.6555(5)
N5 N 0.6999(3) 0.4794(2) 1.2771(5)
N6 N 0.8122(3) 0.4878(2) 0.4615(5)
N7 N 0.5000 0.5000 0.2730(7)
N8 N 0.5000 0.5000 -0.3504(7)
O1 O 0.5917(2) 0.44544(16) 0.4670(4)
O2 O 0.6854(2) 0.39223(17) 0.4637(4)
O3 O 0.5858(3) 0.3314(2) 0.2270(4)
O4 O 0.7055(4) 0.2595(3) -0.2839(5)
O5 O 0.6650(3) 0.2043(3) -0.4217(5)
O6 O 0.7033(5) 0.1225(3) -0.0521(6)
O7 O 0.8180(2) 0.06337(17) 0.5251(4)
O8 O 0.9359(2) 0.07042(17) 0.5460(4)
O9 O 0.8734(3) 0.1484(2) 0.3031(5)
Zn1_2 Zn 0.5000 0.5000 -0.53791(9)
Zn1B Zn 0.0000 1.0000 0.53791(9)
Zn1B_2 Zn 1.0000 0.0000 0.53791(9)
Zn2A Zn 0.29907(4) 0.51798(3) 0.46677(7)
Zn2_2 Zn 0.70093(4) 0.48202(3) 1.46677(7)
Zn2A_2 Zn 0.29907(4) 0.51798(3) 1.46677(7)
Zn2A_3 Zn 1.29907(4) 0.51798(3) 0.46677(7)
Zn2B Zn 0.79907(4) -0.01798(3) 0.53323(7)
Zn2C Zn 0.20093(4) 1.01798(3) 0.53323(7)
C1A C 0.3813(3) 0.6030(2) 0.4650(6)
C2A C 0.4298(3) 0.6533(2) 0.4679(7)
H1A H 0.4745 0.6449 0.4253
C3A C 0.4474(4) 0.6678(3) 0.5937(6)
H2A H 0.4052 0.6822 0.6321
H3A H 0.4849 0.6952 0.5949
H4A H 0.4635 0.6352 0.6347
C4A C 0.3863(4) 0.7024(3) 0.2940(7)
C5A C 0.3396(4) 0.7469(3) 0.2493(6)
C6A C 0.3511(5) 0.7685(3) 0.1381(6)
H5A H 0.3902 0.7564 0.0933
C7A C 0.3058(5) 0.8073(3) 0.0933(6)
C8A C 0.2477(5) 0.8274(3) 0.1602(6)
H6A H 0.2163 0.8537 0.1290
C9A C 0.2384(4) 0.8073(3) 0.2729(6)
C10A C 0.2839(4) 0.7670(3) 0.3178(6)
H7A H 0.2770 0.7534 0.3942
C11A C 0.3174(5) 0.8316(3) -0.0288(8)
C12A C 0.4485(6) 0.8130(6) -0.2412(10)
H8A H 0.4632 0.7749 -0.2384
H9A H 0.4722 0.8332 -0.1789
H10A H 0.4615 0.8286 -0.3165
C13A C 0.3670(5) 0.8167(4) -0.2247(7)
H11A H 0.3522 0.8554 -0.2357
C14A C 0.3299(5) 0.7815(4) -0.3178(7)
C15A C 0.1801(4) 0.8302(3) 0.3467(6)
C16A C 0.1462(5) 0.8291(3) 0.6660(7)
H12A H 0.1917 0.8434 0.6924
H13A H 0.1469 0.7893 0.6699
H14A H 0.1084 0.8430 0.7159
C17A C 0.1329(4) 0.8470(3) 0.5397(7)
H15A H 0.0872 0.8308 0.5131
C18A C 0.1258(4) 0.9096(2) 0.5363(6)
C19A C 0.2636(4) 0.4795(3) 0.8377(6)
H16A H 0.2401 0.4504 0.8757
C20A C 0.2686(4) 0.4801(3) 0.7176(6)
H17A H 0.2519 0.4494 0.6763
C21A C 0.3222(4) 0.5630(3) 0.7177(6)
H18A H 0.3425 0.5926 0.6765
C22A C 0.3220(5) 0.5657(3) 0.8414(6)
H19A H 0.3408 0.5961 0.8814
C23A C 0.2926(4) 0.5211(3) 0.9023(6)
C24A C 0.2944(4) 0.5222(3) 1.0321(6)
C25A C 0.2801(5) 0.5672(3) 1.0943(7)
H20A H 0.2682 0.5999 1.0552
C26A C 0.2826(5) 0.5664(3) 1.2182(6)
H21A H 0.2717 0.5985 1.2603
C27A C 0.3149(4) 0.4756(3) 1.2121(6)
H22A H 0.3291 0.4438 1.2525
C28A C 0.3109(5) 0.4727(3) 1.0939(6)
H23A H 0.3186 0.4396 1.0538
C29A C 1.1461(4) 0.5535(4) 0.4849(11)
H24A H 1.1670 0.5871 0.5062
C30A C 1.0727(4) 0.5502(3) 0.4801(13)
H25A H 1.0454 0.5815 0.4970
C31A C 1.0389(4) 0.5027(3) 0.4514(7)
C32A C 1.0831(5) 0.4589(4) 0.4263(11)
H26A H 1.0636 0.4247 0.4061
C33A C 1.1566(4) 0.4657(4) 0.4312(9)
H27A H 1.1857 0.4357 0.4119
C34A C 0.4894(4) 0.5458(3) 0.2127(6)
H28A H 0.4809 0.5785 0.2542
C35A C 0.4904(4) 0.5477(3) 0.0940(6)
H29A H 0.4846 0.5815 0.0557
C38A C 0.5342(4) 0.5400(3) -0.1674(6)
H30A H 0.5585 0.5684 -0.1282
C39A C 0.5335(4) 0.5391(3) -0.2878(6)
H31A H 0.5576 0.5671 -0.3285
N1A N 0.3945(3) 0.6990(2) 0.4110(5)
H32A H 0.3778 0.7254 0.4545
N2A N 0.3499(4) 0.8002(3) -0.1043(5)
H33A H 0.3623 0.7674 -0.0819
N3A N 0.1890(3) 0.8276(2) 0.4641(5)
H34A H 0.2281 0.8143 0.4937
N4A N 0.2958(3) 0.5218(2) 0.6555(5)
N5A N 0.3001(3) 0.5206(2) 1.2771(5)
N5_2 N 0.6999(3) 0.4794(2) 0.2771(5)
N5A_2 N 0.3001(3) 0.5206(2) 0.2771(5)
N6A N 1.1878(3) 0.5122(2) 0.4615(5)
N6A_2 N 0.1878(3) 0.5122(2) 0.4615(5)
N8_2 N 0.5000 0.5000 0.6496(7)
O1A O 0.4083(2) 0.55456(16) 0.4670(4)
O2A O 0.3146(2) 0.60777(17) 0.4637(4)
O3A O 0.4142(3) 0.6686(2) 0.2270(4)
O4A O 0.2945(4) 0.7405(3) -0.2839(5)
O5A O 0.3350(3) 0.7957(3) -0.4217(5)
O6A O 0.2967(5) 0.8775(3) -0.0521(6)
O7A O 0.1820(2) 0.93663(17) 0.5251(4)
O7B O 0.6820(2) 0.56337(17) 0.4749(4)
O7C O 0.3180(2) 0.43663(17) 0.4749(4)
O8A O 0.0641(2) 0.92958(17) 0.5460(4)
O8B O 0.5641(2) 0.57042(17) 0.4540(4)
O8C O 0.4359(2) 0.42958(17) 0.4540(4)
O9A O 0.1266(3) 0.8516(2) 0.3031(5)
O10 O 0.5840(4) 0.3265(3) 0.9692(6)
H35 H 0.5811 0.3319 1.0431
H36 H 0.6284 0.3230 0.9543
O11 O 0.7834(4) 0.3155(3) 0.5607(6)
H37 H 0.7537 0.3374 0.5287
H38 H 0.7823 0.3150 0.6355
O12 O 0.5431(5) 0.1650(4) 0.4490(9)
H39 H 0.5818 0.1834 0.4487
H40 H 0.5039 0.1768 0.4774
O13 O 0.9122(6) 0.2938(4) 0.4506(11)
H41 H 0.8755 0.3089 0.4812
H42 H 0.9258 0.3111 0.3896
O14 O 0.9401(6) 0.1787(4) 0.0914(8)
H43 H 0.9840 0.1774 0.0714
H44 H 0.9356 0.1929 0.1595
O15 O 0.7534(10) 0.3116(5) 0.9142(9)
H45 H 0.7097 0.3046 0.9015
H46 H 0.7804 0.3322 0.8733
O16 O 0.8785(9) 0.2807(6) 0.0338(15)
H47 H 0.8768 0.2456 0.0339
H48 H 0.8503 0.2933 -0.0186
O17 O 0.8657(7) 0.3419(5) 0.2398(12)
H49 H 0.8658 0.3620 0.1788
H50 H 0.9077 0.3309 0.2569
O18 O 0.5965(11) 0.0363(8) 0.909(2)
H51 H 0.6274 0.0619 0.9140
H52 H 0.5625 0.0408 0.9590
O19 O 0.8609(16) 0.3914(16) 0.781(3)
H53 H 0.8276 0.3947 0.8456
H54 H 0.8416 0.3732 0.7255
O20 O 0.9469(10) 0.4341(7) 0.1292(16)
H55 H 0.9511 0.4582 0.0752
H56 H 0.9035 0.4331 0.1529
O21 O 0.5652(15) 1.089(3) 0.245(3)
H57 H 0.5654 1.0980 0.1726
H58 H 0.5363 1.1097 0.2826
loop_
_geom_bond_atom_site_label_1
_geom_bond_atom_site_label_2
_geom_bond_site_symmetry_1
_geom_bond_site_symmetry_2
Zn1 N7 1_555 1_555
Zn2 N4 1_555 1_555
C1 C2 1_555 1_555
C2 H1 1_555 1_555
C3 C2 1_555 1_555
H2 C3 1_555 1_555
H3 C3 1_555 1_555
H4 C3 1_555 1_555
C4 C5 1_555 1_555
C5 C6 1_555 1_555
C6 H5 1_555 1_555
C7 C6 1_555 1_555
C8 C7 1_555 1_555
H6 C8 1_555 1_555
C9 C8 1_555 1_555
C10 C5 1_555 1_555
H7 C10 1_555 1_555
C11 C7 1_555 1_555
C12 H8 1_555 1_555
H9 C12 1_555 1_555
H10 C12 1_555 1_555
C13 C12 1_555 1_555
H11 C13 1_555 1_555
C14 C13 1_555 1_555
C15 C9 1_555 1_555
C16 H12 1_555 1_555
H13 C16 1_555 1_555
H14 C16 1_555 1_555
C17 C16 1_555 1_555
H15 C17 1_555 1_555
C18 C17 1_555 1_555
C19 H16 1_555 1_555
C20 C19 1_555 1_555
H17 C20 1_555 1_555
C21 H18 1_555 1_555
C22 C21 1_555 1_555
H19 C22 1_555 1_555
C23 C19 1_555 1_555
C24 C23 1_555 1_555
C25 C24 1_555 1_555
H20 C25 1_555 1_555
C26 C25 1_555 1_555
H21 C26 1_555 1_555
C27 H22 1_555 1_555
C28 C24 1_555 1_555
H23 C28 1_555 1_555
C29 H24 1_555 1_555
C30 C29 1_555 1_555
H25 C30 1_555 1_555
C31 C30 1_555 1_555
C32 C31 1_555 1_555
H26 C32 1_555 1_555
C33 C32 1_555 1_555
H27 C33 1_555 1_555
C34 H28 1_555 1_555
C35 C34 1_555 1_555
H29 C35 1_555 1_555
C36 C35 1_555 1_555
C37 C36 1_555 1_555
C38 C37 1_555 1_555
H30 C38 1_555 1_555
C39 C38 1_555 1_555
H31 C39 1_555 1_555
N1 C2 1_555 1_555
H32 N1 1_555 1_555
N2 C11 1_555 1_555
H33 N2 1_555 1_555
N3 C15 1_555 1_555
H34 N3 1_555 1_555
N4 C20 1_555 1_555
N5 C26 1_555 1_555
N6 Zn2 1_555 1_555
N7 C34 1_555 1_555
N8 C39 1_555 1_555
O1 Zn1 1_555 1_555
O2 Zn2 1_555 1_555
O3 C4 1_555 1_555
O4 C14 1_555 1_555
O5 C14 1_555 1_555
O6 C11 1_555 1_555
O7 C18 1_555 1_555
O8 C18 1_555 1_555
O9 C15 1_555 1_555
O10 H35 1_555 1_555
H36 O10 1_555 1_555
O11 H37 1_555 1_555
H38 O11 1_555 1_555
O12 H39 1_555 1_555
H40 O12 1_555 1_555
O13 H41 1_555 1_555
H42 O13 1_555 1_555
O14 H43 1_555 1_555
H44 O14 1_555 1_555
O15 H45 1_555 1_555
H46 O15 1_555 1_555
O16 H47 1_555 1_555
H48 O16 1_555 1_555
O17 H49 1_555 1_555
H50 O17 1_555 1_555
O18 H51 1_555 1_555
H52 O18 1_555 1_555
O19 H53 1_555 1_555
H54 O19 1_555 1_555
O20 H55 1_555 1_555
H56 O20 1_555 1_555
O21 H57 1_555 1_555
H58 O21 1_555 1_555
Zn1_2 N8 1_555 1_555
Zn1B O8A 1_555 1_555
Zn1B_2 O8 1_555 1_555
Zn2A N4A 1_555 1_555
Zn2_2 N5 1_555 1_555
Zn2A_2 N5A 1_555 1_555
Zn2A_3 N6A 1_555 1_555
Zn2B O7 1_555 1_555
Zn2C O7A 1_555 1_555
C1A C2A 1_555 1_555
C2A H1A 1_555 1_555
C3A C2A 1_555 1_555
H2A C3A 1_555 1_555
H3A C3A 1_555 1_555
H4A C3A 1_555 1_555
C4A C5A 1_555 1_555
C5A C6A 1_555 1_555
C6A H5A 1_555 1_555
C7A C6A 1_555 1_555
C8A C7A 1_555 1_555
H6A C8A 1_555 1_555
C9A C8A 1_555 1_555
C10A C5A 1_555 1_555
H7A C10A 1_555 1_555
C11A C7A 1_555 1_555
C12A H8A 1_555 1_555
H9A C12A 1_555 1_555
H10A C12A 1_555 1_555
C13A C12A 1_555 1_555
H11A C13A 1_555 1_555
C14A C13A 1_555 1_555
C15A C9A 1_555 1_555
C16A H12A 1_555 1_555
H13A C16A 1_555 1_555
H14A C16A 1_555 1_555
C17A C16A 1_555 1_555
H15A C17A 1_555 1_555
C18A C17A 1_555 1_555
C19A H16A 1_555 1_555
C20A C19A 1_555 1_555
H17A C20A 1_555 1_555
C21A H18A 1_555 1_555
C22A C21A 1_555 1_555
H19A C22A 1_555 1_555
C23A C19A 1_555 1_555
C24A C23A 1_555 1_555
C25A C24A 1_555 1_555
H20A C25A 1_555 1_555
C26A C25A 1_555 1_555
H21A C26A 1_555 1_555
C27A H22A 1_555 1_555
C28A C24A 1_555 1_555
H23A C28A 1_555 1_555
C29A H24A 1_555 1_555
C30A C29A 1_555 1_555
H25A C30A 1_555 1_555
C31A C31 1_555 1_555
C32A C31A 1_555 1_555
H26A C32A 1_555 1_555
C33A C32A 1_555 1_555
H27A C33A 1_555 1_555
C34A N7 1_555 1_555
H28A C34A 1_555 1_555
C35A C36 1_555 1_555
H29A C35A 1_555 1_555
C38A C37 1_555 1_555
H30A C38A 1_555 1_555
C39A N8 1_555 1_555
H31A C39A 1_555 1_555
N1A C2A 1_555 1_555
H32A N1A 1_555 1_555
N2A C11A 1_555 1_555
H33A N2A 1_555 1_555
N3A C15A 1_555 1_555
H34A N3A 1_555 1_555
N4A C20A 1_555 1_555
N5A C26A 1_555 1_555
N5_2 Zn2 1_555 1_555
N5A_2 Zn2A 1_555 1_555
N6A C29A 1_555 1_555
N6A_2 Zn2A 1_555 1_555
N8_2 Zn1 1_555 1_555
O1A Zn1 1_555 1_555
O2A Zn2A 1_555 1_555
O3A C4A 1_555 1_555
O4A C14A 1_555 1_555
O5A C14A 1_555 1_555
O6A C11A 1_555 1_555
O7A C18A 1_555 1_555
O7B Zn2 1_555 1_555
O7C Zn2A 1_555 1_555
O8A C18A 1_555 1_555
O8B Zn1 1_555 1_555
O8C Zn1 1_555 1_555
O9A C15A 1_555 1_555
Zn2 O1 1_555 1_555
C1 O1 1_555 1_555
C1 O2 1_555 1_555
C4 N1 1_555 1_555
C9 C10 1_555 1_555
C13 N2 1_555 1_555
C17 N3 1_555 1_555
C21 N4 1_555 1_555
C22 C23 1_555 1_555
C27 C28 1_555 1_555
C27 N5 1_555 1_555
C29 N6 1_555 1_555
C33 N6 1_555 1_555
Zn2A O1A 1_555 1_555
C1A O1A 1_555 1_555
C1A O2A 1_555 1_555
C4A N1A 1_555 1_555
C9A C10A 1_555 1_555
C13A N2A 1_555 1_555
C17A N3A 1_555 1_555
C21A N4A 1_555 1_555
C22A C23A 1_555 1_555
C27A C28A 1_555 1_555
C27A N5A 1_555 1_555
C30A C31A 1_555 1_555
C33A N6A 1_555 1_555
C34A C35A 1_555 1_555
C38A C39A 1_555 1_555

#END
