
#######################################################################
#
#                 Cambridge Crystallographic Data Centre
#                                CCDC 
#
#######################################################################
#
# If this CIF has been generated from an entry in the Cambridge 
# Structural Database, then it will include bibliographic, chemical, 
# crystal, experimental, refinement or atomic coordinate data resulting 
# from the CCDC's data processing and validation procedures.
#
#######################################################################

data_HUHZER
_chemical_name_common            Y-1,4-NDC-fcu-MOF
_chemical_formula_moiety         '(C2 H8 N1 1+)n,n(C36 H28 O19 Y3 1-)'
_chemical_name_systematic        
'catena-[Dimethylammonium tris(\m~4~-1,4-naphthalenedicarboxylato)-tetrakis(\m~3~-hydroxo)-triaqua-tri-yttrium unknown solvate]'
_symmetry_cell_setting           cubic
_symmetry_space_group_name_H-M   'F m -3 m'
_symmetry_Int_Tables_number      225
_space_group_name_Hall           '-F 4 2 3'
loop_
_symmetry_equiv_pos_site_id
_symmetry_equiv_pos_as_xyz
1 x,y,z
2 -x,-y,z
3 -x,y,-z
4 x,-y,-z
5 z,x,y
6 z,-x,-y
7 -z,-x,y
8 -z,x,-y
9 y,z,x
10 -y,z,-x
11 y,-z,-x
12 -y,-z,x
13 y,x,-z
14 -y,-x,-z
15 y,-x,z
16 -y,x,z
17 x,z,-y
18 -x,z,y
19 -x,-z,-y
20 x,-z,y
21 z,y,-x
22 z,-y,x
23 -z,y,x
24 -z,-y,-x
25 x,1/2+y,1/2+z
26 -x,1/2-y,1/2+z
27 -x,1/2+y,1/2-z
28 x,1/2-y,1/2-z
29 z,1/2+x,1/2+y
30 z,1/2-x,1/2-y
31 -z,1/2-x,1/2+y
32 -z,1/2+x,1/2-y
33 y,1/2+z,1/2+x
34 -y,1/2+z,1/2-x
35 y,1/2-z,1/2-x
36 -y,1/2-z,1/2+x
37 y,1/2+x,1/2-z
38 -y,1/2-x,1/2-z
39 y,1/2-x,1/2+z
40 -y,1/2+x,1/2+z
41 x,1/2+z,1/2-y
42 -x,1/2+z,1/2+y
43 -x,1/2-z,1/2-y
44 x,1/2-z,1/2+y
45 z,1/2+y,1/2-x
46 z,1/2-y,1/2+x
47 -z,1/2+y,1/2+x
48 -z,1/2-y,1/2-x
49 1/2+x,y,1/2+z
50 1/2-x,-y,1/2+z
51 1/2-x,y,1/2-z
52 1/2+x,-y,1/2-z
53 1/2+z,x,1/2+y
54 1/2+z,-x,1/2-y
55 1/2-z,-x,1/2+y
56 1/2-z,x,1/2-y
57 1/2+y,z,1/2+x
58 1/2-y,z,1/2-x
59 1/2+y,-z,1/2-x
60 1/2-y,-z,1/2+x
61 1/2+y,x,1/2-z
62 1/2-y,-x,1/2-z
63 1/2+y,-x,1/2+z
64 1/2-y,x,1/2+z
65 1/2+x,z,1/2-y
66 1/2-x,z,1/2+y
67 1/2-x,-z,1/2-y
68 1/2+x,-z,1/2+y
69 1/2+z,y,1/2-x
70 1/2+z,-y,1/2+x
71 1/2-z,y,1/2+x
72 1/2-z,-y,1/2-x
73 1/2+x,1/2+y,z
74 1/2-x,1/2-y,z
75 1/2-x,1/2+y,-z
76 1/2+x,1/2-y,-z
77 1/2+z,1/2+x,y
78 1/2+z,1/2-x,-y
79 1/2-z,1/2-x,y
80 1/2-z,1/2+x,-y
81 1/2+y,1/2+z,x
82 1/2-y,1/2+z,-x
83 1/2+y,1/2-z,-x
84 1/2-y,1/2-z,x
85 1/2+y,1/2+x,-z
86 1/2-y,1/2-x,-z
87 1/2+y,1/2-x,z
88 1/2-y,1/2+x,z
89 1/2+x,1/2+z,-y
90 1/2-x,1/2+z,y
91 1/2-x,1/2-z,-y
92 1/2+x,1/2-z,y
93 1/2+z,1/2+y,-x
94 1/2+z,1/2-y,x
95 1/2-z,1/2+y,x
96 1/2-z,1/2-y,-x
97 -x,-y,-z
98 x,y,-z
99 x,-y,z
100 -x,y,z
101 -z,-x,-y
102 -z,x,y
103 z,x,-y
104 z,-x,y
105 -y,-z,-x
106 y,-z,x
107 -y,z,x
108 y,z,-x
109 -y,-x,z
110 y,x,z
111 -y,x,-z
112 y,-x,-z
113 -x,-z,y
114 x,-z,-y
115 x,z,y
116 -x,z,-y
117 -z,-y,x
118 -z,y,-x
119 z,-y,-x
120 z,y,x
121 -x,1/2-y,1/2-z
122 x,1/2+y,1/2-z
123 x,1/2-y,1/2+z
124 -x,1/2+y,1/2+z
125 -z,1/2-x,1/2-y
126 -z,1/2+x,1/2+y
127 z,1/2+x,1/2-y
128 z,1/2-x,1/2+y
129 -y,1/2-z,1/2-x
130 y,1/2-z,1/2+x
131 -y,1/2+z,1/2+x
132 y,1/2+z,1/2-x
133 -y,1/2-x,1/2+z
134 y,1/2+x,1/2+z
135 -y,1/2+x,1/2-z
136 y,1/2-x,1/2-z
137 -x,1/2-z,1/2+y
138 x,1/2-z,1/2-y
139 x,1/2+z,1/2+y
140 -x,1/2+z,1/2-y
141 -z,1/2-y,1/2+x
142 -z,1/2+y,1/2-x
143 z,1/2-y,1/2-x
144 z,1/2+y,1/2+x
145 1/2-x,-y,1/2-z
146 1/2+x,y,1/2-z
147 1/2+x,-y,1/2+z
148 1/2-x,y,1/2+z
149 1/2-z,-x,1/2-y
150 1/2-z,x,1/2+y
151 1/2+z,x,1/2-y
152 1/2+z,-x,1/2+y
153 1/2-y,-z,1/2-x
154 1/2+y,-z,1/2+x
155 1/2-y,z,1/2+x
156 1/2+y,z,1/2-x
157 1/2-y,-x,1/2+z
158 1/2+y,x,1/2+z
159 1/2-y,x,1/2-z
160 1/2+y,-x,1/2-z
161 1/2-x,-z,1/2+y
162 1/2+x,-z,1/2-y
163 1/2+x,z,1/2+y
164 1/2-x,z,1/2-y
165 1/2-z,-y,1/2+x
166 1/2-z,y,1/2-x
167 1/2+z,-y,1/2-x
168 1/2+z,y,1/2+x
169 1/2-x,1/2-y,-z
170 1/2+x,1/2+y,-z
171 1/2+x,1/2-y,z
172 1/2-x,1/2+y,z
173 1/2-z,1/2-x,-y
174 1/2-z,1/2+x,y
175 1/2+z,1/2+x,-y
176 1/2+z,1/2-x,y
177 1/2-y,1/2-z,-x
178 1/2+y,1/2-z,x
179 1/2-y,1/2+z,x
180 1/2+y,1/2+z,-x
181 1/2-y,1/2-x,z
182 1/2+y,1/2+x,z
183 1/2-y,1/2+x,-z
184 1/2+y,1/2-x,-z
185 1/2-x,1/2-z,y
186 1/2+x,1/2-z,-y
187 1/2+x,1/2+z,y
188 1/2-x,1/2+z,-y
189 1/2-z,1/2-y,x
190 1/2-z,1/2+y,-x
191 1/2+z,1/2-y,-x
192 1/2+z,1/2+y,x
_cell_length_a                   21.3872(20)
_cell_length_b                   21.3872(20)
_cell_length_c                   21.3872(20)
_cell_angle_alpha                90
_cell_angle_beta                 90
_cell_angle_gamma                90
_cell_volume                     9782.77
_exptl_crystal_colour            colorless
_cell_formula_units_Z            8
loop_
_atom_site_label
_atom_site_type_symbol
_atom_site_fract_x
_atom_site_fract_y
_atom_site_fract_z
Y1 Y 0.5000 0.0000 0.12676(5)
O1 O 0.55869(16) -0.05869(16) 0.05869(16)
O2 O 0.5000 -0.0982(2) 0.1725(2)
O3 O 0.5000 0.0000 0.2525
C1 C 0.5000 -0.1539(4) 0.1539(4)
C2 C 0.5000 -0.2030(5) 0.2030(5)
C3 C 0.5475(8) -0.2522(9) 0.1988(9)
O2R O 0.5000 -0.1725(2) 0.0982(2)
C3R C 0.4525(8) -0.1988(9) 0.2522(9)
C3UC C 0.4525(8) -0.2522(9) 0.1988(9)
C3ID C 0.5475(8) -0.1988(9) 0.2522(9)
O2OA O 0.5000 -0.3275(2) 0.4018(2)
C1AA C 0.5000 -0.3461(4) 0.3461(4)
C2AA C 0.5000 -0.2970(5) 0.2970(5)
C3HE C 0.5475(8) -0.3012(9) 0.2478(9)
O2AA O 0.5000 -0.4018(2) 0.3275(2)
C3AA C 0.5475(8) -0.2478(9) 0.3012(9)
C3OA C 0.4525(8) -0.3012(9) 0.2478(9)
C3PD C 0.4525(8) -0.2478(9) 0.3012(9)
O1A O 0.44131(16) 0.05869(16) 0.05869(16)
O2A O 0.5000 0.0982(2) 0.1725(2)
C1A C 0.5000 0.1539(4) 0.1539(4)
C2A C 0.5000 0.2030(5) 0.2030(5)
C3A C 0.4525(8) 0.2522(9) 0.1988(9)
O2P O 0.5000 0.1725(2) 0.0982(2)
C3P C 0.5475(8) 0.1988(9) 0.2522(9)
C3TC C 0.5475(8) 0.2522(9) 0.1988(9)
C3KD C 0.4525(8) 0.1988(9) 0.2522(9)
O2QA O 0.5000 0.3275(2) 0.4018(2)
C1Z C 0.5000 0.3461(4) 0.3461(4)
C2Z C 0.5000 0.2970(5) 0.2970(5)
C3FE C 0.4525(8) 0.3012(9) 0.2478(9)
O2Z O 0.5000 0.4018(2) 0.3275(2)
C3Z C 0.4525(8) 0.2478(9) 0.3012(9)
C3QA C 0.5475(8) 0.3012(9) 0.2478(9)
C3QD C 0.5475(8) 0.2478(9) 0.3012(9)
Y1P Y 0.5000 0.12676(5) 0.0000
O1P O 0.55869(16) 0.05869(16) 0.05869(16)
O3P O 0.5000 0.2525 0.0000
O1Q O 0.44131(16) 0.05869(16) -0.05869(16)
O2Q O 0.5000 0.1725(2) -0.0982(2)
C1C C 0.5000 0.1539(4) -0.1539(4)
C2C C 0.5000 0.2030(5) -0.2030(5)
C3Q C 0.4525(8) 0.1988(9) -0.2522(9)
O2C O 0.5000 0.0982(2) -0.1725(2)
C3C C 0.5475(8) 0.2522(9) -0.1988(9)
C3JD C 0.5475(8) 0.1988(9) -0.2522(9)
C3RC C 0.4525(8) 0.2522(9) -0.1988(9)
O2X O 0.5000 0.4018(2) -0.3275(2)
C1X C 0.5000 0.3461(4) -0.3461(4)
C2X C 0.5000 0.2970(5) -0.2970(5)
C3SD C 0.4525(8) 0.2478(9) -0.3012(9)
O2PA O 0.5000 0.3275(2) -0.4018(2)
C3PA C 0.4525(8) 0.3012(9) -0.2478(9)
C3X C 0.5475(8) 0.2478(9) -0.3012(9)
C3GE C 0.5475(8) 0.3012(9) -0.2478(9)
Y1R Y 0.5000 -0.12676(5) 0.0000
O3R O 0.5000 -0.2525 0.0000
Y1B Y 0.5000 0.0000 -0.12676(5)
Y1X Y 0.5000 0.5000 -0.37324(5)
Y1Z Y 0.5000 -0.5000 0.37324(5)
Y1Z_2 Y 0.5000 0.5000 0.37324(5)
Y1NA Y 0.5000 -0.37324(5) 0.5000
Y1PA Y 0.5000 0.37324(5) -0.5000
Y1PA_2 Y 0.5000 0.37324(5) 0.5000
Y1PB Y 0.62676(5) 0.0000 0.0000
Y1RB Y 0.37324(5) 0.0000 0.0000
O1B O 0.44131(16) -0.05869(16) -0.05869(16)
O1C O 0.55869(16) 0.05869(16) -0.05869(16)
O1R O 0.44131(16) -0.05869(16) 0.05869(16)
O1S O 0.55869(16) -0.05869(16) -0.05869(16)
O2S O 0.5000 -0.1725(2) -0.0982(2)
O2DB O 0.4018(2) 0.1725(2) 0.0000
O2EB O 0.5982(2) 0.1725(2) 0.0000
O2FB O 0.4018(2) -0.1725(2) 0.0000
O2GB O 0.5982(2) -0.1725(2) 0.0000
O2HC O 0.4018(2) 0.0000 0.1725(2)
O2IC O 0.5982(2) 0.0000 0.1725(2)
H1? H 0.4709 -0.2025 0.2353
H2? H 0.6027 -0.2227 0.1273
C4? C 0.6002(13) -0.2557(16) 0.1555(15)
C5? C 0.6491(10) -0.3019(13) 0.1491(10)
loop_
_geom_bond_atom_site_label_1
_geom_bond_atom_site_label_2
_geom_bond_site_symmetry_1
_geom_bond_site_symmetry_2
Y1 O1 1_555 1_555
O1 Y1R 1_555 1_555
O2 Y1 1_555 1_555
O3 Y1 1_555 1_555
C1 O2 1_555 1_555
C2 C1 1_555 1_555
C3 C2 1_555 1_555
O2R C1 1_555 1_555
C3R C2 1_555 1_555
C3UC C2 1_555 1_555
C3ID C2 1_555 1_555
O2OA C1AA 1_555 1_555
C1AA C2AA 1_555 1_555
C2AA C3HE 1_555 1_555
C3HE C3 1_555 1_555
O2AA C1AA 1_555 1_555
C3AA C3ID 1_555 1_555
C3OA C3UC 1_555 1_555
C3PD C3R 1_555 1_555
O1A Y1 1_555 1_555
O2A Y1 1_555 1_555
C1A O2A 1_555 1_555
C2A C1A 1_555 1_555
C3A C2A 1_555 1_555
O2P C1A 1_555 1_555
C3P C2A 1_555 1_555
C3TC C2A 1_555 1_555
C3KD C2A 1_555 1_555
O2QA C1Z 1_555 1_555
C1Z C2Z 1_555 1_555
C2Z C3FE 1_555 1_555
C3FE C3A 1_555 1_555
O2Z C1Z 1_555 1_555
C3Z C3KD 1_555 1_555
C3QA C3TC 1_555 1_555
C3QD C3P 1_555 1_555
Y1P O1A 1_555 1_555
O1P Y1 1_555 1_555
O3P Y1P 1_555 1_555
O1Q Y1P 1_555 1_555
O2Q Y1P 1_555 1_555
C1C O2Q 1_555 1_555
C2C C1C 1_555 1_555
C3Q C2C 1_555 1_555
O2C C1C 1_555 1_555
C3C C2C 1_555 1_555
C3JD C2C 1_555 1_555
C3RC C2C 1_555 1_555
O2X C1X 1_555 1_555
C1X C2X 1_555 1_555
C2X C3SD 1_555 1_555
C3SD C3Q 1_555 1_555
O2PA C1X 1_555 1_555
C3PA C3RC 1_555 1_555
C3X C3JD 1_555 1_555
C3GE C3C 1_555 1_555
Y1R O2R 1_555 1_555
O3R Y1R 1_555 1_555
Y1B O1Q 1_555 1_555
Y1X O2X 1_555 1_555
Y1Z O2AA 1_555 1_555
Y1Z_2 O2Z 1_555 1_555
Y1NA O2OA 1_555 1_555
Y1PA O2PA 1_555 1_555
Y1PA_2 O2QA 1_555 1_555
Y1PB O1 1_555 1_555
Y1RB O1A 1_555 1_555
O1B Y1R 1_555 1_555
O1C Y1P 1_555 1_555
O1R Y1 1_555 1_555
O1S Y1R 1_555 1_555
O2S Y1R 1_555 1_555
O2DB Y1P 1_555 1_555
O2EB Y1P 1_555 1_555
O2FB Y1R 1_555 1_555
O2GB Y1R 1_555 1_555
O2HC Y1 1_555 1_555
O2IC Y1 1_555 1_555
C3 C3ID 1_555 1_555
C3R C3UC 1_555 1_555
C2AA C3AA 1_555 1_555
C2AA C3OA 1_555 1_555
C2AA C3PD 1_555 1_555
C3HE C3AA 1_555 1_555
C3OA C3PD 1_555 1_555
C3A C3KD 1_555 1_555
O2P Y1P 1_555 1_555
C3P C3TC 1_555 1_555
C2Z C3Z 1_555 1_555
C2Z C3QA 1_555 1_555
C2Z C3QD 1_555 1_555
C3FE C3Z 1_555 1_555
C3QA C3QD 1_555 1_555
Y1P O1P 1_555 1_555
O1P Y1PB 1_555 1_555
O1Q Y1RB 1_555 1_555
C3Q C3RC 1_555 1_555
O2C Y1B 1_555 1_555
C3C C3JD 1_555 1_555
C2X C3PA 1_555 1_555
C2X C3X 1_555 1_555
C2X C3GE 1_555 1_555
C3SD C3PA 1_555 1_555
C3X C3GE 1_555 1_555
Y1R O1R 1_555 1_555
Y1B O1B 1_555 1_555
Y1B O1C 1_555 1_555
Y1B O1S 1_555 1_555
Y1PB O1C 1_555 1_555
Y1PB O1S 1_555 1_555
Y1RB O1B 1_555 1_555
Y1RB O1R 1_555 1_555

#END
