
#######################################################################
#
#                 Cambridge Crystallographic Data Centre
#                                CCDC 
#
#######################################################################
#
# If this CIF has been generated from an entry in the Cambridge 
# Structural Database, then it will include bibliographic, chemical, 
# crystal, experimental, refinement or atomic coordinate data resulting 
# from the CCDC's data processing and validation procedures.
#
#######################################################################

data_BEXPAX
_chemical_formula_moiety         '(C20 H22 N2 Ni1 O8)n,n(C3 H7 N1 O1)'
_chemical_name_systematic        
"catena-((\m~3~-2,2'-dihydroxybiphenyl-4,4'-dicarboxylato)-bis(N,N-dimethylformamide)-nickel(ii) N,N-dimethylformamide solvate)"
_symmetry_cell_setting           trigonal
_symmetry_space_group_name_H-M   'P 31 2 1'
_symmetry_Int_Tables_number      152
_space_group_name_Hall           'P 31 2"'
loop_
_symmetry_equiv_pos_site_id
_symmetry_equiv_pos_as_xyz
1 x,y,z
2 -y,x-y,1/3+z
3 -x+y,-x,2/3+z
4 x-y,-y,2/3-z
5 -x,-x+y,1/3-z
6 y,x,-z
_cell_length_a                   17.2139(3)
_cell_length_b                   17.2139(3)
_cell_length_c                   8.5240(5)
_cell_angle_alpha                90
_cell_angle_beta                 90
_cell_angle_gamma                120
_cell_volume                     2187.42
_exptl_crystal_colour            green
_exptl_crystal_description       block
_cell_formula_units_Z            3
loop_
_atom_site_label
_atom_site_type_symbol
_atom_site_fract_x
_atom_site_fract_y
_atom_site_fract_z
_atom_site_U_iso_or_equiv
_atom_site_thermal_displace_type
Ni1 Ni 0.52534(3) 0.0000 0.3333 0.0259 Uani
O1 O 0.62765(12) 0.18497(13) 0.5293(3) 0.0284 Uani
O2 O 0.92332(12) 0.40055(11) 0.7709(2) 0.0221 Uani
O3 O 0.64884(13) 0.07749(14) 0.4265(3) 0.0356 Uani
O4 O 0.56368(15) 0.08383(14) 0.1361(3) 0.0370 Uani
C1 C 0.77184(18) 0.19918(18) 0.5485(3) 0.0224 Uani
C2 C 0.80392(18) 0.27782(18) 0.6362(3) 0.0227 Uani
H1 H 0.7655 0.2991 0.6628 0.0270 Uiso
C3 C 0.95208(18) 0.29400(18) 0.6417(4) 0.0232 Uani
C4 C 0.8289(2) 0.16683(19) 0.5096(4) 0.0318 Uani
H2 H 0.8075 0.1140 0.4526 0.0380 Uiso
N1 N 0.5292(2) 0.14975(19) -0.0626(3) 0.0453 Uani
C5 C 0.89293(18) 0.32433(16) 0.6836(3) 0.0218 Uani
C6 C 0.9181(2) 0.2141(2) 0.5565(4) 0.0350 Uani
H3 H 0.9561 0.1921 0.5307 0.0420 Uiso
C7 C 0.67590(18) 0.14948(18) 0.4977(3) 0.0245 Uani
C8 C 0.5100(3) 0.0855(2) 0.0384(4) 0.0397 Uani
H4 H 0.4517 0.0371 0.0380 0.0480 Uiso
C9 C 0.4616(3) 0.1499(3) -0.1649(5) 0.0537 Uani
H5 H 0.4889 0.2024 -0.2300 0.0810 Uiso
H6 H 0.4153 0.1501 -0.1023 0.0810 Uiso
H7 H 0.4360 0.0972 -0.2297 0.0810 Uiso
C10 C 0.6175(3) 0.2301(3) -0.0621(5) 0.0590 Uani
H8 H 0.6203 0.2700 -0.1435 0.0890 Uiso
H9 H 0.6625 0.2138 -0.0801 0.0890 Uiso
H10 H 0.6277 0.2596 0.0377 0.0890 Uiso
O1D O 1.37235(12) 0.55732(18) 0.8040(3) 0.0284 Uani
O2D O 1.07668(12) 0.47723(16) 0.5624(2) 0.0221 Uani
O3D O 1.35116(13) 0.42865(19) 0.9068(3) 0.0356 Uani
C1D C 1.22816(18) 0.42734(25) 0.7848(3) 0.0224 Uani
C2D C 1.19608(18) 0.47390(25) 0.6971(3) 0.0227 Uani
H1D H 1.2345 0.5336 0.6705 0.0270 Uiso
C3D C 1.04792(18) 0.34192(25) 0.6916(4) 0.0232 Uani
C4D C 1.1711(2) 0.33793(28) 0.8237(4) 0.0318 Uani
H2D H 1.1925 0.3065 0.8807 0.0380 Uiso
C5D C 1.10707(18) 0.43140(24) 0.6497(3) 0.0218 Uani
C6D C 1.0819(2) 0.2960(3) 0.7768(4) 0.0350 Uani
H3D H 1.0439 0.2360 0.8026 0.0420 Uiso
C7D C 1.32410(18) 0.47358(25) 0.8356(3) 0.0245 Uani
O4C O 0.47985(21) -0.08383(14) 0.5306(3) 0.0370 Uani
N1C N 0.37945(28) -0.14975(19) 0.7293(3) 0.0453 Uani
C8C C 0.4245(4) -0.0855(2) 0.6283(4) 0.0397 Uani
H4C H 0.4146 -0.0371 0.6287 0.0480 Uiso
C9C C 0.3117(4) -0.1499(3) 0.8316(5) 0.0537 Uani
H5C H 0.2865 -0.2024 0.8967 0.0810 Uiso
H6C H 0.2652 -0.1501 0.7690 0.0810 Uiso
H7C H 0.3388 -0.0972 0.8964 0.0810 Uiso
C10C C 0.3874(4) -0.2301(3) 0.7288(5) 0.0590 Uani
H8C H 0.3503 -0.2700 0.8102 0.0890 Uiso
H9C H 0.4487 -0.2138 0.7468 0.0890 Uiso
H10C H 0.3681 -0.2596 0.6290 0.0890 Uiso
Ni1A Ni 1.0000 0.52534(3) 0.6666 0.0259 Uani
Ni1B Ni 1.47466(3) 0.47466(3) 1.0000 0.0259 Uani
O2B O 0.47723(16) 0.07668(12) 0.4376(2) 0.0221 Uani
O2E O 0.40055(11) -0.07668(12) 0.2291(2) 0.0221 Uani
O3C O 0.57135(19) -0.07749(14) 0.2402(3) 0.0356 Uani
H11? H 0.4046 0.0974 -0.1447 0.0810 Uiso
H12? H 0.4781 0.1497 -0.2724 0.0810 Uiso
H13? H 0.4575 0.2026 -0.1450 0.0810 Uiso
H14? H 0.6534 0.2256 0.0196 0.0890 Uiso
H15? H 0.6112 0.2818 -0.0439 0.0890 Uiso
H16? H 0.6460 0.2360 -0.1616 0.0890 Uiso
loop_
_atom_site_aniso_label
_atom_site_aniso_U_11
_atom_site_aniso_U_22
_atom_site_aniso_U_33
_atom_site_aniso_U_23
_atom_site_aniso_U_13
_atom_site_aniso_U_12
Ni1 0.01235(19) 0.0128(3) 0.0528(3) -0.0072(2) -0.00360(12) 0.00639(13)
O1 0.0165(10) 0.0199(10) 0.0517(12) -0.0089(9) -0.0063(9) 0.0113(8)
O2 0.0143(9) 0.0107(8) 0.0393(10) 0.0000(8) 0.0002(8) 0.0048(7)
O3 0.0159(9) 0.0247(11) 0.0683(16) -0.0187(10) -0.0102(10) 0.0117(9)
O4 0.0243(11) 0.0197(10) 0.0591(14) -0.0019(10) 0.0119(11) 0.0051(9)
C1 0.0150(13) 0.0118(12) 0.0384(15) -0.0013(11) -0.0005(11) 0.0053(11)
C2 0.0134(12) 0.0144(13) 0.0427(17) 0.0017(12) 0.0020(11) 0.0087(11)
C3 0.0119(13) 0.0145(13) 0.0428(16) 0.0003(12) -0.0047(12) 0.0062(11)
C4 0.0203(14) 0.0185(13) 0.0569(18) -0.0132(12) -0.0052(13) 0.0100(11)
N1 0.0514(19) 0.0272(15) 0.0468(17) 0.0042(13) 0.0087(14) 0.0117(14)
C5 0.0163(13) 0.0120(11) 0.0367(14) -0.0013(10) -0.0010(12) 0.0067(11)
C6 0.0189(14) 0.0213(15) 0.066(2) -0.0081(14) -0.0014(14) 0.0110(12)
C7 0.0185(14) 0.0149(13) 0.0403(17) -0.0040(11) -0.0050(12) 0.0085(12)
C8 0.0359(19) 0.0280(17) 0.052(2) 0.0011(16) 0.0120(17) 0.0135(15)
C9 0.067(3) 0.053(2) 0.045(2) -0.0008(18) -0.001(2) 0.033(2)
C10 0.056(3) 0.033(2) 0.068(3) 0.0149(19) 0.021(2) 0.0072(18)
O1D 0.0165 0.0138 0.0517 0.0026 -0.0063 0.0052
O2D 0.0143 0.0154 0.0393 0.0002 0.0002 0.0095
O3D 0.0159 0.0172 0.0683 0.0085 -0.0102 0.0042
C1D 0.015 0.0162 0.0384 0.0008 -0.0005 0.0097
C2D 0.0134 0.0104 0.0427 0.0003 0.002 0.0047
C3D 0.0119 0.014 0.0428 -0.005 -0.0047 0.0057
C4D 0.0203 0.0188 0.0569 0.008 -0.0052 0.0103
C5D 0.0163 0.0149 0.0367 0.0003 -0.001 0.0096
C6D 0.0189 0.0182 0.066 0.0067 -0.0014 0.0079
C7D 0.0185 0.0164 0.0403 -0.001 -0.005 0.01
O4C 0.0338 0.0197 0.0591 -0.0019 -0.0138 0.0146
N1C 0.0552 0.0272 0.0468 0.0042 -0.0045 0.0155
C8C 0.0369 0.028 0.052 0.0011 -0.0109 0.0145
C9C 0.054 0.053 0.045 -0.0008 0.0002 0.02
C10C 0.0746 0.033 0.068 0.0149 -0.0061 0.0258
Ni1A 0.0128 0.01237 0.0528 0.0036 0.0072 0.00641
Ni1B 0.01237 0.01235 0.0528 0.0036 -0.0036 0.00596
O2B 0.0154 0.0143 0.0393 -0.0002 -0.0002 0.0095
O2E 0.0107 0.0143 0.0393 -0.0002 0 0.0048
O3C 0.0172 0.0247 0.0683 -0.0187 -0.0085 0.013
loop_
_geom_bond_atom_site_label_1
_geom_bond_atom_site_label_2
_geom_bond_site_symmetry_1
_geom_bond_site_symmetry_2
Ni1 O3 1_555 1_555
O1 C7 1_555 1_555
O2 C5 1_555 1_555
O3 C7 1_555 1_555
O4 Ni1 1_555 1_555
C1 C2 1_555 1_555
C2 H1 1_555 1_555
C3 C5 1_555 1_555
C4 C1 1_555 1_555
H2 C4 1_555 1_555
N1 C8 1_555 1_555
C5 C2 1_555 1_555
C6 C3 1_555 1_555
H3 C6 1_555 1_555
C7 C1 1_555 1_555
C8 O4 1_555 1_555
H4 C8 1_555 1_555
C9 N1 1_555 1_555
H5 C9 1_555 1_555
H6 C9 1_555 1_555
H7 C9 1_555 1_555
C10 N1 1_555 1_555
H8 C10 1_555 1_555
H9 C10 1_555 1_555
H10 C10 1_555 1_555
O1D C7D 1_555 1_555
O2D C5D 1_555 1_555
O3D C7D 1_555 1_555
C1D C2D 1_555 1_555
C2D H1D 1_555 1_555
C3D C3 1_555 1_555
C4D C1D 1_555 1_555
H2D C4D 1_555 1_555
C5D C2D 1_555 1_555
C6D C3D 1_555 1_555
H3D C6D 1_555 1_555
C7D C1D 1_555 1_555
O4C Ni1 1_555 1_555
N1C C8C 1_555 1_555
C8C O4C 1_555 1_555
H4C C8C 1_555 1_555
C9C N1C 1_555 1_555
H5C C9C 1_555 1_555
H6C C9C 1_555 1_555
H7C C9C 1_555 1_555
C10C N1C 1_555 1_555
H8C C10C 1_555 1_555
H9C C10C 1_555 1_555
H10C C10C 1_555 1_555
Ni1A O2 1_555 1_555
Ni1B O3D 1_555 1_555
O2B Ni1 1_555 1_555
O2E Ni1 1_555 1_555
O3C Ni1 1_555 1_555
C4 C6 1_555 1_555
O2D Ni1A 1_555 1_555
C3D C5D 1_555 1_555
C4D C6D 1_555 1_555

#END
