
#######################################################################
#
#                 Cambridge Crystallographic Data Centre
#                                CCDC 
#
#######################################################################
#
# If this CIF has been generated from an entry in the Cambridge 
# Structural Database, then it will include bibliographic, chemical, 
# crystal, experimental, refinement or atomic coordinate data resulting 
# from the CCDC's data processing and validation procedures.
#
#######################################################################

data_BEXPEB
_chemical_formula_moiety         '(C24 H30 N2 Ni1 O8)n,0.33n(C5 H11 N1 O1)'
_chemical_name_systematic        
"catena-((\m~3~-2,2'-dihydroxybiphenyl-4,4'-dicarboxylato)-bis(N,N-diethylformamide)-nickel(ii) N,N-diethylformamide solvate)"
_symmetry_cell_setting           trigonal
_symmetry_space_group_name_H-M   'P 31 2 1'
_symmetry_Int_Tables_number      152
_space_group_name_Hall           'P 31 2"'
loop_
_symmetry_equiv_pos_site_id
_symmetry_equiv_pos_as_xyz
1 x,y,z
2 -y,x-y,1/3+z
3 y,x,-z
4 -x+y,-x,2/3+z
5 -x,-x+y,1/3-z
6 x-y,-y,2/3-z
_cell_length_a                   17.3278(4)
_cell_length_b                   17.3278(4)
_cell_length_c                   9.1188(3)
_cell_angle_alpha                90
_cell_angle_beta                 90
_cell_angle_gamma                120
_cell_volume                     2371.13
_exptl_crystal_colour            green
_exptl_crystal_description       block
_cell_formula_units_Z            3
loop_
_atom_site_label
_atom_site_type_symbol
_atom_site_fract_x
_atom_site_fract_y
_atom_site_fract_z
C1 C 0.2860(5) 0.4773(4) 0.4347(8)
H1 H 0.3075 0.5378 0.4485
C2 C 0.2085(5) 0.4287(4) 0.3565(9)
C3 C 0.2261(5) 0.2997(5) 0.3879(9)
H2 H 0.2061 0.2398 0.3700
C4 C 0.1774(5) 0.3374(4) 0.3305(8)
H3 H 0.1257 0.3030 0.2766
C5 C 0.3333(4) 0.4400(5) 0.4937(8)
C6 C 0.3027(4) 0.3482(4) 0.4700(8)
O1 O 0.4067(3) 0.4883(3) 0.5779(6)
O2 O 0.0677(4) 0.4966(6) -0.0281(6)
N1 N 0.1408(12) 0.4453(11) -0.1679(19)
C7 C 0.0861(11) 0.4348(11) -0.0698(17)
H4 H 0.0565 0.3798 -0.0231
C8 C 0.1526(16) 0.3713(12) -0.211(3)
H5 H 0.1946 0.3685 -0.1434
H6 H 0.1791 0.3832 -0.3076
C9 C 0.1384(19) 0.5048(17) -0.277(3)
H7 H 0.0879 0.5138 -0.2642
H8 H 0.1384 0.4845 -0.3765
C10 C 0.068(2) 0.280(2) -0.213(6)
H9 H 0.0814 0.2357 -0.2452
H10 H 0.0252 0.2818 -0.2787
H11 H 0.0426 0.2656 -0.1159
C11 C 0.227(2) 0.588(2) -0.238(4)
H12 H 0.2373 0.6355 -0.3037
H13 H 0.2743 0.5749 -0.2466
H14 H 0.2240 0.6053 -0.1392
Ni1 Ni 0.0000 0.46492(6) 0.1667
O3 O 0.0839(3) 0.4242(3) 0.2412(7)
O4 O 0.1934(4) 0.5560(4) 0.3216(8)
C12 C 0.1567(4) 0.4715(5) 0.3019(8)
C1B C 0.4773(4) 0.2860(5) 0.5653(8)
H1B H 0.5378 0.3075 0.5515
C2B C 0.4287(4) 0.2085(5) 0.6435(9)
C3B C 0.2997(5) 0.2261(5) 0.6121(9)
H2B H 0.2398 0.2061 0.6300
C4B C 0.3374(4) 0.1774(5) 0.6695(8)
H3B H 0.3030 0.1257 0.7234
C5B C 0.4400(5) 0.3333(4) 0.5063(8)
C6B C 0.3482(4) 0.3027(4) 0.5300(8)
O1B O 0.4883(3) 0.4067(3) 0.4221(6)
O3B O 0.4242(3) 0.0839(3) 0.7588(7)
O4B O 0.5560(4) 0.1934(4) 0.6784(8)
C12B C 0.4715(5) 0.1567(4) 0.6981(8)
O2D O -0.0677(4) 0.4289(7) 0.3614(6)
N1D N -0.1408(12) 0.3045(16) 0.5012(19)
C7D C -0.0861(11) 0.3487(16) 0.4031(17)
H4D H -0.0565 0.3233 0.3564
C8D C -0.1526(16) 0.2187(20) 0.544(3)
H5D H -0.1946 0.1739 0.4767
H6D H -0.1791 0.2041 0.6409
C9D C -0.1384(19) 0.3664(25) 0.610(3)
H7D H -0.0879 0.4259 0.5975
H8D H -0.1384 0.3461 0.7098
C10D C -0.068(2) 0.212(3) 0.546(6)
H9D H -0.0814 0.1543 0.5785
H10D H -0.0252 0.2566 0.6120
H11D H -0.0426 0.2230 0.4492
C11D C -0.227(2) 0.361(3) 0.571(4)
H12D H -0.2373 0.3982 0.6370
H13D H -0.2743 0.3006 0.5799
H14D H -0.2240 0.3813 0.4725
O1C O 0.0816(4) 0.5933(3) 0.2446(6)
O1E O -0.0816(4) 0.5117(3) 0.0888(6)
Ni1A Ni 0.53508(6) 0.53508(6) 0.5000
Ni1B Ni 0.46492(6) 0.0000 0.8333
O3D O -0.0839(3) 0.3403(4) 0.0921(7)
N2? N 0.0914(8) 0.5686(9) -0.2558(14)
C13? C 0.0524(10) 0.5442(9) -0.1282(15)
H15? H 0.0107 0.5611 -0.1049
C14? C 0.0686(13) 0.6106(10) -0.3722(19)
H16? H 0.0128 0.6068 -0.3443
H17? H 0.0562 0.5735 -0.4586
C15? C 0.1715(8) 0.5661(10) -0.2935(16)
H18? H 0.1798 0.5722 -0.3989
H19? H 0.1636 0.5086 -0.2659
C16? C 0.1309(16) 0.7067(11) -0.421(3)
H20? H 0.1031 0.7220 -0.4979
H21? H 0.1857 0.7124 -0.4565
H22? H 0.1431 0.7461 -0.3393
C17? C 0.2554(13) 0.6393(16) -0.219(3)
H23? H 0.3059 0.6340 -0.2476
H24? H 0.2483 0.6331 -0.1143
H25? H 0.2648 0.6966 -0.2477
loop_
_geom_bond_atom_site_label_1
_geom_bond_atom_site_label_2
_geom_bond_site_symmetry_1
_geom_bond_site_symmetry_2
C1 H1 1_555 1_555
C2 C1 1_555 1_555
C3 H2 1_555 1_555
C4 C2 1_555 1_555
H3 C4 1_555 1_555
C5 C1 1_555 1_555
C6 C3 1_555 1_555
O1 C5 1_555 1_555
O2 C7 1_555 1_555
N1 C7 1_555 1_555
C7 H4 1_555 1_555
C8 N1 1_555 1_555
H5 C8 1_555 1_555
H6 C8 1_555 1_555
C9 N1 1_555 1_555
H7 C9 1_555 1_555
H8 C9 1_555 1_555
C10 C8 1_555 1_555
H9 C10 1_555 1_555
H10 C10 1_555 1_555
H11 C10 1_555 1_555
C11 C9 1_555 1_555
H12 C11 1_555 1_555
H13 C11 1_555 1_555
H14 C11 1_555 1_555
Ni1 O2 1_555 1_555
O3 Ni1 1_555 1_555
O4 C12 1_555 1_555
C12 C2 1_555 1_555
C1B H1B 1_555 1_555
C2B C1B 1_555 1_555
C3B H2B 1_555 1_555
C4B C2B 1_555 1_555
H3B C4B 1_555 1_555
C5B C1B 1_555 1_555
C6B C6 1_555 1_555
O1B C5B 1_555 1_555
O3B C12B 1_555 1_555
O4B C12B 1_555 1_555
C12B C2B 1_555 1_555
O2D Ni1 1_555 1_555
N1D C7D 1_555 1_555
C7D O2D 1_555 1_555
H4D C7D 1_555 1_555
C8D N1D 1_555 1_555
H5D C8D 1_555 1_555
H6D C8D 1_555 1_555
C9D N1D 1_555 1_555
H7D C9D 1_555 1_555
H8D C9D 1_555 1_555
C10D C8D 1_555 1_555
H9D C10D 1_555 1_555
H10D C10D 1_555 1_555
H11D C10D 1_555 1_555
C11D C9D 1_555 1_555
H12D C11D 1_555 1_555
H13D C11D 1_555 1_555
H14D C11D 1_555 1_555
O1C Ni1 1_555 1_555
O1E Ni1 1_555 1_555
Ni1A O1 1_555 1_555
Ni1B O3B 1_555 1_555
O3D Ni1 1_555 1_555
C3 C4 1_555 1_555
C5 C6 1_555 1_555
O3 C12 1_555 1_555
C3B C4B 1_555 1_555
C3B C6B 1_555 1_555
C5B C6B 1_555 1_555
O1B Ni1A 1_555 1_555

#END
