
#######################################################################
#
#                 Cambridge Crystallographic Data Centre
#                                CCDC 
#
#######################################################################
#
# If this CIF has been generated from an entry in the Cambridge 
# Structural Database, then it will include bibliographic, chemical, 
# crystal, experimental, refinement or atomic coordinate data resulting 
# from the CCDC's data processing and validation procedures.
#
#######################################################################

data_DIJZUS01
_chemical_formula_moiety         '(C3 H4 N4 O2 Zn1)n'
_chemical_name_systematic        
catena-((\m~3~-3-Amino-1,2,4-triazolato)-(formato-O)-zinc(ii))
_symmetry_cell_setting           orthorhombic
_symmetry_space_group_name_H-M   'P b c a'
_symmetry_Int_Tables_number      61
_space_group_name_Hall           '-P 2ac 2ab'
loop_
_symmetry_equiv_pos_site_id
_symmetry_equiv_pos_as_xyz
1 x,y,z
2 1/2-x,-y,1/2+z
3 -x,1/2+y,1/2-z
4 1/2+x,1/2-y,-z
5 -x,-y,-z
6 1/2+x,y,1/2-z
7 x,1/2-y,1/2+z
8 1/2-x,1/2+y,z
_cell_length_a                   9.1695(16)
_cell_length_b                   10.3607(19)
_cell_length_c                   12.504(2)
_cell_angle_alpha                90
_cell_angle_beta                 90
_cell_angle_gamma                90
_cell_volume                     1187.91
_exptl_crystal_colour            colorless
_exptl_crystal_description       sheet
_cell_formula_units_Z            8
loop_
_atom_site_label
_atom_site_type_symbol
_atom_site_fract_x
_atom_site_fract_y
_atom_site_fract_z
_atom_site_U_iso_or_equiv
_atom_site_thermal_displace_type
Zn1 Zn 0.08665(4) 0.39403(4) 0.10219(3) 0.0221 Uani
N1 N 0.2241(3) 0.2537(3) 0.0543(2) 0.0249 Uani
N2 N 0.3392(3) 0.0657(3) 0.0500(2) 0.0239 Uani
N3 N 0.3949(3) 0.1414(3) -0.0319(2) 0.0232 Uani
N4 N 0.3491(4) 0.3546(4) -0.0909(3) 0.0417 Uani
H1 H 0.279(6) 0.411(5) -0.092(3) 0.0440 Uiso
H2 H 0.399(5) 0.345(5) -0.146(4) 0.0390 Uiso
C1 C 0.2400(4) 0.1352(3) 0.0986(3) 0.0281 Uani
H3 H 0.174(4) 0.098(3) 0.169(3) 0.0150 Uiso
C2 C 0.3231(3) 0.2527(3) -0.0264(3) 0.0241 Uani
C3 C 0.0523(5) 0.3396(5) 0.3107(3) 0.0410 Uani
H4 H 0.053(6) 0.358(5) 0.393(3) 0.0470 Uiso
O1 O 0.0964(4) 0.4308(3) 0.2551(2) 0.0527 Uani
O2 O 0.0160(4) 0.2336(4) 0.2765(3) 0.0650 Uani
Zn1G Zn 0.41335(4) -0.10597(4) 0.10219(3) 0.0221 Uani
Zn1C Zn 0.58665(4) 0.10597(4) -0.10219(3) 0.0221 Uani
N2G N 0.1608(3) 0.5657(3) 0.0500(2) 0.0239 Uani
N3C N -0.1051(3) 0.3586(3) 0.0319(2) 0.0232 Uani
loop_
_atom_site_aniso_label
_atom_site_aniso_U_11
_atom_site_aniso_U_22
_atom_site_aniso_U_33
_atom_site_aniso_U_23
_atom_site_aniso_U_13
_atom_site_aniso_U_12
Zn1 0.0208(3) 0.0164(3) 0.0290(3) 0.00058(14) -0.00120(14) 0.00039(13)
N1 0.0233(13) 0.0178(14) 0.0335(14) 0.0012(11) 0.0024(11) 0.0042(11)
N2 0.0218(13) 0.0163(14) 0.0337(15) 0.0023(12) 0.0020(11) 0.0011(11)
N3 0.0201(12) 0.0193(14) 0.0303(14) 0.0024(12) 0.0027(11) 0.0003(11)
N4 0.045(2) 0.031(2) 0.049(2) 0.0160(16) 0.0171(17) 0.0123(17)
C1 0.0269(18) 0.0215(19) 0.0360(19) 0.0017(14) 0.0016(14) 0.0010(15)
C2 0.0213(14) 0.0193(16) 0.0318(16) 0.0023(13) -0.0030(13) 0.0002(13)
C3 0.045(2) 0.047(3) 0.031(2) 0.0005(19) -0.0012(16) 0.0009(19)
O1 0.089(2) 0.0381(17) 0.0309(14) 0.0013(14) 0.0002(14) -0.0094(17)
O2 0.075(2) 0.059(2) 0.061(2) -0.0067(17) 0.0079(19) -0.0259(19)
Zn1G 0.0208 0.0164 0.029 0.00058 0.0012 -0.00039
Zn1C 0.0208 0.0164 0.029 0.00058 0.0012 -0.00039
N2G 0.0218 0.0163 0.0337 0.0023 -0.002 -0.0011
N3C 0.0201 0.0193 0.0303 0.0024 -0.0027 -0.0003
loop_
_geom_bond_atom_site_label_1
_geom_bond_atom_site_label_2
_geom_bond_site_symmetry_1
_geom_bond_site_symmetry_2
Zn1 N1 1_555 1_555
N1 C1 1_555 1_555
N2 N3 1_555 1_555
N3 C2 1_555 1_555
N4 H1 1_555 1_555
H2 N4 1_555 1_555
C1 N2 1_555 1_555
H3 C1 1_555 1_555
C2 N1 1_555 1_555
C3 H4 1_555 1_555
O1 Zn1 1_555 1_555
O2 C3 1_555 1_555
Zn1G N2 1_555 1_555
Zn1C N3 1_555 1_555
N2G Zn1 1_555 1_555
N3C Zn1 1_555 1_555
N4 C2 1_555 1_555
C3 O1 1_555 1_555

#END
