
#######################################################################
#
#                 Cambridge Crystallographic Data Centre
#                                CCDC 
#
#######################################################################
#
# If this CIF has been generated from an entry in the Cambridge 
# Structural Database, then it will include bibliographic, chemical, 
# crystal, experimental, refinement or atomic coordinate data resulting 
# from the CCDC's data processing and validation procedures.
#
#######################################################################

data_KOMHUQ
_chemical_formula_moiety         '(C13 H20 N8 O4 Zn2)n'
_chemical_name_systematic        
catena-(bis(\m~3~-3-Amino-1,2,4-triazolato)-(\m~2~-azelato-O,O')-di-zinc(ii))
_symmetry_cell_setting           orthorhombic
_symmetry_space_group_name_H-M   'I b a 2'
_symmetry_Int_Tables_number      45
_space_group_name_Hall           'I 2 -2c'
loop_
_symmetry_equiv_pos_site_id
_symmetry_equiv_pos_as_xyz
1 x,y,z
2 -x,-y,z
3 1/2+x,1/2-y,z
4 1/2-x,1/2+y,z
5 1/2+x,1/2+y,1/2+z
6 1/2-x,1/2-y,1/2+z
7 x,-y,1/2+z
8 -x,y,1/2+z
_cell_length_a                   15.962(3)
_cell_length_b                   24.972(5)
_cell_length_c                   9.655(2)
_cell_angle_alpha                90
_cell_angle_beta                 90
_cell_angle_gamma                90
_cell_volume                     3848.51
_exptl_crystal_colour            colorless
_exptl_crystal_description       needle
_cell_formula_units_Z            8
loop_
_atom_site_label
_atom_site_type_symbol
_atom_site_fract_x
_atom_site_fract_y
_atom_site_fract_z
_atom_site_U_iso_or_equiv
_atom_site_thermal_displace_type
Zn1 Zn 0.38724(8) 0.37999(4) -0.47554(12) 0.0216 Uani
Zn2 Zn 0.36157(9) 0.25380(5) -0.65829(15) 0.0357 Uani
C1 C 0.4925(9) 0.3905(4) -0.7310(15) 0.0233 Uani
C2 C 0.4659(7) 0.3228(5) -0.8515(12) 0.0287 Uani
H1 H 0.4671 0.2969 -0.9236 0.0340 Uiso
C3 C 0.2494(7) 0.3245(5) -0.3166(12) 0.0313 Uani
C4 C 0.2382(10) 0.2499(5) -0.4225(17) 0.0440 Uani
H2 H 0.2207 0.2147 -0.4457 0.0530 Uiso
C5 C -0.0484(11) 0.6805(6) -0.0193(16) 0.0590 Uani
N1 N 0.4337(5) 0.3638(3) -0.6625(11) 0.0207 Uani
N2 N 0.4156(6) 0.3196(4) -0.7425(11) 0.0317 Uani
N3 N 0.5150(6) 0.3667(3) -0.8494(9) 0.0227 Uani
N4 N 0.5258(6) 0.4366(3) -0.6821(11) 0.0360 Uani
H3 H 0.5086 0.4497 -0.6025 0.0430 Uiso
H4 H 0.5647 0.4534 -0.7299 0.0430 Uiso
N5 N 0.2099(6) 0.2763(4) -0.3105(11) 0.0323 Uani
N6 N 0.2992(6) 0.3261(4) -0.4286(10) 0.0280 Uani
N7 N 0.2920(6) 0.2771(4) -0.4965(12) 0.0373 Uani
N8 N 0.2417(6) 0.3635(5) -0.2254(11) 0.0457 Uani
H5 H 0.2705 0.3933 -0.2358 0.0540 Uiso
H6 H 0.2078 0.3598 -0.1541 0.0540 Uiso
O1 O -0.0349(6) 0.7251(4) -0.0741(12) 0.0607 Uani
O2 O -0.1164(8) 0.6572(5) -0.0324(14) 0.0820 Uani
C6 C 0.0381(9) 0.5999(7) 0.045(2) 0.0727 Uani
C7 C 0.3028(8) 0.5371(5) -0.4244(16) 0.0460 Uani
C8 C 0.019(3) 0.6548(16) 0.070(5) 0.0930 Uani
H7 H 0.0711 0.6757 0.0576 0.1120 Uiso
H8 H 0.0018 0.6584 0.1676 0.1120 Uiso
C9 C 0.0589(18) 0.5667(13) -0.084(3) 0.0507 Uani
H9 H 0.0155 0.5720 -0.1560 0.0610 Uiso
H10 H 0.0614 0.5282 -0.0603 0.0610 Uiso
C10 C 0.1472(19) 0.5868(11) -0.138(4) 0.0403 Uani
H11 H 0.1895 0.5847 -0.0636 0.0480 Uiso
H12 H 0.1434 0.6244 -0.1702 0.0480 Uiso
C11 C 0.173(2) 0.5470(13) -0.269(4) 0.0490 Uani
H13 H 0.1777 0.5092 -0.2381 0.0590 Uiso
H14 H 0.1324 0.5495 -0.3454 0.0590 Uiso
C12 C 0.2586(15) 0.5691(9) -0.311(3) 0.0327 Uani
H15 H 0.2952 0.5703 -0.2286 0.0390 Uiso
H16 H 0.2511 0.6064 -0.3442 0.0390 Uiso
C13 C 0.3221(19) 0.4826(13) -0.406(3) 0.0310 Uani
O3 O 0.3123(9) 0.4633(6) -0.2877(18) 0.0283 Uani
O4 O 0.3551(11) 0.4568(8) -0.507(2) 0.0287 Uani
H17 H -0.0099 0.5810 0.0818 0.0340 Uiso
H18 H 0.0831 0.5924 0.1068 0.0340 Uiso
H19 H 0.3536 0.5542 -0.4465 0.0340 Uiso
H20 H 0.2662 0.5398 -0.5074 0.0340 Uiso
Zn1G Zn 0.61276(8) 0.37999(4) -0.97554(12) 0.0216 Uani
Zn2E Zn 0.13843(9) 0.24620(5) -0.15829(15) 0.0357 Uani
Zn2D Zn -0.13843(9) 0.75380(5) -0.15829(15) 0.0357 Uani
N3G N 0.4850(6) 0.3667(3) -0.3494(9) 0.0227 Uani
N5E N 0.2901(6) 0.2237(4) -0.8105(11) 0.0323 Uani
O1D O 0.4651(6) 0.2251(4) -0.5741(12) 0.0607 Uani
C14? C 0.091(2) 0.6138(14) -0.092(4) 0.0600 Uani
H21? H 0.0537 0.6281 -0.1649 0.0720 Uiso
H22? H 0.1340 0.6413 -0.0707 0.0720 Uiso
C15? C 0.1323(18) 0.5641(11) -0.142(4) 0.0403 Uani
H23? H 0.0888 0.5383 -0.1710 0.0480 Uiso
H24? H 0.1640 0.5478 -0.0642 0.0480 Uiso
C16? C 0.1911(16) 0.5741(11) -0.261(3) 0.0287 Uani
H25? H 0.2312 0.6025 -0.2342 0.0340 Uiso
H26? H 0.1584 0.5872 -0.3410 0.0340 Uiso
C17? C 0.2394(18) 0.5248(11) -0.303(3) 0.0453 Uani
H27? H 0.1996 0.4967 -0.3339 0.0540 Uiso
H28? H 0.2707 0.5108 -0.2226 0.0540 Uiso
C18? C 0.3568(18) 0.4857(11) -0.437(3) 0.0213 Uani
O5? O 0.4355(9) 0.4899(5) -0.4599(18) 0.0277 Uani
O6? O 0.3224(10) 0.4406(7) -0.433(2) 0.0280 Uani
H29? H -0.0110 0.5793 0.0285 0.0340 Uiso
H30? H 0.0713 0.5845 0.1181 0.0340 Uiso
H31? H 0.3351 0.5680 -0.4058 0.0340 Uiso
H32? H 0.2723 0.5426 -0.5108 0.0340 Uiso
C19? C 0.0186(10) 0.6549(7) 0.070(2) 0.0930 Uani
H33? H 0.0707 0.6760 0.0589 0.1120 Uiso
H34? H 0.0011 0.6584 0.1680 0.1120 Uiso
loop_
_atom_site_aniso_label
_atom_site_aniso_U_11
_atom_site_aniso_U_22
_atom_site_aniso_U_33
_atom_site_aniso_U_23
_atom_site_aniso_U_13
_atom_site_aniso_U_12
Zn1 0.0252(6) 0.0301(6) 0.0095(6) -0.0004(6) 0.0006(8) -0.0076(5)
Zn2 0.0407 0.0437 0.0227 -0.0113 -0.0007 -0.0188
C1 0.031(7) 0.026(6) 0.013(6) 0.006(6) -0.009(5) -0.001(6)
C2 0.035(7) 0.036(7) 0.015(7) -0.014(6) -0.002(6) -0.010(6)
C3 0.030(7) 0.054(8) 0.010(6) 0.010(6) 0.000(5) -0.022(6)
C4 0.057(10) 0.046(8) 0.029(9) -0.013(6) 0.009(8) -0.026(7)
C5 0.084(12) 0.053(9) 0.040(10) 0.002(7) -0.038(9) -0.017(9)
N1 0.026(5) 0.028(5) 0.008(4) 0.004(4) 0.007(5) -0.004(4)
N2 0.036(6) 0.035(6) 0.024(6) -0.019(5) 0.002(5) -0.011(5)
N3 0.033(5) 0.030(5) 0.005(5) 0.001(4) 0.004(4) 0.007(4)
N4 0.047(7) 0.030(5) 0.031(7) -0.013(5) 0.027(5) -0.018(4)
N5 0.034(6) 0.046(6) 0.017(6) 0.011(5) 0.005(5) -0.014(5)
N6 0.035(6) 0.034(5) 0.015(6) 0.002(4) 0.003(4) -0.017(4)
N7 0.043(6) 0.041(6) 0.028(7) -0.001(5) -0.001(6) -0.023(5)
N8 0.058(8) 0.049(7) 0.030(8) -0.011(5) 0.022(7) -0.028(5)
O1 0.071(8) 0.057(7) 0.054(8) 0.002(6) 0.002(6) -0.007(5)
O2 0.088(7) 0.091(7) 0.067(7) 0.005(6) -0.030(6) -0.027(6)
C6 0.038(8) 0.100(12) 0.080(15) -0.020(13) 0.000(10) -0.002(8)
C7 0.049(9) 0.040(8) 0.049(10) -0.010(7) 0.012(7) -0.006(6)
C8 0.104(10) 0.098(9) 0.077(10) 0.003(8) -0.036(8) -0.003(8)
C9 0.047(19) 0.08(2) 0.025(16) 0.005(16) 0.000(14) 0.015(17)
C10 0.034(7) 0.044(9) 0.043(7) 0.000(7) -0.001(6) 0.007(7)
C11 0.051(12) 0.044(11) 0.052(12) 0.000(9) 0.000(9) 0.004(9)
C12 0.033(9) 0.028(9) 0.037(10) -0.008(8) -0.004(8) 0.005(8)
C13 0.028(11) 0.030(11) 0.035(11) 0.005(9) -0.001(9) -0.001(9)
O3 0.022(7) 0.041(7) 0.022(7) 0.011(6) -0.002(6) 0.000(6)
O4 0.028(11) 0.029(10) 0.029(12) -0.002(10) -0.003(9) 0.005(8)
Zn1G 0.0252 0.0301 0.0095 -0.0004 -0.0006 0.0076
Zn2E 0.0407(8) 0.0437(9) 0.0227(8) 0.0113(7) 0.0007(10) -0.0188(7)
Zn2D 0.0407 0.0437 0.0227 -0.0113 -0.0007 -0.0188
N3G 0.033 0.03 0.005 0.001 -0.004 -0.007
N5E 0.034 0.046 0.017 -0.011 -0.005 -0.014
O1D 0.071 0.057 0.054 0.002 0.002 -0.007
C14? 0.057(12) 0.070(12) 0.053(12) -0.003(9) -0.002(9) 0.011(9)
C15? 0.034(7) 0.044(9) 0.043(7) 0.000(7) -0.001(6) 0.007(7)
C16? 0.022(9) 0.039(10) 0.025(10) -0.008(8) -0.005(8) 0.001(8)
C17? 0.046(10) 0.048(10) 0.042(11) -0.002(9) 0.001(9) -0.010(8)
C18? 0.023(10) 0.021(9) 0.020(10) -0.001(8) 0.000(8) 0.003(8)
O5? 0.039(9) 0.028(8) 0.016(9) 0.011(8) 0.002(9) 0.000(6)
O6? 0.014(9) 0.028(11) 0.042(13) -0.005(9) -0.003(9) 0.007(7)
C19? 0.104(10) 0.098(9) 0.077(10) 0.003(8) -0.036(8) -0.003(8)
loop_
_geom_bond_atom_site_label_1
_geom_bond_atom_site_label_2
_geom_bond_site_symmetry_1
_geom_bond_site_symmetry_2
Zn1 N1 1_555 1_555
Zn2 N2 1_555 1_555
C1 N1 1_555 1_555
C2 H1 1_555 1_555
C3 N5 1_555 1_555
C4 H2 1_555 1_555
C5 O1 1_555 1_555
N1 N2 1_555 1_555
N2 C2 1_555 1_555
N3 C1 1_555 1_555
N4 C1 1_555 1_555
H3 N4 1_555 1_555
H4 N4 1_555 1_555
N5 C4 1_555 1_555
N6 Zn1 1_555 1_555
N7 Zn2 1_555 1_555
N8 C3 1_555 1_555
H5 N8 1_555 1_555
H6 N8 1_555 1_555
O1 Zn2D 1_555 1_555
O2 C5 1_555 1_555
C6 C8 1_555 1_555
C7 C12 1_555 1_555
C8 C5 1_555 1_555
H7 C8 1_555 1_555
H8 C8 1_555 1_555
C9 C6 1_555 1_555
H9 C9 1_555 1_555
H10 C9 1_555 1_555
C10 C9 1_555 1_555
H11 C10 1_555 1_555
H12 C10 1_555 1_555
C11 C10 1_555 1_555
H13 C11 1_555 1_555
H14 C11 1_555 1_555
C12 C11 1_555 1_555
H15 C12 1_555 1_555
H16 C12 1_555 1_555
C13 C7 1_555 1_555
O3 C13 1_555 1_555
O4 Zn1 1_555 1_555
H17 C6 1_555 1_555
H18 C6 1_555 1_555
H19 C7 1_555 1_555
H20 C7 1_555 1_555
Zn1G N3 1_555 1_555
Zn2E N5 1_555 1_555
N3G Zn1 1_555 1_555
N5E Zn2 1_555 1_555
O1D Zn2 1_555 1_555
C2 N3 1_555 1_555
C3 N6 1_555 1_555
C4 N7 1_555 1_555
N6 N7 1_555 1_555
C13 O4 1_555 1_555

#END
