
#######################################################################
#
#                 Cambridge Crystallographic Data Centre
#                                CCDC 
#
#######################################################################
#
# If this CIF has been generated from an entry in the Cambridge 
# Structural Database, then it will include bibliographic, chemical, 
# crystal, experimental, refinement or atomic coordinate data resulting 
# from the CCDC's data processing and validation procedures.
#
#######################################################################

data_KOMHAW
_chemical_formula_moiety         '(C11 H16 N16 O9 Zn4)n,n(H2 O1)'
_chemical_name_systematic        
"catena-(tetrakis(\m~3~-3-Amino-1,2,4-triazolato)-(\m~2~-carbonato-O,O')-(\m~2~-oxalato)-diaqua-tetra-zinc(ii) monohydrate)"
_symmetry_cell_setting           monoclinic
_symmetry_space_group_name_H-M   'C 2/c'
_symmetry_Int_Tables_number      15
_space_group_name_Hall           '-C 2yc'
loop_
_symmetry_equiv_pos_site_id
_symmetry_equiv_pos_as_xyz
1 x,y,z
2 1/2+x,1/2+y,z
3 -x,y,1/2-z
4 1/2-x,1/2+y,1/2-z
5 -x,-y,-z
6 1/2-x,1/2-y,-z
7 x,-y,1/2+z
8 1/2+x,1/2-y,1/2+z
_cell_length_a                   33.587(3)
_cell_length_b                   9.0436(7)
_cell_length_c                   9.7308(8)
_cell_angle_alpha                90
_cell_angle_beta                 94.5890(10)
_cell_angle_gamma                90
_cell_volume                     2946.23
_exptl_crystal_colour            colorless
_exptl_crystal_description       block
_cell_formula_units_Z            4
loop_
_atom_site_label
_atom_site_type_symbol
_atom_site_fract_x
_atom_site_fract_y
_atom_site_fract_z
Zn1 Zn 0.417871(17) 0.19953(6) 0.24039(6)
Zn2 Zn 0.328540(17) 0.29513(6) 0.44696(6)
N1 N 0.40582(13) 0.1047(5) 0.4159(4)
N2 N 0.37471(14) 0.1432(5) 0.4931(5)
N3 N 0.40677(14) -0.0441(5) 0.5965(5)
N4 N 0.45581(19) -0.0816(7) 0.4354(7)
H1 H 0.4654 -0.0547 0.3600
H2 H 0.4663 -0.1545 0.4820
N5 N 0.37953(12) 0.3676(5) 0.2066(5)
N6 N 0.34437(13) 0.3885(5) 0.2662(5)
N7 N 0.34602(13) 0.5423(5) 0.0896(5)
N8 N 0.40967(19) 0.4770(9) 0.0188(8)
H3 H 0.4079 0.5401 -0.0476
H4 H 0.4306 0.4226 0.0321
O1 O 0.46715(12) 0.3097(5) 0.2408(6)
O2 O 0.5000 0.0980(6) 0.2500
O3 O 0.29313(12) 0.1706(6) 0.5756(6)
O4 O 0.22997(12) 0.1170(5) 0.6025(5)
C1 C 0.42390(17) -0.0087(6) 0.4811(6)
C2 C 0.37675(16) 0.0540(7) 0.5966(6)
H5 H 0.3590 0.0573 0.6652
C3 C 0.37906(16) 0.4630(7) 0.1034(6)
C4 C 0.32542(17) 0.4919(7) 0.1932(6)
H6 H 0.3003 0.5270 0.2110
C5 C 0.5000 0.2368(10) 0.2500
C6 C 0.25676(17) 0.1885(6) 0.5488(7)
O5 O 0.3017(4) 0.1051(15) 0.2856(14)
H7 H 0.3193 0.0391 0.2765
H8 H 0.2953 0.1448 0.2077
Zn1F Zn 0.417871(17) -0.19953(6) -0.25961(6)
Zn1F_2 Zn 0.417871(17) -0.19953(6) 0.74039(6)
Zn1B Zn 0.582129(17) 0.19953(6) 0.25961(6)
Zn1F_3 Zn 0.417871(17) 0.80047(6) 0.74039(6)
Zn2F Zn 0.328540(17) -0.29513(6) -0.05304(6)
Zn2F_2 Zn 0.328540(17) 0.70487(6) -0.05304(6)
Zn2E Zn 0.171460(17) 0.20487(6) 0.55304(6)
Zn2F_3 Zn 0.328540(17) 0.70487(6) 0.94696(6)
N1F N 0.40582(13) -0.1047(5) -0.0841(4)
N2F N 0.37471(14) -0.1432(5) -0.0069(5)
N3F N 0.40677(14) 0.0441(5) 0.0965(5)
N3_2 N 0.40677(14) -0.0441(5) -0.4035(5)
N4F N 0.45581(19) 0.0816(7) -0.0646(7)
H1F H 0.4654 0.0547 -0.1400
H2F H 0.4663 0.1545 -0.0180
N5F N 0.37953(12) 0.6324(5) 0.7066(5)
N5F_2 N 0.37953(12) -0.3676(5) -0.2934(5)
N6F N 0.34437(13) 0.6115(5) 0.7662(5)
N6F_2 N 0.34437(13) -0.3885(5) -0.2338(5)
N7F N 0.34602(13) 0.4577(5) 0.5896(5)
N7_2 N 0.34602(13) -0.4577(5) 0.0896(5)
N8F N 0.40967(19) 0.5230(9) 0.5188(8)
H3F H 0.4079 0.4599 0.4524
H4F H 0.4306 0.5774 0.5321
O1B O 0.53285(12) 0.3097(5) 0.2592(6)
O1F O 0.46715(12) -0.3097(5) -0.2592(6)
O3E O 0.20687(12) 0.3294(6) 0.4244(6)
O3F O 0.29313(12) -0.1706(6) 0.0756(6)
O4E O 0.27003(12) 0.3830(5) 0.3975(5)
O4C O 0.27003(12) -0.3830(5) -0.1025(5)
C1F C 0.42390(17) 0.0087(6) -0.0189(6)
C2F C 0.37675(16) -0.0540(7) 0.0966(6)
H5F H 0.3590 -0.0573 0.1652
C3F C 0.37906(16) 0.5370(7) 0.6034(6)
C4F C 0.32542(17) 0.5081(7) 0.6932(6)
H6F H 0.3003 0.4730 0.7110
C6E C 0.24324(17) 0.3115(6) 0.4512(7)
O5F O 0.3017(4) -0.1051(15) -0.2144(14)
H7F H 0.3193 -0.0391 -0.2235
H8F H 0.2953 -0.1448 -0.2923
O6 O 0.4910(5) 0.3994(19) -0.0929(19)
H9 H 0.4952 0.4562 -0.1598
H10 H 0.5094 0.4111 -0.0286
O7 O 0.1937(10) 0.678(3) -0.418(3)
H11 H 0.1715 0.6414 -0.3993
H12 H 0.1933 0.7714 -0.4053
O8 O 0.2599(9) 0.197(3) 0.066(3)
H13 H 0.2521 0.1078 0.0540
H14 H 0.2467 0.2370 0.1272
loop_
_geom_bond_atom_site_label_1
_geom_bond_atom_site_label_2
_geom_bond_site_symmetry_1
_geom_bond_site_symmetry_2
Zn1 N1 1_555 1_555
Zn2 N2 1_555 1_555
N1 N2 1_555 1_555
N2 C2 1_555 1_555
N3 C1 1_555 1_555
N4 H1 1_555 1_555
H2 N4 1_555 1_555
N5 Zn1 1_555 1_555
N6 Zn2 1_555 1_555
N7 C3 1_555 1_555
N8 H3 1_555 1_555
H4 N8 1_555 1_555
O1 Zn1 1_555 1_555
O2 C5 1_555 1_555
O3 Zn2 1_555 1_555
O4 C6 1_555 1_555
C1 N1 1_555 1_555
C2 N3 1_555 1_555
H5 C2 1_555 1_555
C3 N5 1_555 1_555
C4 N6 1_555 1_555
H6 C4 1_555 1_555
C5 O1 1_555 1_555
C6 O3 1_555 1_555
O5 Zn2 1_555 1_555
H7 O5 1_555 1_555
H8 O5 1_555 1_555
O6 H9 1_555 1_555
H10 O6 1_555 1_555
O7 H11 1_555 1_555
H12 O7 1_555 1_555
O8 H13 1_555 1_555
H14 O8 1_555 1_555
Zn1F N1F 1_555 1_555
Zn1F_2 N3 1_555 1_555
Zn1B O1B 1_555 1_555
Zn1F_3 N5F 1_555 1_555
Zn2F N2F 1_555 1_555
Zn2F_2 N7 1_555 1_555
Zn2E O4 1_555 1_555
Zn2F_3 N6F 1_555 1_555
N1F N2F 1_555 1_555
N2F C2F 1_555 1_555
N3F Zn1 1_555 1_555
N3_2 Zn1F 1_555 1_555
N4F H1F 1_555 1_555
H2F N4F 1_555 1_555
N5F N6F 1_555 1_555
N5F_2 Zn1F 1_555 1_555
N6F C4F 1_555 1_555
N6F_2 Zn2F 1_555 1_555
N7F Zn2 1_555 1_555
N7_2 Zn2F 1_555 1_555
N8F H3F 1_555 1_555
H4F N8F 1_555 1_555
O1B C5 1_555 1_555
O1F Zn1F 1_555 1_555
O3E Zn2E 1_555 1_555
O3F Zn2F 1_555 1_555
O4E Zn2 1_555 1_555
O4C Zn2F 1_555 1_555
C1F N1F 1_555 1_555
C2F N3F 1_555 1_555
H5F C2F 1_555 1_555
C3F N5F 1_555 1_555
C4F N7F 1_555 1_555
H6F C4F 1_555 1_555
C6E C6 1_555 1_555
O5F Zn2F 1_555 1_555
H7F O5F 1_555 1_555
H8F O5F 1_555 1_555
N4 C1 1_555 1_555
N5 N6 1_555 1_555
N7 C4 1_555 1_555
N8 C3 1_555 1_555
N3F C1F 1_555 1_555
N4F C1F 1_555 1_555
N5F_2 N6F_2 1_555 1_555
N7F C3F 1_555 1_555
N8F C3F 1_555 1_555
O3E C6E 1_555 1_555
O4E C6E 1_555 1_555

#END
