
#######################################################################
#
#                 Cambridge Crystallographic Data Centre
#                                CCDC 
#
#######################################################################
#
# If this CIF has been generated from an entry in the Cambridge 
# Structural Database, then it will include bibliographic, chemical, 
# crystal, experimental, refinement or atomic coordinate data resulting 
# from the CCDC's data processing and validation procedures.
#
#######################################################################

data_KOMHOK
_chemical_formula_moiety         '(C36 H54 N24 O12 Zn6)n'
_chemical_name_systematic        
catena-(hexakis(\m~3~-3-Amino-1,2,4-triazolato)-tris(\m~2~-suberato-O,O')-hexa-zinc(ii))
_symmetry_cell_setting           orthorhombic
_symmetry_space_group_name_H-M   'I b a 2'
_symmetry_Int_Tables_number      45
_space_group_name_Hall           'I 2 -2c'
loop_
_symmetry_equiv_pos_site_id
_symmetry_equiv_pos_as_xyz
1 x,y,z
2 -x,-y,z
3 1/2+x,1/2-y,z
4 1/2-x,1/2+y,z
5 1/2+x,1/2+y,1/2+z
6 1/2-x,1/2-y,1/2+z
7 x,-y,1/2+z
8 -x,y,1/2+z
_cell_length_a                   14.966(3)
_cell_length_b                   75.384(14)
_cell_length_c                   9.8130(19)
_cell_angle_alpha                90
_cell_angle_beta                 90
_cell_angle_gamma                90
_cell_volume                     11071
_exptl_crystal_colour            colorless
_exptl_crystal_description       needle
_cell_formula_units_Z            8
loop_
_atom_site_label
_atom_site_type_symbol
_atom_site_fract_x
_atom_site_fract_y
_atom_site_fract_z
Zn1 Zn -1.63110(5) 0.751095(11) -0.16177(13)
Zn2 Zn -1.88349(6) 0.705742(11) 0.16011(11)
Zn3 Zn -1.11838(6) 0.630169(12) 0.20243(12)
Zn4 Zn -1.38178(6) 0.540360(12) -0.27733(12)
Zn5 Zn -1.37709(7) 0.583750(15) -0.10192(13)
Zn6 Zn -0.85656(7) 0.588830(13) -0.10166(13)
N1 N -1.7995(4) 0.72566(8) 0.1156(7)
N2 N -1.7131(4) 0.74292(8) -0.0138(8)
N3 N -1.8002(4) 0.74255(8) 0.1695(8)
N4 N -1.7317(5) 0.71242(9) -0.0757(8)
H1 H -1.7561 0.7023 -0.0581
H2 H -1.6975 0.7135 -0.1456
N5 N -1.5802(4) 0.77368(8) -0.0845(7)
N6 N -1.4858(4) 0.79033(8) 0.0318(7)
N7 N -1.5659(4) 0.78939(8) -0.1581(8)
N8 N -1.4748(4) 0.81443(8) -0.1246(8)
H3 H -1.4908 0.8190 -0.2012
H4 H -1.4374 0.8199 -0.0733
N9 N -1.3016(5) 0.56072(9) -0.3263(7)
N10 N -1.3098(5) 0.57743(10) -0.2721(9)
N11 N -1.2245(5) 0.57938(9) -0.4560(9)
N12 N -1.2299(5) 0.54907(9) -0.5223(9)
H5 H -1.2505 0.5386 -0.5072
H6 H -1.1964 0.5510 -0.5920
N13 N -0.9121(4) 0.61089(9) -0.0298(8)
N14 N -1.0188(4) 0.62634(8) 0.0654(7)
N15 N -0.9388(4) 0.62405(8) -0.1220(7)
N16 N -1.0474(4) 0.64679(8) -0.1146(7)
H7 H -1.0335 0.6505 -0.1948
H8 H -1.0891 0.6520 -0.0694
N17 N -1.5165(4) 0.54416(8) 0.0909(8)
N18 N -1.4343(4) 0.54542(8) -0.0957(8)
N19 N -1.4201(5) 0.56061(9) -0.0216(8)
N20 N -1.5272(6) 0.52012(9) -0.0664(11)
H9 H -1.5112 0.5156 -0.1430
H10 H -1.5651 0.5146 -0.0156
N21 N -1.2066(5) 0.61142(9) 0.1599(8)
N22 N -1.2120(5) 0.59527(9) 0.2292(9)
N23 N -1.2968(5) 0.59339(10) 0.0456(9)
N24 N -1.2702(5) 0.62204(11) -0.0453(9)
H11 H -1.2431 0.6321 -0.0383
H12 H -1.3047 0.6200 -0.1136
O1 O -1.1652(4) 0.65355(7) 0.2357(7)
O2 O -1.2048(4) 0.65740(8) 0.0195(7)
O3 O -1.0251(5) 0.58387(10) -0.2079(10)
O4 O -0.9187(5) 0.56665(10) -0.1370(9)
C2 C -1.2996(13) 0.49316(17) 0.1559(12)
O7 O -1.2920(7) 0.48616(13) 0.0374(10)
O8 O -1.3408(8) 0.48490(16) 0.2459(10)
O9 O -1.8040(3) 0.68570(7) 0.1252(6)
O10 O -1.9239(4) 0.66894(7) 0.1491(6)
C3 C -1.7472(5) 0.72634(9) 0.0054(8)
C4 C -1.7489(7) 0.75179(11) 0.0886(12)
H13 H -1.7382 0.7638 0.1022
C5 C -1.5081(5) 0.79875(9) -0.0854(10)
C6 C -1.5317(5) 0.77521(11) 0.0267(10)
H14 H -1.5296 0.7666 0.0947
C7 C -1.2503(6) 0.56254(10) -0.4363(10)
C8 C -1.2627(8) 0.58802(14) -0.3510(13)
H15 H -1.2564 0.6001 -0.3359
C9 C -1.0035(6) 0.63274(9) -0.0593(9)
C10 C -0.9622(5) 0.61288(10) 0.0799(10)
H16 H -0.9584 0.6058 0.1572
C11 C -1.4930(7) 0.53584(10) -0.0256(12)
C12 C -1.4707(5) 0.55915(12) 0.0881(10)
H17 H -1.4737 0.5677 0.1560
C13 C -1.2587(6) 0.60956(12) 0.0504(10)
C14 C -1.2659(7) 0.58543(14) 0.1565(13)
H18 H -1.2812 0.5739 0.1804
C15 C -1.2002(6) 0.66271(12) 0.1387(11)
C16 C -1.2386(7) 0.68044(11) 0.1806(10)
H19 H -1.1968 0.6861 0.2426
H20 H -1.2933 0.6783 0.2309
C17 C -1.2591(6) 0.69338(12) 0.0663(11)
H21 H -1.2673 0.7051 0.1058
H22 H -1.2074 0.6940 0.0068
C18 C -1.3391(6) 0.68919(13) -0.0185(12)
H23 H -1.3893 0.6869 0.0413
H24 H -1.3274 0.6785 -0.0700
C19 C -1.3646(6) 0.70410(12) -0.1180(11)
H25 H -1.3840 0.7143 -0.0656
H26 H -1.3117 0.7076 -0.1685
C20 C -1.4366(9) 0.69938(15) -0.2174(15)
H27 H -1.4908 0.6965 -0.1679
H28 H -1.4187 0.6889 -0.2681
C21 C -1.4563(8) 0.71448(16) -0.3176(12)
H29 H -1.4001 0.7194 -0.3488
H30 H -1.4869 0.7096 -0.3964
C22 C -1.5106(7) 0.72870(12) -0.2602(11)
C23 C -0.9984(7) 0.56884(12) -0.1829(11)
C24 C -1.0573(7) 0.55314(14) -0.2129(14)
H31 H -1.0220 0.5464 -0.2774
H32 H -1.1052 0.5583 -0.2664
C25 C -1.2247(13) 0.5188(2) 0.071(3)
H33 H -1.2419 0.5104 0.0022
H34 H -1.2693 0.5279 0.0638
C26 C -1.2705(11) 0.50972(16) 0.1797(15)
H35 H -1.3213 0.5165 0.2088
H36 H -1.2291 0.5094 0.2543
C27 C -1.8414(5) 0.67069(10) 0.1330(9)
C28 C -1.7843(5) 0.65424(10) 0.1152(11)
H37 H -1.7715 0.6497 0.2055
H38 H -1.8209 0.6454 0.0696
C29 C -1.5696(6) 0.62004(14) -0.2106(15)
H39 H -1.6147 0.6159 -0.1474
H40 H -1.5927 0.6183 -0.3019
O11 O -1.5757(13) 0.7279(2) -0.194(2)
O12 O -1.4714(12) 0.7431(2) -0.2941(19)
O13 O -1.4147(7) 0.61459(15) -0.2196(14)
O14 O -1.5047(11) 0.5936(2) -0.144(2)
C30 C -1.4945(14) 0.6095(3) -0.196(2)
C33 C -1.6973(7) 0.65527(18) 0.0397(18)
H45 H -1.7100 0.6580 -0.0550
H46 H -1.6631 0.6651 0.0765
C34 C -1.6399(10) 0.63898(18) 0.044(2)
H47 H -1.6720 0.6290 0.0061
H48 H -1.6244 0.6362 0.1377
C35 C -1.5568(8) 0.6425(2) -0.0372(17)
H49 H -1.5395 0.6547 -0.0210
H50 H -1.5098 0.6351 0.0004
C36 C -1.5576(13) 0.63961(15) -0.1885(17)
H51 H -1.5018 0.6436 -0.2284
H52 H -1.6063 0.6462 -0.2300
C38 C -1.0500(10) 0.5469(4) -0.068(2)
H53 H -1.0264 0.5350 -0.0657
H54 H -1.0099 0.5546 -0.0179
C39 C -1.153(2) 0.5276(3) -0.012(5)
H55 H -1.0968 0.5223 0.0142
H56 H -1.1636 0.5245 -0.1063
C44 C -1.1413(16) 0.5474(3) -0.006(2)
H65 H -1.1404 0.5517 0.0859
H66 H -1.1823 0.5543 -0.0602
Zn1E Zn -1.86890(5) 0.748905(11) 0.33823(13)
Zn2B Zn -1.38349(6) 0.794258(11) 0.16011(11)
Zn2E Zn -1.61651(6) 0.794258(11) -0.33989(11)
Zn3G Zn -0.88162(6) 0.630169(12) -0.29757(12)
Zn4G Zn -1.61822(6) 0.540360(12) 0.22267(12)
Zn4F Zn -1.38178(6) 0.459640(12) 0.22267(12)
Zn6G Zn -1.14344(7) 0.588830(13) -0.60166(13)
Zn6G_2 Zn -1.14344(7) 0.588830(13) 0.39834(13)
N3E N -1.6998(4) 0.75745(8) -0.3305(8)
N6B N -1.9858(4) 0.70967(8) 0.0318(7)
N7E N -1.9341(4) 0.71061(8) 0.3419(8)
N11G N -0.7755(5) 0.57938(9) 0.0440(9)
N15G N -1.0612(4) 0.62405(8) 0.3780(7)
N17G N -1.4835(4) 0.54416(8) -0.4091(8)
N22G N -0.7880(5) 0.59527(9) -0.2708(9)
O8F O -1.3408(8) 0.51510(16) -0.2541(10)
C1? C -0.6684(9) 0.49281(14) 0.692(3)
O5? O -0.5843(8) 0.49425(15) 0.7168(15)
O6? O -0.7008(7) 0.47760(13) 0.6852(15)
C31? C -0.896(3) 0.5390(2) 0.367(3)
H41? H -0.8480 0.5339 0.3137
H42? H -0.9375 0.5297 0.3915
C32? C -0.8138(13) 0.5367(2) 0.6033(18)
H43? H -0.7693 0.5439 0.6474
H44? H -0.8593 0.5344 0.6700
O15? O -1.5952(14) 0.7214(3) -0.241(3)
O16? O -1.5064(13) 0.7442(2) -0.2313(19)
O17? O -1.4308(10) 0.6058(2) -0.1256(19)
O18? O -1.5347(13) 0.5874(3) -0.189(3)
C37? C -1.5098(17) 0.6021(4) -0.163(3)
C40? C -1.6853(6) 0.6559(3) 0.132(2)
H57? H -1.6615 0.6444 0.1583
H58? H -1.6733 0.6641 0.2062
C41? C -1.6371(18) 0.6622(3) 0.007(2)
H59? H -1.5787 0.6666 0.0335
H60? H -1.6701 0.6720 -0.0325
C42? C -1.6256(15) 0.6479(3) -0.098(3)
H61? H -1.6848 0.6431 -0.1137
H62? H -1.6092 0.6540 -0.1817
C43? C -1.5642(15) 0.6322(3) -0.0892(19)
H63? H -1.5787 0.6255 -0.0077
H64? H -1.5033 0.6364 -0.0800
loop_
_geom_bond_atom_site_label_1
_geom_bond_atom_site_label_2
_geom_bond_site_symmetry_1
_geom_bond_site_symmetry_2
Zn1 N2 1_555 1_555
Zn2 N1 1_555 1_555
Zn3 N14 1_555 1_555
Zn4 N9 1_555 1_555
Zn5 N10 1_555 1_555
Zn6 N13 1_555 1_555
N1 N3 1_555 1_555
N2 C3 1_555 1_555
N3 C4 1_555 1_555
N4 H1 1_555 1_555
H2 N4 1_555 1_555
N5 Zn1 1_555 1_555
N6 C5 1_555 1_555
N7 N5 1_555 1_555
N8 H3 1_555 1_555
H4 N8 1_555 1_555
N9 N10 1_555 1_555
N10 C8 1_555 1_555
N11 C7 1_555 1_555
N12 H5 1_555 1_555
H6 N12 1_555 1_555
N13 N15 1_555 1_555
N14 C9 1_555 1_555
N15 C9 1_555 1_555
N16 H7 1_555 1_555
H8 N16 1_555 1_555
N17 C11 1_555 1_555
N18 Zn4 1_555 1_555
N19 Zn5 1_555 1_555
N20 H9 1_555 1_555
H10 N20 1_555 1_555
N21 Zn3 1_555 1_555
N22 N21 1_555 1_555
N23 Zn5 1_555 1_555
N24 H11 1_555 1_555
H12 N24 1_555 1_555
O1 Zn3 1_555 1_555
O2 C15 1_555 1_555
O3 C23 1_555 1_555
O4 Zn6 1_555 1_555
C2 O7 1_555 1_555
O8 C2 1_555 1_555
O9 Zn2 1_555 1_555
O10 C27 1_555 1_555
C3 N1 1_555 1_555
C4 N2 1_555 1_555
H13 C4 1_555 1_555
C5 N7 1_555 1_555
C6 N5 1_555 1_555
H14 C6 1_555 1_555
C7 N9 1_555 1_555
C8 N11 1_555 1_555
H15 C8 1_555 1_555
C9 N16 1_555 1_555
C10 N13 1_555 1_555
H16 C10 1_555 1_555
C11 N18 1_555 1_555
C12 N17 1_555 1_555
H17 C12 1_555 1_555
C13 N21 1_555 1_555
C14 N22 1_555 1_555
H18 C14 1_555 1_555
C15 O1 1_555 1_555
C16 C15 1_555 1_555
H19 C16 1_555 1_555
H20 C16 1_555 1_555
C17 C16 1_555 1_555
H21 C17 1_555 1_555
H22 C17 1_555 1_555
C18 C17 1_555 1_555
H23 C18 1_555 1_555
H24 C18 1_555 1_555
C19 C18 1_555 1_555
H25 C19 1_555 1_555
H26 C19 1_555 1_555
C20 C19 1_555 1_555
H27 C20 1_555 1_555
H28 C20 1_555 1_555
C21 C20 1_555 1_555
H29 C21 1_555 1_555
H30 C21 1_555 1_555
C22 C21 1_555 1_555
C23 O4 1_555 1_555
C24 C23 1_555 1_555
H31 C24 1_555 1_555
H32 C24 1_555 1_555
C25 H33 1_555 1_555
H34 C25 1_555 1_555
C26 C2 1_555 1_555
H35 C26 1_555 1_555
H36 C26 1_555 1_555
C27 O9 1_555 1_555
C28 C27 1_555 1_555
H37 C28 1_555 1_555
H38 C28 1_555 1_555
C29 H39 1_555 1_555
H40 C29 1_555 1_555
O11 Zn1 1_555 1_555
O12 C22 1_555 1_555
O13 C30 1_555 1_555
O14 Zn5 1_555 1_555
C30 C29 1_555 1_555
C33 C28 1_555 1_555
H45 C33 1_555 1_555
H46 C33 1_555 1_555
C34 C33 1_555 1_555
H47 C34 1_555 1_555
H48 C34 1_555 1_555
C35 C34 1_555 1_555
H49 C35 1_555 1_555
H50 C35 1_555 1_555
C36 C29 1_555 1_555
H51 C36 1_555 1_555
H52 C36 1_555 1_555
C38 C24 1_555 1_555
H53 C38 1_555 1_555
H54 C38 1_555 1_555
C39 C25 1_555 1_555
H55 C39 1_555 1_555
H56 C39 1_555 1_555
C44 C38 1_555 1_555
H65 C44 1_555 1_555
H66 C44 1_555 1_555
Zn1E N3 1_555 1_555
Zn2B N6 1_555 1_555
Zn2E N7 1_555 1_555
Zn3G N15 1_555 1_555
Zn4G N17 1_555 1_555
Zn4F O8 1_555 1_555
Zn6G N11 1_555 1_555
Zn6G_2 N22 1_555 1_555
N3E Zn1 1_555 1_555
N6B Zn2 1_555 1_555
N7E Zn2 1_555 1_555
N11G Zn6 1_555 1_555
N15G Zn3 1_555 1_555
N17G Zn4 1_555 1_555
N22G Zn6 1_555 1_555
O8F Zn4 1_555 1_555
N4 C3 1_555 1_555
N6 C6 1_555 1_555
N8 C5 1_555 1_555
N12 C7 1_555 1_555
N14 C10 1_555 1_555
N18 N19 1_555 1_555
N19 C12 1_555 1_555
N20 C11 1_555 1_555
N23 C13 1_555 1_555
N23 C14 1_555 1_555
N24 C13 1_555 1_555
C22 O11 1_555 1_555
C25 C26 1_555 1_555
O14 C30 1_555 1_555
C35 C36 1_555 1_555
C39 C44 1_555 1_555

#END
