
#######################################################################
#
#                 Cambridge Crystallographic Data Centre
#                                CCDC 
#
#######################################################################
#
# If this CIF has been generated from an entry in the Cambridge 
# Structural Database, then it will include bibliographic, chemical, 
# crystal, experimental, refinement or atomic coordinate data resulting 
# from the CCDC's data processing and validation procedures.
#
#######################################################################

data_KOMJAY
_chemical_formula_moiety         '(C14 H22 N8 O4 Zn2)n'
_chemical_name_systematic        
catena-(bis(\m~3~-3-Amino-1,2,4-triazolato)-(\m~2~-sebacylato-O,O')-di-zinc(ii))
_symmetry_cell_setting           orthorhombic
_symmetry_space_group_name_H-M   'I b a 2'
_symmetry_Int_Tables_number      45
_space_group_name_Hall           'I 2 -2c'
loop_
_symmetry_equiv_pos_site_id
_symmetry_equiv_pos_as_xyz
1 x,y,z
2 -x,-y,z
3 1/2+x,1/2-y,z
4 1/2-x,1/2+y,z
5 1/2+x,1/2+y,1/2+z
6 1/2-x,1/2-y,1/2+z
7 x,-y,1/2+z
8 -x,y,1/2+z
_cell_length_a                   18.203(7)
_cell_length_b                   23.242(9)
_cell_length_c                   9.606(4)
_cell_angle_alpha                90
_cell_angle_beta                 90
_cell_angle_gamma                90
_cell_volume                     4064.05
_exptl_crystal_colour            colorless
_exptl_crystal_description       needle
_cell_formula_units_Z            8
loop_
_atom_site_label
_atom_site_type_symbol
_atom_site_fract_x
_atom_site_fract_y
_atom_site_fract_z
_atom_site_U_iso_or_equiv
_atom_site_thermal_displace_type
Zn1 Zn 0.09931(6) -0.36881(5) 0.03821(16) 0.0311 Uani
Zn2 Zn 0.14620(6) -0.24398(5) 0.24927(17) 0.0390 Uani
C1 C 0.0050(8) -0.3779(5) 0.2926(17) 0.0373 Uani
C2 C 0.0336(6) -0.3080(6) 0.4168(14) 0.0420 Uani
H1 H 0.0345 -0.2808 0.4906 0.0500 Uiso
C3 C 0.2340(6) -0.3193(6) -0.1033(13) 0.0363 Uani
C4 C 0.2595(8) -0.2470(5) 0.0215(12) 0.0413 Uani
H2 H 0.2833 -0.2134 0.0553 0.0500 Uiso
N1 N 0.0625(5) -0.3515(4) 0.2282(10) 0.0337 Uani
N2 N 0.0788(5) -0.3065(4) 0.3127(11) 0.0343 Uani
N3 N -0.0149(5) -0.3517(4) 0.4104(9) 0.0273 Uani
N4 N -0.0286(6) -0.4243(5) 0.2378(14) 0.0807 Uani
H3 H -0.0665 -0.4398 0.2807 0.0970 Uiso
H4 H -0.0125 -0.4393 0.1594 0.0970 Uiso
N5 N 0.1869(4) -0.3175(4) 0.0013(9) 0.0317 Uani
N6 N 0.2049(5) -0.2696(5) 0.0814(11) 0.0400 Uani
N7 N 0.2809(5) -0.2750(5) -0.0966(11) 0.0417 Uani
N8 N 0.2344(6) -0.3586(6) -0.2068(12) 0.0643 Uani
H5 H 0.2011 -0.3861 -0.2084 0.0770 Uiso
H6 H 0.2678 -0.3566 -0.2727 0.0770 Uiso
O1 O 0.6141(5) -0.6644(5) -0.2875(13) 0.0867 Uani
O2 O 0.5424(7) -0.7127(6) -0.4105(19) 0.1283 Uani
C5 C 0.1683(9) -0.5392(5) -0.006(2) 0.0820 Uani
H7 H 0.1394 -0.5720 -0.0357 0.0990 Uiso
H8 H 0.1799 -0.5445 0.0921 0.0990 Uiso
C6 C 0.5470(14) -0.6634(12) -0.339(4) 0.0760 Uani
C7 C 0.4526(14) -0.6142(13) -0.461(4) 0.1460 Uiso
H10 H 0.3910 -0.5253 -0.2745 0.2250 Uiso
H15 H 0.4657 -0.6225 -0.5553 0.0970 Uiso
H16 H 0.4231 -0.6431 -0.4219 0.0970 Uiso
C11 C 0.409(2) -0.5611(15) -0.458(5) 0.1313 Uani
H17 H 0.3738 -0.5594 -0.5359 0.1580 Uiso
H18 H 0.4411 -0.5266 -0.4602 0.1580 Uiso
C15 C 0.535(2) -0.6115(19) -0.441(10) 0.1000 Uani
H23 H 0.5585 -0.5738 -0.4239 0.1210 Uiso
H24 H 0.5477 -0.6238 -0.5366 0.1210 Uiso
C17 C 0.299(2) -0.544(2) -0.153(7) 0.1800 Uani
H27 H 0.3311 -0.5431 -0.0695 0.2180 Uiso
H28 H 0.3033 -0.5067 -0.2028 0.2180 Uiso
C18 C 0.223(2) -0.556(2) -0.112(5) 0.1590 Uani
H29 H 0.2234 -0.5989 -0.1071 0.1910 Uiso
H30 H 0.1965 -0.5468 -0.1982 0.1910 Uiso
O5 O 0.1191(9) -0.4498(9) 0.083(3) 0.0943 Uani
O6 O 0.1562(8) -0.4563(7) -0.139(2) 0.0713 Uani
C19 C 0.1461(6) -0.4791(9) -0.016(2) 0.0770 Uani
C22 C 0.376(5) -0.572(3) -0.333(13) 0.2500 Uiso
H31 H 0.4111 -0.5579 -0.2612 0.3010 Uiso
C23 C 0.308(3) -0.5909(19) -0.263(6) 0.1320 Uiso
H33 H 0.3084 -0.6301 -0.2228 0.1580 Uiso
H34 H 0.2677 -0.5877 -0.3316 0.1580 Uiso
Zn1G Zn -0.09931(6) -0.36881(5) 0.53821(16) 0.0311 Uani
Zn2E Zn 0.35380(6) -0.25602(5) -0.25073(17) 0.0390 Uani
Zn2D Zn 0.64620(6) -0.74398(5) -0.25073(17) 0.0390 Uani
N3G N 0.0149(5) -0.3517(4) -0.0896(9) 0.0273 Uani
N7E N 0.2191(5) -0.2250(5) 0.4034(11) 0.0417 Uani
O1D O 0.1141(5) -0.1644(5) 0.2125(13) 0.0867 Uani
C8? C 0.363(5) -0.554(3) -0.329(7) 0.1900 Uiso
H9? H 0.3180 -0.5341 -0.3622 0.2250 Uiso
C9? C 0.338(5) -0.596(3) -0.220(9) 0.2200 Uiso
H11? H 0.3831 -0.6076 -0.1691 0.2680 Uiso
H12? H 0.3252 -0.6300 -0.2787 0.2680 Uiso
C10? C 0.519(2) -0.6036(14) -0.377(6) 0.0800 Uani
H13? H 0.5072 -0.5885 -0.2854 0.0970 Uiso
H14? H 0.5511 -0.5762 -0.4233 0.0970 Uiso
C12? C 0.275(3) -0.594(2) -0.115(5) 0.1330 Uiso
H19? H 0.2317 -0.6187 -0.1239 0.1600 Uiso
H20? H 0.3065 -0.6099 -0.0404 0.1600 Uiso
C13? C 0.247(3) -0.537(3) -0.061(13) 0.1900 Uani
H21? H 0.2465 -0.5091 -0.1391 0.2250 Uiso
H22? H 0.2796 -0.5215 0.0132 0.2250 Uiso
O3? O 0.0526(8) -0.4909(8) 0.030(2) 0.0423 Uani
O4? O 0.1503(10) -0.4391(7) -0.018(2) 0.0280 Uani
C14? C 0.1214(11) -0.4899(10) 0.0029(14) 0.0483 Uani
C16? C 0.401(4) -0.629(3) -0.388(7) 0.1667 Uani
H25? H 0.4181 -0.6532 -0.3098 0.1990 Uiso
H26? H 0.3607 -0.6480 -0.4378 0.1990 Uiso
C20? C 0.5698(13) -0.6658(11) -0.384(3) 0.0347 Uani
C21? C 0.466(5) -0.588(6) -0.38(3) 0.1300 Uiso
H32? H 0.3706 -0.5420 -0.4051 0.3010 Uiso
loop_
_atom_site_aniso_label
_atom_site_aniso_U_11
_atom_site_aniso_U_22
_atom_site_aniso_U_33
_atom_site_aniso_U_23
_atom_site_aniso_U_13
_atom_site_aniso_U_12
Zn1 0.0227(5) 0.0423(7) 0.0283(7) -0.0036(7) 0.0023(7) -0.0056(6)
Zn2 0.0354(7) 0.0418(8) 0.0399(8) -0.0097(8) -0.0024(8) -0.0100(6)
C1 0.021(5) 0.052(7) 0.039(7) 0.005(7) -0.009(4) -0.009(6)
C2 0.036(7) 0.051(8) 0.039(8) -0.027(6) 0.001(6) -0.018(6)
C3 0.032(6) 0.050(8) 0.027(7) 0.000(6) 0.000(5) -0.004(6)
C4 0.058(8) 0.048(8) 0.018(7) -0.014(7) -0.008(7) -0.018(6)
N1 0.033(5) 0.043(6) 0.025(5) -0.011(5) -0.004(4) -0.006(4)
N2 0.028(5) 0.040(6) 0.035(6) -0.006(5) -0.003(4) 0.000(4)
N3 0.030(5) 0.042(6) 0.010(5) -0.006(4) 0.009(4) -0.004(4)
N4 0.092(9) 0.092(9) 0.058(8) -0.046(8) 0.044(7) -0.055(7)
N5 0.027(4) 0.043(6) 0.025(6) -0.009(4) -0.004(4) -0.020(4)
N6 0.027(5) 0.049(6) 0.044(7) -0.003(5) 0.006(4) -0.012(5)
N7 0.045(6) 0.044(7) 0.036(6) 0.008(5) 0.012(5) -0.015(5)
N8 0.055(6) 0.079(9) 0.059(9) -0.026(7) 0.021(6) -0.030(6)
O1 0.063(7) 0.106(9) 0.091(10) -0.043(8) -0.019(6) 0.011(6)
O2 0.112(10) 0.089(9) 0.184(19) 0.004(10) -0.052(10) -0.013(9)
C5 0.116(13) 0.024(8) 0.106(17) 0.006(8) 0.019(12) 0.014(8)
C6 0.073(15) 0.080(15) 0.075(16) -0.010(10) 0.001(10) -0.008(10)
C11 0.132(15) 0.131(15) 0.131(16) -0.002(10) -0.003(10) 0.007(10)
C15 0.10(2) 0.10(2) 0.10(2) 0.003(10) 0.000(10) -0.001(10)
C17 0.18(3) 0.18(3) 0.18(3) 0.003(10) -0.001(10) 0.001(10)
C18 0.161(19) 0.159(19) 0.157(19) -0.005(10) 0.003(10) 0.003(10)
O5 0.055(12) 0.098(16) 0.13(2) -0.024(15) -0.002(12) 0.019(11)
O6 0.062(11) 0.057(11) 0.095(19) 0.025(11) -0.012(10) -0.003(9)
C19 0.077(10) 0.084(11) 0.070(11) 0.005(9) 0.002(8) 0.002(9)
Zn1G 0.0227 0.0423 0.0283 -0.0036 -0.0023 0.0056
Zn2E 0.0354 0.0418 0.0399 0.0097 0.0024 -0.01
Zn2D 0.0354 0.0418 0.0399 -0.0097 -0.0024 -0.01
N3G 0.03 0.042 0.01 -0.006 -0.009 0.004
N7E 0.045 0.044 0.036 -0.008 -0.012 -0.015
O1D 0.063 0.106 0.091 -0.043 -0.019 0.011
C10? 0.06(3) 0.14(4) 0.04(3) -0.01(2) -0.021(18) 0.04(2)
C13? 0.19(6) 0.19(6) 0.19(6) -0.002(10) 0.001(10) 0.000(10)
O3? 0.040(8) 0.041(9) 0.046(9) 0.001(8) 0.014(8) 0.007(7)
O4? 0.026(8) 0.022(8) 0.036(9) -0.017(7) 0.007(7) -0.001(7)
C14? 0.051(15) 0.051(15) 0.043(15) 0.006(10) -0.006(9) 0.002(10)
C16? 0.17(3) 0.17(3) 0.16(3) 0.001(10) 0.000(10) -0.003(10)
C20? 0.018(8) 0.043(10) 0.043(10) -0.018(8) -0.005(8) 0.003(8)
loop_
_geom_bond_atom_site_label_1
_geom_bond_atom_site_label_2
_geom_bond_site_symmetry_1
_geom_bond_site_symmetry_2
Zn1 N1 1_555 1_555
Zn2 N2 1_555 1_555
C1 N1 1_555 1_555
C2 H1 1_555 1_555
C3 N5 1_555 1_555
C4 H2 1_555 1_555
N1 N2 1_555 1_555
N2 C2 1_555 1_555
N3 C1 1_555 1_555
N4 C1 1_555 1_555
H3 N4 1_555 1_555
H4 N4 1_555 1_555
N5 Zn1 1_555 1_555
N6 Zn2 1_555 1_555
N7 C3 1_555 1_555
N8 C3 1_555 1_555
H5 N8 1_555 1_555
H6 N8 1_555 1_555
O1 C6 1_555 1_555
O2 C6 1_555 1_555
C5 H7 1_555 1_555
H8 C5 1_555 1_555
C6 C15 1_555 1_555
C7 H15 1_555 1_555
H10 C22 1_555 1_555
H16 C7 1_555 1_555
C11 C7 1_555 1_555
H17 C11 1_555 1_555
H18 C11 1_555 1_555
C15 C7 1_555 1_555
H23 C15 1_555 1_555
H24 C15 1_555 1_555
C17 H27 1_555 1_555
H28 C17 1_555 1_555
C18 C5 1_555 1_555
H29 C18 1_555 1_555
H30 C18 1_555 1_555
O5 Zn1 1_555 1_555
O6 C19 1_555 1_555
C19 C5 1_555 1_555
C22 C11 1_555 1_555
H31 C22 1_555 1_555
C23 C17 1_555 1_555
H33 C23 1_555 1_555
H34 C23 1_555 1_555
Zn1G N3 1_555 1_555
Zn2E N7 1_555 1_555
Zn2D O1 1_555 1_555
N3G Zn1 1_555 1_555
N7E Zn2 1_555 1_555
O1D Zn2 1_555 1_555
C2 N3 1_555 1_555
C4 N6 1_555 1_555
C4 N7 1_555 1_555
N5 N6 1_555 1_555
C17 C18 1_555 1_555
O5 C19 1_555 1_555
C22 C23 1_555 1_555

#END
