
#######################################################################
#
#                 Cambridge Crystallographic Data Centre
#                                CCDC 
#
#######################################################################
#
# If this CIF has been generated from an entry in the Cambridge 
# Structural Database, then it will include bibliographic, chemical, 
# crystal, experimental, refinement or atomic coordinate data resulting 
# from the CCDC's data processing and validation procedures.
#
#######################################################################

data_MUKQUG
_chemical_formula_moiety         
'(C24 H18 Cu2 O10)n,x(C2 H3 N1),x(C3 H7 N1 O1),x(H2 O1)'
_chemical_name_systematic        
"catena-[(\m-2',5'-dimethyl-1,1':4',1''-terphenyl-3,3'',5,5''-tetracarboxylato)-diaqua-di-copper acetonitrile N,N-dimethylformamide solvate hydrate]"
_symmetry_cell_setting           rhombohedral
_symmetry_space_group_name_H-M   'R -3 m'
_symmetry_Int_Tables_number      166
_space_group_name_Hall           '-R 3 2"'
loop_
_symmetry_equiv_pos_site_id
_symmetry_equiv_pos_as_xyz
1 x,y,z
2 -y,x-y,z
3 -x+y,-x,z
4 y,x,-z
5 x-y,-y,-z
6 -x,-x+y,-z
7 2/3+x,1/3+y,1/3+z
8 2/3-y,1/3+x-y,1/3+z
9 2/3-x+y,1/3-x,1/3+z
10 2/3+y,1/3+x,1/3-z
11 2/3+x-y,1/3-y,1/3-z
12 2/3-x,1/3-x+y,1/3-z
13 1/3+x,2/3+y,2/3+z
14 1/3-y,2/3+x-y,2/3+z
15 1/3-x+y,2/3-x,2/3+z
16 1/3+y,2/3+x,2/3-z
17 1/3+x-y,2/3-y,2/3-z
18 1/3-x,2/3-x+y,2/3-z
19 -x,-y,-z
20 y,-x+y,-z
21 x-y,x,-z
22 -y,-x,z
23 -x+y,y,z
24 x,x-y,z
25 1/3-x,2/3-y,2/3-z
26 1/3+y,2/3-x+y,2/3-z
27 1/3+x-y,2/3+x,2/3-z
28 1/3-y,2/3-x,2/3+z
29 1/3-x+y,2/3+y,2/3+z
30 1/3+x,2/3+x-y,2/3+z
31 2/3-x,1/3-y,1/3-z
32 2/3+y,1/3-x+y,1/3-z
33 2/3+x-y,1/3+x,1/3-z
34 2/3-y,1/3-x,1/3+z
35 2/3-x+y,1/3+y,1/3+z
36 2/3+x,1/3+x-y,1/3+z
_cell_length_a                   18.5190(10)
_cell_length_b                   18.5190(10)
_cell_length_c                   38.8764(16)
_cell_angle_alpha                90
_cell_angle_beta                 90
_cell_angle_gamma                120
_cell_volume                     11546.5
_exptl_crystal_colour            blue
_exptl_crystal_description       block
_cell_formula_units_Z            9
loop_
_atom_site_label
_atom_site_type_symbol
_atom_site_fract_x
_atom_site_fract_y
_atom_site_fract_z
_atom_site_U_iso_or_equiv
_atom_site_thermal_displace_type
Cu1 Cu 0.47601(2) 0.95202(2) 0.02764(2) 0.0356 Uani
O1 O 0.43715(14) 0.8743(3) 0.07270(10) 0.1023 Uani
O2 O 0.37120(13) 0.89022(12) 0.00238(5) 0.0558 Uani
C1 C 0.36015(17) 0.90849(16) -0.02759(7) 0.0456 Uani
C2 C 0.1682(4) 0.7650(4) -0.15555(17) 0.0717 Uani
C3 C 0.27925(18) 0.85002(16) -0.04457(7) 0.0482 Uani
C4 C 0.22187(13) 0.77813(13) -0.02804(10) 0.0484 Uani
H1 H 0.2318 0.7682 -0.0056 0.0580 Uiso
C5 C 0.19128(14) 0.80872(14) -0.09511(11) 0.0551 Uani
C6 C 0.26333(19) 0.86528(18) -0.07804(7) 0.0547 Uani
H2 H 0.3017 0.9142 -0.0891 0.0660 Uiso
C7 C 0.17716(17) 0.82284(17) -0.13202(11) 0.0583 Uani
C8 C 0.0335(7) 0.8131(9) -0.1192(2) 0.1383 Uani
H3 H 0.0520 0.8618 -0.1051 0.2080 Uiso
H4 H 0.0166 0.7652 -0.1048 0.2080 Uiso
H5 H -0.0128 0.8053 -0.1331 0.2080 Uiso
O3 O 0.41161(13) 0.97104(12) -0.04447(5) 0.0567 Uani
C9 C 0.1051(5) 0.8244(5) -0.14269(17) 0.0729 Uani
O2O O 0.22355(12) 1.03787(13) -0.33571(5) 0.0558 Uani
C1O C 0.24182(16) 1.02682(17) -0.30574(7) 0.0456 Uani
C2O C 0.0983(4) 0.8349(4) -0.17778(17) 0.0717 Uani
C3O C 0.18335(16) 0.94592(18) -0.28876(7) 0.0482 Uani
C4O C 0.11146(13) 0.88854(13) -0.30529(10) 0.0484 Uani
H1O H 0.1015 0.8985 -0.3277 0.0580 Uiso
C5O C 0.14205(14) 0.85795(14) -0.23822(11) 0.0551 Uani
C6O C 0.19861(18) 0.93000(19) -0.25529(7) 0.0547 Uani
H2O H 0.2475 0.9684 -0.2442 0.0660 Uiso
C7O C 0.15617(17) 0.84383(17) -0.20131(11) 0.0583 Uani
C8O C 0.1464(9) 0.7002(7) -0.2141(2) 0.1383 Uani
H3O H 0.1951 0.7187 -0.2282 0.2080 Uiso
H4O H 0.0985 0.6833 -0.2285 0.2080 Uiso
H5O H 0.1386 0.6539 -0.2002 0.2080 Uiso
O3O O 0.30437(12) 1.07828(13) -0.28886(5) 0.0567 Uani
C9O C 0.1577(5) 0.7718(5) -0.19064(17) 0.0729 Uani
O2U O 0.10978(12) 0.62880(13) 0.00238(5) 0.0558 Uani
C1U C 0.09151(16) 0.63985(17) -0.02759(7) 0.0456 Uani
C2U C 0.2350(4) 0.8318(4) -0.15555(17) 0.0717 Uani
C3U C 0.14998(16) 0.72075(18) -0.04457(7) 0.0482 Uani
C6U C 0.13472(18) 0.73667(19) -0.07804(7) 0.0547 Uani
H2U H 0.0858 0.6983 -0.0891 0.0660 Uiso
C8U C 0.1869(9) 0.9665(7) -0.1192(2) 0.1383 Uani
H3U H 0.1382 0.9480 -0.1051 0.2080 Uiso
H4U H 0.2348 0.9834 -0.1048 0.2080 Uiso
H5U H 0.1947 1.0128 -0.1331 0.2080 Uiso
O3U O 0.02896(12) 0.58839(13) -0.04447(5) 0.0567 Uani
C9U C 0.1756(5) 0.8949(5) -0.14269(17) 0.0729 Uani
O2X O -0.03787(13) 0.77645(12) -0.33571(5) 0.0558 Uani
C1X C -0.02682(17) 0.75818(16) -0.30574(7) 0.0456 Uani
C2X C 0.1651(4) 0.9017(4) -0.17778(17) 0.0717 Uani
C3X C 0.05408(18) 0.81665(16) -0.28876(7) 0.0482 Uani
C6X C 0.07000(19) 0.80139(18) -0.25529(7) 0.0547 Uani
H2X H 0.0316 0.7525 -0.2442 0.0660 Uiso
C8X C 0.2998(7) 0.8536(9) -0.2141(2) 0.1383 Uani
H3X H 0.2813 0.8049 -0.2282 0.2080 Uiso
H4X H 0.3167 0.9015 -0.2285 0.2080 Uiso
H5X H 0.3461 0.8614 -0.2002 0.2080 Uiso
O3X O -0.07828(13) 0.69563(12) -0.28886(5) 0.0567 Uani
C9X C 0.2282(5) 0.8423(5) -0.19064(17) 0.0729 Uani
Cu1A Cu 0.04798(2) 0.52399(3) 0.02764(2) 0.0356 Uani
O1A O 0.1257(3) 0.56285(33) 0.07270(10) 0.1023 Uani
Cu1C Cu -0.04798(2) 0.47601(2) -0.02764(2) 0.0356 Uani
Cu1D Cu 0.52399(3) 1.04798(2) -0.02764(2) 0.0356 Uani
Cu1L Cu -0.19066(2) 0.61869(2) -0.30569(2) 0.0356 Uani
Cu1M Cu 0.38131(2) 1.19066(3) -0.30569(2) 0.0356 Uani
Cu1O Cu 0.28535(2) 1.14268(2) -0.36097(2) 0.0356 Uani
Cu1P Cu -0.14268(3) 0.71465(2) -0.36097(2) 0.0356 Uani
O2A O 0.10978(12) 0.48098(18) 0.00238(5) 0.0558 Uani
O2V O 0.51902(18) 0.89022(12) 0.00238(5) 0.0558 Uani
O3C O -0.02896(12) 0.41161(13) 0.04447(5) 0.0567 Uani
O3D O 0.44057(18) 1.02896(12) 0.04447(5) 0.0567 Uani
O3R O 0.58839(13) 1.02896(12) 0.04447(5) 0.0567 Uani
O3S O -0.02896(12) 0.55943(18) 0.04447(5) 0.0567 Uani
loop_
_atom_site_aniso_label
_atom_site_aniso_U_11
_atom_site_aniso_U_22
_atom_site_aniso_U_33
_atom_site_aniso_U_23
_atom_site_aniso_U_13
_atom_site_aniso_U_12
Cu1 0.0441(2) 0.0264(2) 0.0305(3) 0.00258(15) 0.00129(8) 0.01322(12)
O1 0.126(3) 0.102(3) 0.071(2) 0.052(2) 0.0259(11) 0.0510(16)
O2 0.0505(12) 0.0487(11) 0.0461(11) 0.0053(9) -0.0084(9) 0.0083(9)
C1 0.0480(15) 0.0390(14) 0.0429(15) -0.0019(11) -0.0022(12) 0.0166(12)
C2 0.084(5) 0.062(4) 0.055(4) 0.005(3) -0.018(3) 0.026(3)
C3 0.0470(15) 0.0403(14) 0.0448(15) 0.0008(11) -0.0042(12) 0.0125(12)
C4 0.0481(15) 0.0481(15) 0.042(2) 0.0027(9) -0.0027(9) 0.0188(18)
C5 0.0514(16) 0.0514(16) 0.047(2) 0.0087(10) -0.0087(10) 0.0140(19)
C6 0.0524(17) 0.0453(15) 0.0504(16) 0.0082(13) -0.0051(13) 0.0125(14)
C7 0.0515(16) 0.0515(16) 0.047(2) 0.0090(11) -0.0090(11) 0.007(2)
C8 0.139(9) 0.255(15) 0.071(6) 0.054(8) 0.032(6) 0.136(10)
O3 0.0512(11) 0.0459(11) 0.0497(11) 0.0076(9) -0.0088(9) 0.0069(9)
C9 0.063(4) 0.094(5) 0.052(4) 0.020(3) -0.001(3) 0.032(4)
O2O 0.0487 0.0505 0.0461 0.0084 -0.0053 0.0083
C1O 0.039 0.048 0.0429 0.0022 0.0019 0.0166
C2O 0.062 0.084 0.055 0.018 -0.005 0.026
C3O 0.0403 0.047 0.0448 0.0042 -0.0008 0.0125
C4O 0.0481 0.0481 0.042 0.0027 -0.0027 0.0188
C5O 0.0514 0.0514 0.047 0.0087 -0.0087 0.014
C6O 0.0453 0.0524 0.0504 0.0051 -0.0082 0.0125
C7O 0.0515 0.0515 0.047 0.009 -0.009 0.007
C8O 0.255 0.139 0.071 -0.032 -0.054 0.136
O3O 0.0459 0.0512 0.0497 0.0088 -0.0076 0.0069
C9O 0.094 0.063 0.052 0.001 -0.02 0.032
O2U 0.0487 0.0505 0.0461 0.0084 -0.0053 0.0083
C1U 0.039 0.048 0.0429 0.0022 0.0019 0.0166
C2U 0.062 0.084 0.055 0.018 -0.005 0.026
C3U 0.0403 0.047 0.0448 0.0042 -0.0008 0.0125
C6U 0.0453 0.0524 0.0504 0.0051 -0.0082 0.0125
C8U 0.255 0.139 0.071 -0.032 -0.054 0.136
O3U 0.0459 0.0512 0.0497 0.0088 -0.0076 0.0069
C9U 0.094 0.063 0.052 0.001 -0.02 0.032
O2X 0.0505 0.0487 0.0461 0.0053 -0.0084 0.0083
C1X 0.048 0.039 0.0429 -0.0019 -0.0022 0.0166
C2X 0.084 0.062 0.055 0.005 -0.018 0.026
C3X 0.047 0.0403 0.0448 0.0008 -0.0042 0.0125
C6X 0.0524 0.0453 0.0504 0.0082 -0.0051 0.0125
C8X 0.139 0.255 0.071 0.054 0.032 0.136
O3X 0.0512 0.0459 0.0497 0.0076 -0.0088 0.0069
C9X 0.063 0.094 0.052 0.02 -0.001 0.032
Cu1A 0.0264 0.04406 0.0305 -0.00129 -0.00258 0.01318
O1A 0.102 0.126 0.071 -0.0261 -0.052 0.051
Cu1C 0.0264 0.0441 0.0305 -0.00129 -0.00258 0.01322
Cu1D 0.04406 0.0264 0.0305 0.00258 0.00129 0.01318
Cu1L 0.0441 0.0264 0.0305 0.00258 0.00129 0.01322
Cu1M 0.0264 0.04406 0.0305 -0.00129 -0.00258 0.01318
Cu1O 0.0264 0.0441 0.0305 -0.00129 -0.00258 0.01322
Cu1P 0.04406 0.0264 0.0305 0.00258 0.00129 0.01318
O2A 0.0487 0.0826 0.0461 -0.0137 -0.0053 0.0404
O2V 0.0826 0.0487 0.0461 0.0053 0.0137 0.0404
O3C 0.0459 0.0512 0.0497 0.0088 -0.0076 0.0069
O3D 0.0833 0.0459 0.0497 0.0076 0.0164 0.039
O3R 0.0512 0.0459 0.0497 0.0076 -0.0088 0.0069
O3S 0.0459 0.0833 0.0497 -0.0164 -0.0076 0.039
loop_
_geom_bond_atom_site_label_1
_geom_bond_atom_site_label_2
_geom_bond_site_symmetry_1
_geom_bond_site_symmetry_2
Cu1 O1 1_555 1_555
O2 Cu1 1_555 1_555
C1 O2 1_555 1_555
C2 C7 1_555 1_555
C3 C1 1_555 1_555
C4 C3 1_555 1_555
H1 C4 1_555 1_555
C5 C6 1_555 1_555
C6 C3 1_555 1_555
H2 C6 1_555 1_555
C7 C5 1_555 1_555
C8 H3 1_555 1_555
H4 C8 1_555 1_555
H5 C8 1_555 1_555
O3 C1 1_555 1_555
C9 C7 1_555 1_555
O2O C1O 1_555 1_555
C1O C3O 1_555 1_555
C2O C9 1_555 1_555
C3O C4O 1_555 1_555
C4O H1O 1_555 1_555
C5O C6O 1_555 1_555
C6O C3O 1_555 1_555
H2O C6O 1_555 1_555
C7O C2O 1_555 1_555
C8O H3O 1_555 1_555
H4O C8O 1_555 1_555
H5O C8O 1_555 1_555
O3O C1O 1_555 1_555
C9O C2 1_555 1_555
O2U C1U 1_555 1_555
C1U C3U 1_555 1_555
C2U C7 1_555 1_555
C3U C4 1_555 1_555
C6U C5 1_555 1_555
H2U C6U 1_555 1_555
C8U H3U 1_555 1_555
H4U C8U 1_555 1_555
H5U C8U 1_555 1_555
O3U C1U 1_555 1_555
C9U C7 1_555 1_555
O2X C1X 1_555 1_555
C1X C3X 1_555 1_555
C2X C7O 1_555 1_555
C3X C4O 1_555 1_555
C6X C5O 1_555 1_555
H2X C6X 1_555 1_555
C8X H3X 1_555 1_555
H4X C8X 1_555 1_555
H5X C8X 1_555 1_555
O3X C1X 1_555 1_555
C9X C7O 1_555 1_555
Cu1A O2U 1_555 1_555
O1A Cu1A 1_555 1_555
Cu1C O3U 1_555 1_555
Cu1D Cu1 1_555 1_555
Cu1L O3X 1_555 1_555
Cu1M O3O 1_555 1_555
Cu1O O2O 1_555 1_555
Cu1P O2X 1_555 1_555
O2A Cu1A 1_555 1_555
O2V Cu1 1_555 1_555
O3C Cu1A 1_555 1_555
O3D Cu1 1_555 1_555
O3R Cu1 1_555 1_555
O3S Cu1A 1_555 1_555
C8 C9 1_555 1_555
O3 Cu1D 1_555 1_555
C5O C7O 1_555 1_555
C7O C9O 1_555 1_555
C8O C9O 1_555 1_555
C2U C9X 1_555 1_555
C3U C6U 1_555 1_555
C8U C9U 1_555 1_555
C9U C2X 1_555 1_555
C3X C6X 1_555 1_555
C8X C9X 1_555 1_555
Cu1A Cu1C 1_555 1_555
Cu1L Cu1P 1_555 1_555
Cu1M Cu1O 1_555 1_555

#END
