
#######################################################################
#
#                 Cambridge Crystallographic Data Centre
#                                CCDC 
#
#######################################################################
#
# If this CIF has been generated from an entry in the Cambridge 
# Structural Database, then it will include bibliographic, chemical, 
# crystal, experimental, refinement or atomic coordinate data resulting 
# from the CCDC's data processing and validation procedures.
#
#######################################################################

data_FIHHOV
_chemical_formula_moiety         
'(C66 H54 B2 F4 N8 O13 Zn3)n,3.5n(C3 H7 N1 O1),4n(H2 O1)'
_chemical_name_systematic        
'catena-(bis(\m~4~-Benzene-1,3,5-tricarboxylato)-bis(\m~2~-4,4-difluoro-1,3,5,7,8-pentamethyl-2,6-bis(4-pyridyl)-3a,4a-diaza-4-bora-s-indacene)-tri-zinc dimethylformamide tetrahydrate clathrate)'
_symmetry_cell_setting           tetragonal
_symmetry_space_group_name_H-M   'I 4/m'
_symmetry_Int_Tables_number      87
_space_group_name_Hall           '-I 4'
loop_
_symmetry_equiv_pos_site_id
_symmetry_equiv_pos_as_xyz
1 x,y,z
2 -x,-y,z
3 -y,x,z
4 y,-x,z
5 1/2+x,1/2+y,1/2+z
6 1/2-x,1/2-y,1/2+z
7 1/2-y,1/2+x,1/2+z
8 1/2+y,1/2-x,1/2+z
9 -x,-y,-z
10 x,y,-z
11 y,-x,-z
12 -y,x,-z
13 1/2-x,1/2-y,1/2-z
14 1/2+x,1/2+y,1/2-z
15 1/2+y,1/2-x,1/2-z
16 1/2-y,1/2+x,1/2-z
_cell_length_a                   29.5937(8)
_cell_length_b                   29.5937(8)
_cell_length_c                   10.1680(5)
_cell_angle_alpha                90
_cell_angle_beta                 90
_cell_angle_gamma                90
_cell_volume                     8905
_exptl_crystal_colour            black
_exptl_crystal_description       rod
_cell_formula_units_Z            4
loop_
_atom_site_label
_atom_site_type_symbol
_atom_site_fract_x
_atom_site_fract_y
_atom_site_fract_z
Zn1 Zn 0.0000 0.0000 0.14489(6)
Zn2 Zn 0.17847(2) 0.17839(2) 0.5000
O1 O 0.0000 0.0000 0.3355(5)
O2 O 0.19521(10) 0.19528(10) 0.2393(3)
O3 O 0.14979(9) 0.14970(9) 0.3502(2)
O4 O 0.04770(8) 0.04748(8) 0.1090(2)
C1 C 0.16296(19) 0.16312(19) 0.0000
H1 H 0.1850 0.1855 0.0000
C2 C 0.14704(12) 0.14699(12) 0.1166(3)
C3 C 0.11413(11) 0.11449(11) 0.1173(3)
H2 H 0.1028 0.1039 0.1969
C4 C 0.09763(16) 0.09735(15) 0.0000
C5 C 0.06072(16) 0.06116(16) 0.0000
C6 C 0.16591(15) 0.16589(14) 0.2448(3)
N1 N 0.16859(18) 0.24615(17) 0.5000
N2 N 0.16841(18) 0.75377(16) 0.5000
N3 N 0.1761(4) 0.4598(3) 0.5702(12)
N4 N 0.1763(4) 0.5402(4) 0.5722(12)
C7 C 0.1346(3) 0.2630(3) 0.4461(10)
C8 C 0.1285(3) 0.3107(3) 0.4332(11)
C9 C 0.1608(3) 0.3384(3) 0.5000
C10 C 0.1899(5) 0.4154(4) 0.5961(15)
C11 C 0.1563(3) 0.3871(3) 0.5000
C12 C 0.1344(4) 0.4607(3) 0.5000
C13 C 0.1040(6) 0.4996(5) 0.5944(18)
C14 C 0.1345(4) 0.5389(3) 0.5000
C15 C 0.1226(4) 0.5862(3) 0.5000
C16 C 0.1565(3) 0.6139(3) 0.5000
C17 C 0.1344(3) 0.7365(3) 0.4480(10)
C18 C 0.1281(3) 0.6894(3) 0.4321(12)
C19 C 0.1608(3) 0.6614(3) 0.5000
C20 C 0.1957(4) 0.6791(3) 0.5598(11)
C21 C 0.2002(3) 0.7269(3) 0.5771(10)
C22 C 0.2361(5) 0.4058(5) 0.6618(17)
C23 C 0.0653(5) 0.4997(5) 0.5000
C24 C 0.0791(6) 0.6006(5) 0.3928(19)
F1 F 0.2452(3) 0.5007(3) 0.6298(12)
B1 B 0.1967(5) 0.5000(7) 0.6427(15)
F2 F 0.1900(5) 0.4998(4) 0.7847(13)
O2I O 0.19521(10) 0.19528(10) -0.2393(3)
O3I O 0.14979(9) 0.14970(9) -0.3502(2)
O4I O 0.04770(8) 0.04748(8) -0.1090(2)
C2I C 0.14704(12) 0.14699(12) -0.1166(3)
C3I C 0.11413(11) 0.11449(11) -0.1173(3)
H2I H 0.1028 0.1039 -0.1969
C6I C 0.16591(15) 0.16589(14) -0.2448(3)
N3I N 0.1761(4) 0.4598(3) 0.4298(12)
N4I N 0.1763(4) 0.5402(4) 0.4278(12)
C7I C 0.1346(3) 0.2630(3) 0.5539(10)
C8I C 0.1285(3) 0.3107(3) 0.5668(11)
C10I C 0.1899(5) 0.4154(4) 0.4039(15)
C13I C 0.1040(6) 0.4996(5) 0.4056(18)
C17I C 0.1344(3) 0.7365(3) 0.5520(10)
C18I C 0.1281(3) 0.6894(3) 0.5679(12)
C20I C 0.1957(4) 0.6791(3) 0.4402(11)
C21I C 0.2002(3) 0.7269(3) 0.4229(10)
C22I C 0.2361(5) 0.4058(5) 0.3382(17)
C24I C 0.0791(6) 0.6006(5) 0.6072(19)
F1I F 0.2452(3) 0.5007(3) 0.3702(12)
B1I B 0.1967(5) 0.5000(7) 0.3573(15)
F2I F 0.1900(5) 0.4998(4) 0.2153(13)
Zn2A Zn -0.17847(2) -0.17839(2) 0.5000
O2A O -0.19521(10) -0.19528(10) 0.2393(3)
O3A O -0.14979(9) -0.14970(9) 0.3502(2)
O4A O -0.04770(8) -0.04748(8) 0.1090(2)
C1A C -0.16296(19) -0.16312(19) 0.0000
H1A H -0.1850 -0.1855 0.0000
C2A C -0.14704(12) -0.14699(12) 0.1166(3)
C3A C -0.11413(11) -0.11449(11) 0.1173(3)
H2A H -0.1028 -0.1039 0.1969
C4A C -0.09763(16) -0.09735(15) 0.0000
C5A C -0.06072(16) -0.06116(16) 0.0000
C6A C -0.16591(15) -0.16589(14) 0.2448(3)
N1A N -0.16859(18) -0.24615(17) 0.5000
N2A N -0.16841(18) -0.75377(16) 0.5000
N3A N -0.1761(4) -0.4598(3) 0.5702(12)
N4A N -0.1763(4) -0.5402(4) 0.5722(12)
C7A C -0.1346(3) -0.2630(3) 0.4461(10)
C8A C -0.1285(3) -0.3107(3) 0.4332(11)
C9A C -0.1608(3) -0.3384(3) 0.5000
C10A C -0.1899(5) -0.4154(4) 0.5961(15)
C11A C -0.1563(3) -0.3871(3) 0.5000
C12A C -0.1344(4) -0.4607(3) 0.5000
C13A C -0.1040(6) -0.4996(5) 0.5944(18)
C14A C -0.1345(4) -0.5389(3) 0.5000
C15A C -0.1226(4) -0.5862(3) 0.5000
C16A C -0.1565(3) -0.6139(3) 0.5000
C17A C -0.1344(3) -0.7365(3) 0.4480(10)
C18A C -0.1281(3) -0.6894(3) 0.4321(12)
C19A C -0.1608(3) -0.6614(3) 0.5000
C20A C -0.1957(4) -0.6791(3) 0.5598(11)
C21A C -0.2002(3) -0.7269(3) 0.5771(10)
C22A C -0.2361(5) -0.4058(5) 0.6618(17)
C23A C -0.0653(5) -0.4997(5) 0.5000
C24A C -0.0791(6) -0.6006(5) 0.3928(19)
F1A F -0.2452(3) -0.5007(3) 0.6298(12)
B1A B -0.1967(5) -0.5000(7) 0.6427(15)
F2A F -0.1900(5) -0.4998(4) 0.7847(13)
O2H O -0.19521(10) -0.19528(10) -0.2393(3)
O3H O -0.14979(9) -0.14970(9) -0.3502(2)
O4H O -0.04770(8) -0.04748(8) -0.1090(2)
C2H C -0.14704(12) -0.14699(12) -0.1166(3)
C3H C -0.11413(11) -0.11449(11) -0.1173(3)
H2H H -0.1028 -0.1039 -0.1969
C6H C -0.16591(15) -0.16589(14) -0.2448(3)
N3H N -0.1761(4) -0.4598(3) 0.4298(12)
N4H N -0.1763(4) -0.5402(4) 0.4278(12)
C7H C -0.1346(3) -0.2630(3) 0.5539(10)
C8H C -0.1285(3) -0.3107(3) 0.5668(11)
C10H C -0.1899(5) -0.4154(4) 0.4039(15)
C13H C -0.1040(6) -0.4996(5) 0.4056(18)
C17H C -0.1344(3) -0.7365(3) 0.5520(10)
C18H C -0.1281(3) -0.6894(3) 0.5679(12)
C20H C -0.1957(4) -0.6791(3) 0.4402(11)
C21H C -0.2002(3) -0.7269(3) 0.4229(10)
C22H C -0.2361(5) -0.4058(5) 0.3382(17)
C24H C -0.0791(6) -0.6006(5) 0.6072(19)
F1H F -0.2452(3) -0.5007(3) 0.3702(12)
B1H B -0.1967(5) -0.5000(7) 0.3573(15)
F2H F -0.1900(5) -0.4998(4) 0.2153(13)
Zn1H Zn 0.0000 0.0000 -0.14489(6)
Zn2_2 Zn 0.17847(2) 0.17839(2) -0.5000
Zn2A_2 Zn -0.17847(2) -0.17839(2) -0.5000
Zn2B Zn -0.17839(2) -0.82153(2) 0.5000
Zn2C Zn 0.17839(2) 0.82153(2) 0.5000
O3H_2 O -0.14979(9) -0.14970(9) 0.6498(2)
O3I_2 O 0.14979(9) 0.14970(9) 0.6498(2)
O4B O -0.04748(8) 0.04770(8) 0.1090(2)
O4C O 0.04748(8) -0.04770(8) 0.1090(2)
N2B N 0.24623(16) 0.16841(18) 0.5000
N2C N -0.24623(16) -0.16841(18) 0.5000
C25? C 0.1960(4) 0.3201(3) 0.4406(11)
C26? C 0.2001(3) 0.2731(3) 0.4247(10)
C27? C 0.1223(4) 0.4140(4) 0.5539(16)
C28? C 0.1904(4) 0.5844(4) 0.4037(15)
C29? C 0.2355(5) 0.5940(5) 0.3382(17)
C30? C 0.0779(6) 0.3996(5) 0.5997(17)
loop_
_geom_bond_atom_site_label_1
_geom_bond_atom_site_label_2
_geom_bond_site_symmetry_1
_geom_bond_site_symmetry_2
Zn1 O1 1_555 1_555
Zn2 O3 1_555 1_555
O2 C6 1_555 1_555
O3 C6 1_555 1_555
O4 Zn1 1_555 1_555
C1 H1 1_555 1_555
C2 C1 1_555 1_555
C3 C2 1_555 1_555
H2 C3 1_555 1_555
C4 C3 1_555 1_555
C5 O4 1_555 1_555
C6 C2 1_555 1_555
N1 Zn2 1_555 1_555
N2 C17 1_555 1_555
N3 C10 1_555 1_555
N4 C14 1_555 1_555
C7 N1 1_555 1_555
C8 C7 1_555 1_555
C9 C8 1_555 1_555
C10 C11 1_555 1_555
C11 C9 1_555 1_555
C12 N3 1_555 1_555
C13 C12 1_555 1_555
C14 C13 1_555 1_555
C15 C14 1_555 1_555
C16 C15 1_555 1_555
C17 C18 1_555 1_555
C18 C19 1_555 1_555
C19 C16 1_555 1_555
C20 C19 1_555 1_555
C21 N2 1_555 1_555
C22 C10 1_555 1_555
C23 C13 1_555 1_555
C24 C15 1_555 1_555
F1 B1 1_555 1_555
B1 N3 1_555 1_555
F2 B1 1_555 1_555
O2I C6I 1_555 1_555
O3I C6I 1_555 1_555
O4I C5 1_555 1_555
C2I C1 1_555 1_555
C3I C4 1_555 1_555
H2I C3I 1_555 1_555
C6I C2I 1_555 1_555
N3I N3 1_555 1_555
N4I N4 1_555 1_555
C7I N1 1_555 1_555
C8I C8 1_555 1_555
C10I C11 1_555 1_555
C13I C12 1_555 1_555
C17I N2 1_555 1_555
C18I C18 1_555 1_555
C20I C19 1_555 1_555
C21I N2 1_555 1_555
C22I C10I 1_555 1_555
C24I C15 1_555 1_555
F1I B1I 1_555 1_555
B1I N3I 1_555 1_555
F2I B1I 1_555 1_555
Zn2A O3A 1_555 1_555
O2A C6A 1_555 1_555
O3A C6A 1_555 1_555
O4A Zn1 1_555 1_555
C1A H1A 1_555 1_555
C2A C1A 1_555 1_555
C3A C2A 1_555 1_555
H2A C3A 1_555 1_555
C4A C3A 1_555 1_555
C5A O4A 1_555 1_555
C6A C2A 1_555 1_555
N1A Zn2A 1_555 1_555
N2A C17A 1_555 1_555
N3A C10A 1_555 1_555
N4A C14A 1_555 1_555
C7A N1A 1_555 1_555
C8A C7A 1_555 1_555
C9A C8A 1_555 1_555
C10A C11A 1_555 1_555
C11A C9A 1_555 1_555
C12A N3A 1_555 1_555
C13A C12A 1_555 1_555
C14A C13A 1_555 1_555
C15A C14A 1_555 1_555
C16A C15A 1_555 1_555
C17A C18A 1_555 1_555
C18A C19A 1_555 1_555
C19A C16A 1_555 1_555
C20A C19A 1_555 1_555
C21A N2A 1_555 1_555
C22A C10A 1_555 1_555
C23A C13A 1_555 1_555
C24A C15A 1_555 1_555
F1A B1A 1_555 1_555
B1A N3A 1_555 1_555
F2A B1A 1_555 1_555
O2H C6H 1_555 1_555
O3H C6H 1_555 1_555
O4H C5A 1_555 1_555
C2H C1A 1_555 1_555
C3H C4A 1_555 1_555
H2H C3H 1_555 1_555
C6H C2H 1_555 1_555
N3H N3A 1_555 1_555
N4H N4A 1_555 1_555
C7H N1A 1_555 1_555
C8H C8A 1_555 1_555
C10H C11A 1_555 1_555
C13H C12A 1_555 1_555
C17H N2A 1_555 1_555
C18H C18A 1_555 1_555
C20H C19A 1_555 1_555
C21H N2A 1_555 1_555
C22H C10H 1_555 1_555
C24H C15A 1_555 1_555
F1H B1H 1_555 1_555
B1H N3H 1_555 1_555
F2H B1H 1_555 1_555
Zn1H O4I 1_555 1_555
Zn2_2 O3I 1_555 1_555
Zn2A_2 O3H 1_555 1_555
Zn2B N2A 1_555 1_555
Zn2C N2 1_555 1_555
O3H_2 Zn2A 1_555 1_555
O3I_2 Zn2 1_555 1_555
O4B Zn1 1_555 1_555
O4C Zn1 1_555 1_555
N2B Zn2 1_555 1_555
N2C Zn2A 1_555 1_555
C4 C5 1_555 1_555
N4 B1 1_555 1_555
C7 C7I 1_555 1_555
C9 C8I 1_555 1_555
C12 N3I 1_555 1_555
C14 N4I 1_555 1_555
C14 C13I 1_555 1_555
C17 C17I 1_555 1_555
C19 C18I 1_555 1_555
C20 C21 1_555 1_555
C20 C20I 1_555 1_555
C21 C21I 1_555 1_555
C23 C13I 1_555 1_555
C2I C3I 1_555 1_555
N3I C10I 1_555 1_555
N4I B1I 1_555 1_555
C7I C8I 1_555 1_555
C17I C18I 1_555 1_555
C20I C21I 1_555 1_555
C4A C5A 1_555 1_555
N4A B1A 1_555 1_555
C7A C7H 1_555 1_555
C9A C8H 1_555 1_555
C12A N3H 1_555 1_555
C14A N4H 1_555 1_555
C14A C13H 1_555 1_555
C17A C17H 1_555 1_555
C19A C18H 1_555 1_555
C20A C21A 1_555 1_555
C20A C20H 1_555 1_555
C21A C21H 1_555 1_555
C23A C13H 1_555 1_555
O4H Zn1H 1_555 1_555
C2H C3H 1_555 1_555
N3H C10H 1_555 1_555
N4H B1H 1_555 1_555
C7H C8H 1_555 1_555
C17H C18H 1_555 1_555
C20H C21H 1_555 1_555

#END
