
#######################################################################
#
#                 Cambridge Crystallographic Data Centre
#                                CCDC 
#
#######################################################################
#
# If this CIF has been generated from an entry in the Cambridge 
# Structural Database, then it will include bibliographic, chemical, 
# crystal, experimental, refinement or atomic coordinate data resulting 
# from the CCDC's data processing and validation procedures.
#
#######################################################################

data_FIHHUB
_chemical_formula_moiety         
'(C32 H27 B1 Cd1 F2 N4 O4)n,1.5n(C3 H7 N1 O1),n(H2 O1)'
_chemical_name_systematic        
'catena-((\m~3~-Benzene-1,4-dicarboxylato)-(\m~2~-4,4-difluoro-1,3,5,7,8-pentamethyl-2,6-bis(4-pyridyl)-3a,4a-diaza-4-bora-s-indacene)-cadmium dimethylformamide monohydrate clathrate)'
_symmetry_cell_setting           hexagonal
_symmetry_space_group_name_H-M   'P 6/m'
_symmetry_Int_Tables_number      175
_space_group_name_Hall           '-P 6'
loop_
_symmetry_equiv_pos_site_id
_symmetry_equiv_pos_as_xyz
1 x,y,z
2 x-y,x,z
3 -y,x-y,z
4 -x,-y,z
5 -x+y,-x,z
6 y,-x+y,z
7 -x,-y,-z
8 -x+y,-x,-z
9 y,-x+y,-z
10 x,y,-z
11 x-y,x,-z
12 -y,x-y,-z
_cell_length_a                   25.4125(8)
_cell_length_b                   25.4125(8)
_cell_length_c                   19.8941(12)
_cell_angle_alpha                90
_cell_angle_beta                 90
_cell_angle_gamma                120
_cell_volume                     11126.3
_exptl_crystal_colour            black
_exptl_crystal_description       block
_cell_formula_units_Z            6
loop_
_atom_site_label
_atom_site_type_symbol
_atom_site_fract_x
_atom_site_fract_y
_atom_site_fract_z
Cd1 Cd 0.411814(19) 0.47355(2) 0.5000
C1 C 0.3038(3) 0.4730(3) 0.5000
N1 N 0.4161(2) 0.47856(19) 0.6164(2)
O1 O 0.3505(2) 0.5236(2) 0.5000
O2 O 0.3060(2) 0.4260(2) 0.5000
O3 O 0.0605(4) 0.4974(2) 0.5000
O4 O 0.02116(34) 0.3987(2) 0.5000
C2 C 0.2436(3) 0.4704(3) 0.5000
C3 C 0.4295(4) 0.5277(3) 0.6504(3)
C4 C 0.4004(4) 0.4290(3) 0.6524(3)
C5 C 0.2372(3) 0.5212(3) 0.5000
C6 C 0.1913(3) 0.4130(3) 0.5000
H1 H 0.4417 0.5633 0.6265
C7 C 0.4268(4) 0.5301(3) 0.7187(3)
C8 C 0.3961(4) 0.4284(3) 0.7219(3)
H2 H 0.3919 0.3934 0.6303
H3 H 0.2715 0.5598 0.5000
C9 C 0.1791(3) 0.5150(3) 0.5000
C10 C 0.1326(3) 0.4069(3) 0.5000
H4 H 0.1950 0.3784 0.5000
H5 H 0.4358 0.5665 0.7394
C11 C 0.4114(3) 0.4813(3) 0.7557(3)
H6 H 0.3828 0.3924 0.7454
H7 H 0.1752 0.5494 0.5000
C12 C 0.1280(2) 0.4583(3) 0.5000
H8 H 0.0980 0.3686 0.5000
C13 C 0.4103(4) 0.4816(4) 0.8310(3)
C14 C 0.0662(3) 0.4516(3) 0.5000
C15 C 0.4326(8) 0.5272(6) 0.8722(4)
C16 C 0.3737(13) 0.4342(10) 0.8719(7)
C17 C 0.4913(10) 0.5868(9) 0.8528(8)
N2 N 0.4180(6) 0.5074(6) 0.9384(3)
C18 C 0.379(2) 0.449(2) 0.9384(13)
C19 C 0.3191(11) 0.3710(11) 0.8556(9)
H9 H 0.5257 0.5811 0.8577
H10 H 0.4961 0.6191 0.8818
H11 H 0.4885 0.5970 0.8070
B1 B 0.446(3) 0.5412(18) 1.0000
C20 C 0.342(3) 0.418(3) 1.0000
H12 H 0.3188 0.3415 0.8859
H13 H 0.3225 0.3602 0.8102
H14 H 0.2821 0.3721 0.8604
F1 F 0.4438(11) 0.5947(10) 1.0000
F2 F 0.5183(11) 0.5809(11) 1.0000
C21 C 0.284(2) 0.354(2) 1.0000
H15 H 0.2603 0.3502 0.9611
N1I N 0.4161(2) 0.47856(19) 1.3836(2)
C3I C 0.4295(4) 0.5277(3) 1.3496(3)
C4I C 0.4004(4) 0.4290(3) 1.3476(3)
H1I H 0.4417 0.5633 1.3735
C7I C 0.4268(4) 0.5301(3) 1.2813(3)
C8I C 0.3961(4) 0.4284(3) 1.2781(3)
H2I H 0.3919 0.3934 1.3697
H5I H 0.4358 0.5665 1.2606
C11I C 0.4114(3) 0.4813(3) 1.2443(3)
H6I H 0.3828 0.3924 1.2546
C13I C 0.4103(4) 0.4816(4) 1.1690(3)
C15I C 0.4326(8) 0.5272(6) 1.1278(4)
C16I C 0.3737(13) 0.4342(10) 1.1281(7)
C17I C 0.4913(10) 0.5868(9) 1.1472(8)
N2I N 0.4180(6) 0.5074(6) 1.0616(3)
C18I C 0.379(2) 0.449(2) 1.0616(13)
C19I C 0.3191(11) 0.3710(11) 1.1444(9)
H9I H 0.5257 0.5811 1.1423
H10I H 0.4961 0.6191 1.1182
H11I H 0.4885 0.5970 1.1930
H12I H 0.3188 0.3415 1.1141
H13I H 0.3225 0.3602 1.1898
H14I H 0.2821 0.3721 1.1396
H15I H 0.2603 0.3502 1.0389
Cd1_2 Cd 0.411814(19) 0.47355(2) 1.5000
Cd1A Cd -0.061736(28) 0.411814(19) 0.5000
Cd1D Cd 0.061736(28) 0.588186(19) 0.5000
N1I_2 N 0.4161(2) 0.47856(19) 0.3836(2)
O3B O 0.5026(2) 0.5631(4) 0.5000
O3E O 0.4974(2) 0.4369(4) 0.5000
O4E O 0.3987(2) 0.37754(39) 0.5000
C22? C 0.411(4) 0.449(4) 0.937(2)
C23? C 0.4214(13) 0.4379(12) 0.8717(9)
C24? C 0.4126(19) 0.5780(15) 0.8531(13)
H16? H 0.4270 0.5936 0.8088
H17? H 0.4302 0.6107 0.8850
H18? H 0.3692 0.5593 0.8543
C25? C 0.402(5) 0.421(5) 1.0000
C26? C 0.345(4) 0.343(5) 1.0000
H19? H 0.3554 0.3218 1.0320
H20? H 0.3422 0.3267 0.9560
H21? H 0.3068 0.3397 1.0120
C27? C 0.4271(16) 0.3845(13) 0.8504(10)
H22? H 0.4681 0.3934 0.8570
H23? H 0.4166 0.3762 0.8037
H24? H 0.4001 0.3497 0.8767
H25? H 0.2962 0.3239 0.9990
loop_
_geom_bond_atom_site_label_1
_geom_bond_atom_site_label_2
_geom_bond_site_symmetry_1
_geom_bond_site_symmetry_2
Cd1 N1 1_555 1_555
C1 O1 1_555 1_555
N1 C3 1_555 1_555
O1 Cd1 1_555 1_555
O2 Cd1 1_555 1_555
O3 C14 1_555 1_555
O4 C14 1_555 1_555
C2 C1 1_555 1_555
C3 H1 1_555 1_555
C4 N1 1_555 1_555
C5 C2 1_555 1_555
C6 C2 1_555 1_555
C7 C3 1_555 1_555
C8 C4 1_555 1_555
H2 C4 1_555 1_555
H3 C5 1_555 1_555
C9 C5 1_555 1_555
C10 C6 1_555 1_555
H4 C6 1_555 1_555
H5 C7 1_555 1_555
C11 C7 1_555 1_555
H6 C8 1_555 1_555
H7 C9 1_555 1_555
C12 C9 1_555 1_555
H8 C10 1_555 1_555
C13 C11 1_555 1_555
C14 C12 1_555 1_555
C15 C13 1_555 1_555
C16 C13 1_555 1_555
C17 C15 1_555 1_555
N2 C15 1_555 1_555
C18 C16 1_555 1_555
C19 C16 1_555 1_555
H9 C17 1_555 1_555
H10 C17 1_555 1_555
H11 C17 1_555 1_555
B1 N2 1_555 1_555
C20 C18 1_555 1_555
H12 C19 1_555 1_555
H13 C19 1_555 1_555
H14 C19 1_555 1_555
F1 B1 1_555 1_555
F2 B1 1_555 1_555
C21 C20 1_555 1_555
H15 C21 1_555 1_555
N1I C3I 1_555 1_555
C3I H1I 1_555 1_555
C4I N1I 1_555 1_555
C7I C3I 1_555 1_555
C8I C4I 1_555 1_555
H2I C4I 1_555 1_555
H5I C7I 1_555 1_555
C11I C7I 1_555 1_555
H6I C8I 1_555 1_555
C13I C11I 1_555 1_555
C15I C13I 1_555 1_555
C16I C13I 1_555 1_555
C17I C15I 1_555 1_555
N2I B1 1_555 1_555
C18I C20 1_555 1_555
C19I C16I 1_555 1_555
H9I C17I 1_555 1_555
H10I C17I 1_555 1_555
H11I C17I 1_555 1_555
H12I C19I 1_555 1_555
H13I C19I 1_555 1_555
H14I C19I 1_555 1_555
H15I C21 1_555 1_555
Cd1_2 N1I 1_555 1_555
Cd1A O3 1_555 1_555
Cd1D O3 1_555 1_555
N1I_2 Cd1 1_555 1_555
O3B Cd1 1_555 1_555
O3E Cd1 1_555 1_555
O4E Cd1 1_555 1_555
C1 O2 1_555 1_555
O4 Cd1A 1_555 1_555
C8 C11 1_555 1_555
C10 C12 1_555 1_555
N2 C18 1_555 1_555
C8I C11I 1_555 1_555
C15I N2I 1_555 1_555
C16I C18I 1_555 1_555
N2I C18I 1_555 1_555

#END
