
#######################################################################
#
#                 Cambridge Crystallographic Data Centre
#                                CCDC 
#
#######################################################################
#
# If this CIF has been generated from an entry in the Cambridge 
# Structural Database, then it will include bibliographic, chemical, 
# crystal, experimental, refinement or atomic coordinate data resulting 
# from the CCDC's data processing and validation procedures.
#
#######################################################################

data_ZELQAK
_chemical_formula_moiety         '(C54 H56 N12 O22 Zn4)n,1.5n(C3 H7 N1 O1)'
_chemical_name_systematic        
"catena-(bis(\m~7~-5,5'-(1H-1,2,3-triazole-1,4-diyl)di-isophthalato)-hexakis(N,N-dimethylformamide)-tetra-zinc N,N-dimethylformamide solvate)"
_symmetry_cell_setting           orthorhombic
_symmetry_space_group_name_H-M   'P c c n'
_symmetry_Int_Tables_number      56
_space_group_name_Hall           '-P 2ab 2ac'
loop_
_symmetry_equiv_pos_site_id
_symmetry_equiv_pos_as_xyz
1 x,y,z
2 1/2-x,1/2-y,z
3 -x,1/2+y,1/2-z
4 1/2+x,-y,1/2-z
5 -x,-y,-z
6 1/2+x,1/2+y,-z
7 x,1/2-y,1/2+z
8 1/2-x,y,1/2+z
_cell_length_a                   26.4360(4)
_cell_length_b                   26.1150(4)
_cell_length_c                   26.3473(4)
_cell_angle_alpha                90
_cell_angle_beta                 90
_cell_angle_gamma                90
_cell_volume                     18189.5
_exptl_crystal_colour            colorless
_exptl_crystal_description       block
_cell_formula_units_Z            8
loop_
_atom_site_label
_atom_site_type_symbol
_atom_site_fract_x
_atom_site_fract_y
_atom_site_fract_z
Zn1 Zn 0.472701(14) 0.753922(14) 0.246746(14)
Zn2 Zn 0.401388(14) 0.709656(14) 0.149069(14)
Zn3 Zn 0.278820(16) 1.094760(15) -0.166140(15)
Zn4 Zn 0.268640(15) 1.028370(14) 0.236280(14)
C1 C 0.42341(14) 0.81893(13) 0.19570(13)
C2 C 0.40211(13) 0.85726(12) 0.15897(12)
C3 C 0.37354(14) 0.89769(13) 0.17789(13)
H1 H 0.3679 0.9004 0.2134
C4 C 0.35316(14) 0.93406(13) 0.14554(13)
C5 C 0.32054(15) 0.97609(14) 0.16525(15)
C6 C 0.36333(14) 0.93098(13) 0.09356(13)
H2 H 0.3504 0.9561 0.0710
C7 C 0.39240(14) 0.89084(13) 0.07530(13)
C8 C 0.41189(13) 0.85319(13) 0.10751(13)
H3 H 0.4313 0.8256 0.0945
C9 C 0.37228(16) 0.90220(14) -0.01841(14)
H4 H 0.3398 0.9176 -0.0168
C10 C 0.39893(15) 0.89002(14) -0.06042(13)
C11 C 0.38361(17) 0.89479(15) -0.11279(14)
C12 C 0.35533(16) 0.93674(14) -0.12831(14)
H5 H 0.3477 0.9635 -0.1051
C13 C 0.33825(15) 0.93925(13) -0.17815(13)
C14 C 0.30777(14) 0.98486(13) -0.19411(13)
C15 C 0.35058(13) 0.90128(13) -0.21246(13)
H6 H 0.3386 0.9031 -0.2464
C16 C 0.38071(14) 0.86009(13) -0.19700(13)
C17 C 0.39683(13) 0.81906(12) -0.23369(13)
C18 C 0.39676(15) 0.85671(14) -0.14738(13)
H7 H 0.4168 0.8285 -0.1368
C19 C 0.53253(17) 0.80097(17) 0.31158(17)
C20 C 0.57602(15) 0.83247(16) 0.33168(14)
C21 C 0.61343(15) 0.84943(14) 0.29919(14)
H8 H 0.6114 0.8418 0.2640
C22 C 0.65397(14) 0.87757(13) 0.31757(13)
C23 C 0.69394(14) 0.89795(12) 0.28302(13)
C24 C 0.65558(15) 0.89061(15) 0.36867(13)
H9 H 0.6830 0.9102 0.3816
C25 C 0.61672(16) 0.87482(17) 0.40093(14)
C26 C 0.57746(17) 0.84519(16) 0.38258(15)
H10 H 0.5516 0.8336 0.4048
C27 C 0.61854(16) 0.89009(17) 0.45366(14)
C28 C 0.59806(15) 0.86769(15) 0.49503(14)
H11 H 0.5774 0.8380 0.4958
C29 C 0.60396(14) 0.88801(15) 0.58818(13)
C30 C 0.56067(13) 0.86284(13) 0.60466(13)
H12 H 0.5362 0.8515 0.5808
C31 C 0.55339(13) 0.85430(13) 0.65620(12)
C32 C 0.50726(13) 0.82555(12) 0.67376(12)
C33 C 0.58863(14) 0.87120(13) 0.69111(13)
H13 H 0.5839 0.8645 0.7262
C34 C 0.63158(14) 0.89840(14) 0.67476(13)
C35 C 0.66772(14) 0.91808(14) 0.71297(13)
C36 C 0.63947(14) 0.90607(14) 0.62358(13)
H14 H 0.6689 0.9236 0.6123
C37 C 0.3159(2) 0.7733(2) 0.1876(3)
H15 H 0.3266 0.7641 0.2208
C38 C 0.2550(5) 0.8331(5) 0.2234(6)
H16 H 0.2649 0.8168 0.2554
H17 H 0.2183 0.8302 0.2190
H18 H 0.2646 0.8694 0.2242
C39 C 0.2655(5) 0.8257(5) 0.1319(5)
H19 H 0.2870 0.8545 0.1218
H20 H 0.2301 0.8367 0.1324
H21 H 0.2696 0.7976 0.1075
N1 N 0.2801(3) 0.8083(3) 0.1820(4)
O1 O 0.3358(5) 0.7522(5) 0.1504(4)
C40 C 0.4252(3) 0.7094(3) 0.0402(2)
H22 H 0.4457 0.6811 0.0496
C41 C 0.3815(5) 0.7537(4) -0.0301(4)
H23 H 0.3556 0.7609 -0.0044
H24 H 0.3654 0.7389 -0.0602
H25 H 0.3987 0.7856 -0.0394
C42 C 0.4482(5) 0.6908(5) -0.0469(4)
H26 H 0.4780 0.6755 -0.0307
H27 H 0.4591 0.7151 -0.0730
H28 H 0.4277 0.6638 -0.0626
N2 N 0.4186(2) 0.7171(3) -0.0094(2)
O2 O 0.4078(3) 0.73460(18) 0.07425(14)
C43 C 0.3866(3) 0.5994(2) 0.1449(3)
H29 H 0.4182 0.6027 0.1616
C44 C 0.3176(3) 0.5427(4) 0.1209(4)
H30 H 0.3095 0.5708 0.0976
H31 H 0.2909 0.5398 0.1466
H32 H 0.3200 0.5106 0.1019
C45 C 0.3892(3) 0.5106(3) 0.1738(3)
H33 H 0.4213 0.5220 0.1887
H34 H 0.3956 0.4820 0.1506
H35 H 0.3663 0.4993 0.2009
N3 N 0.3658(2) 0.5532(2) 0.1458(3)
O3 O 0.3694(2) 0.6391(2) 0.1247(2)
C46 C 0.3864(2) 1.0999(2) -0.1592(2)
H36 H 0.3808 1.0684 -0.1764
C47 C 0.4729(3) 1.0926(3) -0.1885(3)
H37 H 0.4597 1.0601 -0.2013
H38 H 0.4830 1.1143 -0.2171
H39 H 0.5023 1.0861 -0.1668
C48 C 0.4445(4) 1.1684(4) -0.1378(4)
H40 H 0.4191 1.1768 -0.1121
H41 H 0.4781 1.1680 -0.1222
H42 H 0.4436 1.1941 -0.1649
N4 N 0.43363(18) 1.11877(19) -0.1589(2)
O4 O 0.3498(4) 1.1206(4) -0.1385(3)
C49 C 0.2721(3) 1.0680(3) -0.0564(2)
H43 H 0.2832 1.0343 -0.0644
C50 C 0.2863(6) 1.0508(5) 0.0349(4)
H44 H 0.3121 1.0681 0.0554
H45 H 0.2560 1.0451 0.0555
H46 H 0.2995 1.0178 0.0231
C51 C 0.2497(4) 1.1299(4) 0.0081(4)
H47 H 0.2476 1.1540 -0.0204
H48 H 0.2155 1.1225 0.0205
H49 H 0.2698 1.1451 0.0354
N5 N 0.2736(4) 1.0826(3) -0.0089(3)
O5 O 0.2574(3) 1.0946(2) -0.0904(2)
C52 C 0.2214(3) 1.1867(2) -0.1944(3)
H50 H 0.2291 1.1789 -0.2287
C53 C 0.1745(4) 1.2362(4) -0.1336(4)
H51 H 0.1981 1.2195 -0.1102
H52 H 0.1766 1.2735 -0.1293
H53 H 0.1400 1.2248 -0.1262
C54 C 0.1631(4) 1.2494(3) -0.2257(4)
H54 H 0.1693 1.2313 -0.2576
H55 H 0.1267 1.2509 -0.2191
H56 H 0.1767 1.2843 -0.2280
N6 N 0.1875(3) 1.2229(2) -0.1852(3)
O6 O 0.2434(4) 1.1628(4) -0.1610(3)
N7 N 0.40237(13) 0.88753(13) 0.02125(12)
N8 N 0.44599(15) 0.86802(16) 0.00291(13)
N9 N 0.44386(16) 0.86942(17) -0.04672(13)
N10 N 0.64169(18) 0.93425(17) 0.46841(15)
N11 N 0.63850(18) 0.93777(17) 0.51785(15)
N12 N 0.61277(15) 0.89579(15) 0.53460(13)
O7 O 0.44205(9) 0.77709(8) 0.17809(8)
O8 O 0.42484(12) 0.82877(10) 0.24142(9)
O9 O 0.31166(11) 0.97419(10) 0.21288(11)
O10 O 0.30456(15) 1.00933(13) 0.13672(12)
O11 O 0.42317(11) 0.78404(9) -0.21460(9)
O12 O 0.38393(9) 0.82258(9) -0.27916(9)
O13 O 0.28624(11) 0.98212(10) -0.23654(9)
O14 O 0.30638(11) 1.02219(10) -0.16416(10)
O15 O 0.5302(5) 0.7979(6) 0.2629(3)
O16 O 0.5040(7) 0.7749(10) 0.3394(5)
O17 O 0.69172(11) 0.88663(11) 0.23757(9)
O18 O 0.72713(9) 0.92576(10) 0.30382(9)
O19 O 0.47077(9) 0.82306(9) 0.64355(9)
O20 O 0.51007(10) 0.80661(10) 0.71741(10)
O21 O 0.65897(12) 0.91453(14) 0.75843(10)
O22 O 0.70841(9) 0.94013(8) 0.69667(9)
Zn1F Zn 0.472701(14) 0.746078(14) -0.253254(14)
Zn1F_2 Zn 0.472701(14) 0.746078(14) 0.746746(14)
Zn2F Zn 0.401388(14) 0.790344(14) -0.350931(14)
Zn2F_2 Zn 0.401388(14) 0.790344(14) 0.649069(14)
Zn3D Zn 0.721180(16) 0.905240(15) 0.166140(15)
Zn3C Zn 0.778820(16) 0.905240(15) 0.666140(15)
Zn4G Zn 0.231360(15) 1.028370(14) -0.263720(14)
Zn4C Zn 0.768640(15) 0.971630(14) 0.263720(14)
Zn4D Zn 0.731360(15) 0.971630(14) 0.763720(14)
O11F O 0.42317(11) 0.71596(9) 0.28540(9)
O12F O 0.38393(9) 0.67742(9) 0.22084(9)
O13G O 0.21376(11) 0.98212(10) 0.26346(9)
O17D O 0.30828(11) 1.11337(11) -0.23757(9)
O18C O 0.22713(9) 1.07424(10) 0.19618(9)
O19F O 0.47077(9) 0.67694(9) 0.14355(9)
O20F O 0.51007(10) 0.69339(10) 0.21741(10)
O21D O 0.34103(12) 1.08547(14) 0.24157(10)
O22C O 0.20841(9) 1.05987(8) -0.19667(9)
O22D O 0.29159(9) 1.05987(8) 0.30333(9)
C55 C 0.5459(4) 0.7786(3) 0.0102(4)
H57 H 0.5150 0.7968 0.0140
C56 C 0.5844(5) 0.8615(4) 0.0000(5)
H58 H 0.5519 0.8741 0.0128
H59 H 0.5892 0.8731 -0.0351
H60 H 0.6119 0.8746 0.0212
C57 C 0.6307(7) 0.7800(8) -0.0003(9)
H61 H 0.6247 0.7435 0.0059
H62 H 0.6534 0.7936 0.0259
H63 H 0.6463 0.7845 -0.0337
N13 N 0.5847(3) 0.8064(3) 0.0013(3)
O23 O 0.5425(3) 0.7326(2) 0.0146(3)
C58 C -0.0049(5) 1.4271(5) 0.2198(5)
H64 H -0.0238 1.3982 0.2308
C59 C 0.0669(5) 1.4532(5) 0.1688(5)
H65 H 0.0545 1.4705 0.1383
H66 H 0.0987 1.4355 0.1611
H67 H 0.0728 1.4786 0.1956
C60 C 0.0402(6) 1.3657(5) 0.1663(5)
H68 H 0.0446 1.3418 0.1947
H69 H 0.0711 1.3665 0.1458
H70 H 0.0118 1.3543 0.1452
N14 N 0.0298(4) 1.4165(4) 0.1858(4)
O24 O -0.0175(5) 1.4682(5) 0.2404(5)
C61 C 0.2166(4) 0.9508(5) 0.9800(6)
H71 H 0.2076 0.9859 0.9833
C62 C 0.2017(7) 0.8618(5) 0.9834(8)
H72 H 0.2382 0.8626 0.9769
H73 H 0.1847 0.8429 0.9561
H74 H 0.1953 0.8448 1.0159
C63 C 0.1303(5) 0.9226(6) 0.9927(6)
H75 H 0.1250 0.9564 1.0080
H76 H 0.1169 0.8961 1.0154
H77 H 0.1127 0.9209 0.9600
N15 N 0.1821(4) 0.9145(4) 0.9852(5)
O25 O 0.2599(3) 0.9388(4) 0.9711(4)
C64? C 0.3133(4) 0.7748(4) 0.1292(5)
C65? C 0.2515(7) 0.8332(8) 0.0954(7)
C66? C 0.2606(7) 0.8313(7) 0.1841(7)
C67? C 0.3923(15) 0.6862(12) 0.0421(7)
C68? C 0.371(2) 0.7061(19) -0.0481(13)
C69? C 0.349(3) 0.6244(17) -0.0097(18)
C70? C 0.3614(7) 0.6104(5) 0.1318(6)
C71? C 0.3113(7) 0.5752(7) 0.0665(6)
C72? C 0.3413(10) 0.5168(6) 0.1365(8)
C73? C 0.6265(6) 0.8652(7) 0.1076(7)
C74? C 0.5699(11) 0.8247(11) 0.0464(8)
C75? C 0.5510(14) 0.8198(15) 0.1382(11)
C76? C 0.7385(9) 0.9032(7) 0.0521(5)
C77? C 0.7404(11) 0.9791(8) -0.0051(10)
C78? C 0.7193(12) 0.8959(11) -0.0388(8)
C79? C 0.7763(5) 0.8097(5) 0.1390(5)
C80? C 0.8276(8) 0.7577(8) 0.1921(7)
C81? C 0.8319(9) 0.7467(8) 0.0996(8)
H78? H 0.3216 0.7684 0.0947
H79? H 0.2577 0.8132 0.0646
H80? H 0.2637 0.8683 0.0906
H81? H 0.2151 0.8337 0.1026
H82? H 0.2775 0.8147 0.2127
H83? H 0.2240 0.8261 0.1868
H84? H 0.2680 0.8681 0.1845
H85? H 0.4072 0.6566 0.0567
H86? H 0.3380 0.7043 -0.0639
H87? H 0.3970 0.6933 -0.0718
H88? H 0.3792 0.7417 -0.0393
H89? H 0.3123 0.6278 -0.0115
H90? H 0.3581 0.6016 0.0186
H91? H 0.3618 0.6099 -0.0415
H92? H 0.3795 0.6066 0.1627
H93? H 0.3106 0.6116 0.0574
H94? H 0.2766 0.5626 0.0702
H95? H 0.3286 0.5558 0.0398
H96? H 0.3603 0.5181 0.1684
H97? H 0.3586 0.4939 0.1126
H98? H 0.3071 0.5039 0.1430
H99? H 0.6414 0.8806 0.0786
H100? H 0.5989 0.8065 0.0320
H101? H 0.5620 0.8546 0.0253
H102? H 0.5406 0.8018 0.0474
H103? H 0.5695 0.7922 0.1552
H104? H 0.5203 0.8058 0.1226
H105? H 0.5418 0.8460 0.1631
H106? H 0.7371 0.8669 0.0535
H107? H 0.7076 0.9946 0.0032
H108? H 0.7477 0.9843 -0.0412
H109? H 0.7669 0.9952 0.0154
H110? H 0.6972 0.8680 -0.0275
H111? H 0.7478 0.8816 -0.0580
H112? H 0.7001 0.9194 -0.0606
H113? H 0.7656 0.8193 0.1059
H114? H 0.8124 0.7801 0.2178
H115? H 0.8645 0.7606 0.1937
H116? H 0.8176 0.7222 0.1986
H117? H 0.8140 0.7142 0.0942
H118? H 0.8678 0.7398 0.1060
H119? H 0.8286 0.7681 0.0693
N16? N 0.5825(6) 0.8421(7) 0.0995(7)
N17? N 0.7387(13) 0.9241(8) 0.0060(7)
N18? N 0.8104(8) 0.7729(8) 0.1426(7)
N19? N 0.2782(6) 0.8098(6) 0.1380(7)
N20? N 0.3718(16) 0.6745(13) -0.0015(9)
N21? N 0.3383(6) 0.5688(4) 0.1144(5)
O26? O 0.4954(5) 0.7951(9) 0.3412(4)
O27? O 0.3362(12) 0.7498(11) 0.1611(8)
O28? O 0.3986(15) 0.7230(10) 0.0702(5)
O29? O 0.3620(6) 0.6518(4) 0.1131(6)
O30? O 0.6501(9) 0.8696(10) 0.1462(8)
O31? O 0.7401(6) 0.9250(5) 0.0918(4)
O32? O 0.7577(10) 0.8323(9) 0.1751(6)
O33? O 0.5354(5) 0.7873(8) 0.2668(5)
loop_
_geom_bond_atom_site_label_1
_geom_bond_atom_site_label_2
_geom_bond_site_symmetry_1
_geom_bond_site_symmetry_2
Zn1 O7 1_555 1_555
Zn2 O1 1_555 1_555
Zn3 O4 1_555 1_555
Zn4 O9 1_555 1_555
C1 C2 1_555 1_555
C2 C3 1_555 1_555
C3 H1 1_555 1_555
C4 C3 1_555 1_555
C5 C4 1_555 1_555
C6 C4 1_555 1_555
H2 C6 1_555 1_555
C7 C6 1_555 1_555
C8 C2 1_555 1_555
H3 C8 1_555 1_555
C9 H4 1_555 1_555
C10 C9 1_555 1_555
C11 C10 1_555 1_555
C12 C11 1_555 1_555
H5 C12 1_555 1_555
C13 C12 1_555 1_555
C14 C13 1_555 1_555
C15 C13 1_555 1_555
H6 C15 1_555 1_555
C16 C15 1_555 1_555
C17 C16 1_555 1_555
C18 C11 1_555 1_555
H7 C18 1_555 1_555
C19 C20 1_555 1_555
C20 C21 1_555 1_555
C21 H8 1_555 1_555
C22 C21 1_555 1_555
C23 C22 1_555 1_555
C24 C22 1_555 1_555
H9 C24 1_555 1_555
C25 C24 1_555 1_555
C26 C20 1_555 1_555
H10 C26 1_555 1_555
C27 C25 1_555 1_555
C28 C27 1_555 1_555
H11 C28 1_555 1_555
C29 C30 1_555 1_555
C30 H12 1_555 1_555
C31 C30 1_555 1_555
C32 C31 1_555 1_555
C33 C31 1_555 1_555
H13 C33 1_555 1_555
C34 C33 1_555 1_555
C35 C34 1_555 1_555
C36 C29 1_555 1_555
H14 C36 1_555 1_555
C37 H15 1_555 1_555
C38 H16 1_555 1_555
H17 C38 1_555 1_555
H18 C38 1_555 1_555
C39 H19 1_555 1_555
H20 C39 1_555 1_555
H21 C39 1_555 1_555
N1 C37 1_555 1_555
O1 C37 1_555 1_555
C40 H22 1_555 1_555
C41 H23 1_555 1_555
H24 C41 1_555 1_555
H25 C41 1_555 1_555
C42 H26 1_555 1_555
H27 C42 1_555 1_555
H28 C42 1_555 1_555
N2 C40 1_555 1_555
O2 Zn2 1_555 1_555
C43 H29 1_555 1_555
C44 H30 1_555 1_555
H31 C44 1_555 1_555
H32 C44 1_555 1_555
C45 H33 1_555 1_555
H34 C45 1_555 1_555
H35 C45 1_555 1_555
N3 C43 1_555 1_555
O3 Zn2 1_555 1_555
C46 H36 1_555 1_555
C47 H37 1_555 1_555
H38 C47 1_555 1_555
H39 C47 1_555 1_555
C48 H40 1_555 1_555
H41 C48 1_555 1_555
H42 C48 1_555 1_555
N4 C46 1_555 1_555
O4 C46 1_555 1_555
C49 H43 1_555 1_555
C50 H44 1_555 1_555
H45 C50 1_555 1_555
H46 C50 1_555 1_555
C51 H47 1_555 1_555
H48 C51 1_555 1_555
H49 C51 1_555 1_555
N5 C49 1_555 1_555
O5 Zn3 1_555 1_555
C52 H50 1_555 1_555
C53 H51 1_555 1_555
H52 C53 1_555 1_555
H53 C53 1_555 1_555
C54 H54 1_555 1_555
H55 C54 1_555 1_555
H56 C54 1_555 1_555
N6 C52 1_555 1_555
O6 Zn3 1_555 1_555
N7 C7 1_555 1_555
N8 N7 1_555 1_555
N9 C10 1_555 1_555
N10 C27 1_555 1_555
N11 N10 1_555 1_555
N12 C28 1_555 1_555
O7 Zn2 1_555 1_555
O8 Zn1 1_555 1_555
O9 C5 1_555 1_555
O10 C5 1_555 1_555
O11 C17 1_555 1_555
O12 C17 1_555 1_555
O13 C14 1_555 1_555
O14 Zn3 1_555 1_555
O15 Zn1 1_555 1_555
O16 C19 1_555 1_555
O17 C23 1_555 1_555
O18 C23 1_555 1_555
O19 C32 1_555 1_555
O20 C32 1_555 1_555
O21 C35 1_555 1_555
O22 C35 1_555 1_555
C55 H57 1_555 1_555
C56 H58 1_555 1_555
H59 C56 1_555 1_555
H60 C56 1_555 1_555
C57 H61 1_555 1_555
H62 C57 1_555 1_555
H63 C57 1_555 1_555
N13 C55 1_555 1_555
O23 C55 1_555 1_555
C58 H64 1_555 1_555
C59 H65 1_555 1_555
H66 C59 1_555 1_555
H67 C59 1_555 1_555
C60 H68 1_555 1_555
H69 C60 1_555 1_555
H70 C60 1_555 1_555
N14 C58 1_555 1_555
O24 C58 1_555 1_555
C61 H71 1_555 1_555
C62 H72 1_555 1_555
H73 C62 1_555 1_555
H74 C62 1_555 1_555
C63 H75 1_555 1_555
H76 C63 1_555 1_555
H77 C63 1_555 1_555
N15 C61 1_555 1_555
O25 C61 1_555 1_555
Zn1F O11 1_555 1_555
Zn1F_2 O20 1_555 1_555
Zn2F O12 1_555 1_555
Zn2F_2 O19 1_555 1_555
Zn3D O17 1_555 1_555
Zn3C O22 1_555 1_555
Zn4G O13 1_555 1_555
Zn4C O18 1_555 1_555
Zn4D O21 1_555 1_555
O11F Zn1 1_555 1_555
O12F Zn2 1_555 1_555
O13G Zn4 1_555 1_555
O17D Zn3 1_555 1_555
O18C Zn4 1_555 1_555
O19F Zn2 1_555 1_555
O20F Zn1 1_555 1_555
O21D Zn4 1_555 1_555
O22C Zn3 1_555 1_555
O22D Zn4 1_555 1_555
C1 O7 1_555 1_555
C1 O8 1_555 1_555
C7 C8 1_555 1_555
C9 N7 1_555 1_555
C14 O14 1_555 1_555
C16 C18 1_555 1_555
C19 O15 1_555 1_555
C25 C26 1_555 1_555
C29 N12 1_555 1_555
C34 C36 1_555 1_555
C38 N1 1_555 1_555
C39 N1 1_555 1_555
C40 O2 1_555 1_555
C41 N2 1_555 1_555
C42 N2 1_555 1_555
C43 O3 1_555 1_555
C44 N3 1_555 1_555
C45 N3 1_555 1_555
C47 N4 1_555 1_555
C48 N4 1_555 1_555
C49 O5 1_555 1_555
C50 N5 1_555 1_555
C51 N5 1_555 1_555
C52 O6 1_555 1_555
C53 N6 1_555 1_555
C54 N6 1_555 1_555
N8 N9 1_555 1_555
N11 N12 1_555 1_555
O22 Zn4D 1_555 1_555
C56 N13 1_555 1_555
C57 N13 1_555 1_555
C59 N14 1_555 1_555
C60 N14 1_555 1_555
C62 N15 1_555 1_555
C63 N15 1_555 1_555
Zn4G O22C 1_555 1_555

#END
