
#######################################################################
#
#                 Cambridge Crystallographic Data Centre
#                                CCDC 
#
#######################################################################
#
# If this CIF has been generated from an entry in the Cambridge 
# Structural Database, then it will include bibliographic, chemical, 
# crystal, experimental, refinement or atomic coordinate data resulting 
# from the CCDC's data processing and validation procedures.
#
#######################################################################

data_KACYEU
_chemical_formula_moiety         '(C76 H104 Cu4 O20 Si4)n'
_chemical_name_systematic        
'catena-(tetrakis(\m~4~-5-(2-(Tri-isopropylsilyl)ethynyl)benzene-1,3-dicarboxylato)-tetra-aqua-tetra-copper unknown solvate)'
_symmetry_cell_setting           rhombohedral
_symmetry_space_group_name_H-M   'R -3 m'
_symmetry_Int_Tables_number      166
_space_group_name_Hall           '-R 3 2"'
loop_
_symmetry_equiv_pos_site_id
_symmetry_equiv_pos_as_xyz
1 x,y,z
2 -y,x-y,z
3 y,x,-z
4 -x+y,-x,z
5 -x,-x+y,-z
6 x-y,-y,-z
7 1/3+x,2/3+y,2/3+z
8 1/3-y,2/3+x-y,2/3+z
9 1/3+y,2/3+x,2/3-z
10 1/3-x+y,2/3-x,2/3+z
11 1/3-x,2/3-x+y,2/3-z
12 1/3+x-y,2/3-y,2/3-z
13 2/3+x,1/3+y,1/3+z
14 2/3-y,1/3+x-y,1/3+z
15 2/3+y,1/3+x,1/3-z
16 2/3-x+y,1/3-x,1/3+z
17 2/3-x,1/3-x+y,1/3-z
18 2/3+x-y,1/3-y,1/3-z
19 -x,-y,-z
20 y,-x+y,-z
21 -y,-x,z
22 x-y,x,-z
23 x,x-y,z
24 -x+y,y,z
25 2/3-x,1/3-y,1/3-z
26 2/3+y,1/3-x+y,1/3-z
27 2/3-y,1/3-x,1/3+z
28 2/3+x-y,1/3+x,1/3-z
29 2/3+x,1/3+x-y,1/3+z
30 2/3-x+y,1/3+y,1/3+z
31 1/3-x,2/3-y,2/3-z
32 1/3+y,2/3-x+y,2/3-z
33 1/3-y,2/3-x,2/3+z
34 1/3+x-y,2/3+x,2/3-z
35 1/3+x,2/3+x-y,2/3+z
36 1/3-x+y,2/3+y,2/3+z
_cell_length_a                   51.642(5)
_cell_length_b                   51.642(5)
_cell_length_c                   33.245(4)
_cell_angle_alpha                90
_cell_angle_beta                 90
_cell_angle_gamma                120
_cell_volume                     76782.6
_exptl_crystal_colour            green
_exptl_crystal_description       prism
_cell_formula_units_Z            18
loop_
_atom_site_label
_atom_site_type_symbol
_atom_site_fract_x
_atom_site_fract_y
_atom_site_fract_z
_atom_site_U_iso_or_equiv
_atom_site_thermal_displace_type
Cu1 Cu 0.10350(16) 0.05175(8) 0.3035(2) 0.0403 Uani
Cu2 Cu 0.13722(17) 0.06861(9) 0.2383(2) 0.0426 Uani
Cu3 Cu 0.15479(14) 0.0000 0.5000 0.0560 Uani
Cu4 Cu 0.20545(16) 0.0000 0.5000 0.0612 Uani
O1 O 0.1336(4) 0.0433(4) 0.3271(9) 0.0450 Uiso
O2 O 0.1572(5) 0.0483(4) 0.2629(8) 0.0360 Uiso
O3 O 0.1651(6) 0.0146(4) 0.4442(6) 0.0450 Uiso
O4 O 0.2055(5) 0.0044(4) 0.4412(5) 0.0380 Uiso
O5 O 0.0771(5) 0.0626(4) 0.2739(7) 0.0470 Uiso
O6 O 0.1107(5) 0.0835(5) 0.2195(7) 0.0300 Uiso
O7 O 0.1795(6) 0.0434(4) 0.5068(6) 0.0440 Uiso
O8 O 0.2246(5) 0.0427(4) 0.5124(7) 0.0310 Uiso
O9 O 0.0745(9) 0.0372(4) 0.3591(10) 0.0530 Uiso
O10 O 0.1644(10) 0.0822(5) 0.1811(10) 0.0640 Uiso
O11 O 0.1111(4) 0.0000 0.5000 0.0750 Uiso
O12 O 0.2491(4) 0.0000 0.5000 0.0710 Uiso
Si1 Si 0.08058(18) 0.1612(4) 0.0549(5) 0.0500 Uiso
Si2 Si 0.2830(3) 0.0173(3) 0.2472(4) 0.0500 Uiso
Si3 Si 0.3669(4) 0.18343(19) 0.5464(5) 0.0500 Uiso
C1 C 0.1523(4) 0.0425(3) 0.3035(8) -0.0060 Uiso
C2 C 0.1725(4) 0.0336(2) 0.3236(7) 0.0160 Uiso
C3 C 0.1945(5) 0.0316(2) 0.3017(5) 0.0600 Uiso
H1 H 0.1966 0.0359 0.2737 0.0720 Uiso
C4 C 0.2136(4) 0.0232(3) 0.3205(8) 0.1100 Uiso
C5 C 0.2104(4) 0.0169(3) 0.3618(8) 0.0500 Uiso
H2 H 0.2233 0.0113 0.3747 0.0600 Uiso
C6 C 0.1885(5) 0.0188(3) 0.3843(5) 0.0390 Uiso
C7 C 0.1696(4) 0.0272(3) 0.3649(6) 0.0290 Uiso
H3 H 0.1547 0.0285 0.3799 0.0350 Uiso
C8 C 0.1859(5) 0.0119(3) 0.4284(5) -0.0110 Uiso
C9 C 0.2070(5) 0.0536(3) 0.5114(4) -0.0130 Uiso
C10 C 0.2061(5) 0.1031(3) 0.5169(11) 0.0370 Uiso
H4 H 0.1849 0.0925 0.5166 0.0440 Uiso
C11 C 0.2231(5) 0.0866(3) 0.5171(6) 0.0450 Uiso
C12 C 0.2536(5) 0.1035(3) 0.5229(5) 0.0430 Uiso
H5 H 0.2649 0.0937 0.5232 0.0510 Uiso
C13 C 0.2684(5) 0.1342(2) 0.5283(7) 0.0510 Uiso
C14 C 0.0874(4) 0.0765(4) 0.2407(6) -0.0150 Uiso
C15 C 0.0401(4) 0.0802(7) 0.2436(8) 0.0310 Uiso
H6 H 0.0361 0.0721 0.2701 0.0370 Uiso
C16 C 0.0666(3) 0.0862(4) 0.2242(7) 0.0430 Uiso
C17 C 0.0743(2) 0.1018(4) 0.1878(6) 0.0760 Uiso
H7 H 0.0923 0.1060 0.1744 0.0910 Uiso
C18 C 0.0557(3) 0.1114(5) 0.1710(7) 0.0800 Uiso
C19 C 0.0637(2) 0.1275(4) 0.1335(7) 0.0500 Uiso
C20 C 0.0704(2) 0.1408(4) 0.1023(6) 0.0500 Uiso
C21 C 0.2363(5) 0.0211(4) 0.2979(12) 0.0500 Uiso
C22 C 0.2543(4) 0.0201(3) 0.2762(9) 0.0500 Uiso
C23 C 0.3002(5) 0.1501(2) 0.5341(6) 0.0500 Uiso
C24 C 0.3264(4) 0.1632(2) 0.5389(6) 0.0500 Uiso
C25 C 0.0664(3) 0.1328(7) 0.0124(8) 0.0500 Uiso
H8 H 0.0734 0.1468 -0.0111 0.0600 Uiso
C26 C 0.0618(3) 0.1856(5) 0.0561(8) 0.0500 Uiso
H9 H 0.0649 0.1962 0.0298 0.0600 Uiso
C27 C 0.0283(4) 0.1655(7) 0.0642(14) 0.0500 Uiso
H10 H 0.0189 0.1779 0.0668 0.0750 Uiso
H11 H 0.0254 0.1543 0.0891 0.0750 Uiso
H12 H 0.0191 0.1515 0.0418 0.0750 Uiso
C28 C 0.0829(5) 0.1171(8) 0.0048(13) 0.0500 Uiso
H13 H 0.0756 0.0998 0.0228 0.0750 Uiso
H14 H 0.1043 0.1307 0.0097 0.0750 Uiso
H15 H 0.0800 0.1103 -0.0232 0.0750 Uiso
C29 C 0.0758(8) 0.2085(7) 0.0905(12) 0.0500 Uiso
H16 H 0.0663 0.2208 0.0917 0.0750 Uiso
H17 H 0.0973 0.2213 0.0855 0.0750 Uiso
H18 H 0.0728 0.1979 0.1160 0.0750 Uiso
C30 C 0.2748(7) -0.0230(5) 0.2566(8) 0.0500 Uiso
H19 H 0.2542 -0.0367 0.2461 0.0600 Uiso
C31 C 0.2750(6) 0.0225(6) 0.1917(6) 0.0500 Uiso
H20 H 0.2869 0.0165 0.1744 0.0600 Uiso
C32 C 0.3210(4) 0.0473(6) 0.2651(7) 0.0500 Uiso
H21 H 0.3201 0.0661 0.2639 0.0600 Uiso
C33 C 0.3759(6) 0.2190(3) 0.5754(6) 0.0500 Uiso
H22 H 0.3573 0.2200 0.5707 0.0600 Uiso
C34 C 0.3840(7) 0.1920(4) 0.4929(7) 0.0500 Uiso
H23 H 0.4062 0.2031 0.4966 0.0600 Uiso
C35 C 0.2740(10) -0.0295(8) 0.3012(8) 0.0500 Uiso
H24 H 0.2705 -0.0498 0.3050 0.0750 Uiso
H25 H 0.2578 -0.0278 0.3140 0.0750 Uiso
H26 H 0.2931 -0.0151 0.3135 0.0750 Uiso
C36 C 0.2955(10) -0.0300(8) 0.2336(11) 0.0500 Uiso
H27 H 0.2910 -0.0504 0.2399 0.0750 Uiso
H28 H 0.3162 -0.0158 0.2411 0.0750 Uiso
H29 H 0.2928 -0.0283 0.2047 0.0750 Uiso
C37 C 0.3287(7) 0.0452(10) 0.3077(7) 0.0500 Uiso
H30 H 0.3485 0.0622 0.3139 0.0750 Uiso
H31 H 0.3289 0.0265 0.3117 0.0750 Uiso
H32 H 0.3138 0.0456 0.3256 0.0750 Uiso
C38 C 0.3458(5) 0.0525(9) 0.2358(10) 0.0500 Uiso
H33 H 0.3650 0.0684 0.2460 0.0750 Uiso
H34 H 0.3417 0.0584 0.2095 0.0750 Uiso
H35 H 0.3466 0.0340 0.2328 0.0750 Uiso
C39 C 0.2855(9) 0.0550(6) 0.1829(10) 0.0500 Uiso
H36 H 0.2813 0.0572 0.1548 0.0750 Uiso
H37 H 0.3071 0.0670 0.1878 0.0750 Uiso
H38 H 0.2751 0.0620 0.2006 0.0750 Uiso
C40 C 0.2426(7) 0.0022(8) 0.1813(10) 0.0500 Uiso
H39 H 0.2391 0.0054 0.1532 0.0750 Uiso
H40 H 0.2300 0.0066 0.1989 0.0750 Uiso
H41 H 0.2374 -0.0187 0.1850 0.0750 Uiso
C41 C 0.3765(10) 0.2126(6) 0.4705(8) 0.0500 Uiso
H42 H 0.3863 0.2173 0.4441 0.0750 Uiso
H43 H 0.3835 0.2311 0.4858 0.0750 Uiso
H44 H 0.3548 0.2029 0.4668 0.0750 Uiso
C42 C 0.3757(10) 0.2165(7) 0.6196(7) 0.0500 Uiso
H45 H 0.3803 0.2357 0.6316 0.0750 Uiso
H46 H 0.3908 0.2114 0.6279 0.0750 Uiso
H47 H 0.3559 0.2009 0.6285 0.0750 Uiso
C43 C 0.3986(9) 0.2473(4) 0.5568(11) 0.0500 Uiso
H48 H 0.4013 0.2642 0.5735 0.0750 Uiso
H49 H 0.3920 0.2491 0.5299 0.0750 Uiso
H50 H 0.4176 0.2475 0.5548 0.0750 Uiso
Cu1A Cu -0.05175(8) 0.05175(18) 0.3035(2) 0.0403 Uani
Cu2A Cu -0.06861(9) 0.06861(19) 0.2383(2) 0.0426 Uani
Cu3U Cu 0.15479(14) 0.15479(14) 0.5000 0.0560 Uani
Cu4U Cu 0.20545(16) 0.20545(16) 0.5000 0.0612 Uani
O1V O 0.1336(4) 0.0903(6) 0.3271(9) 0.0450 Uiso
O2V O 0.1572(5) 0.1089(6) 0.2629(8) 0.0360 Uiso
O3V O 0.1651(6) 0.1505(7) 0.4442(6) 0.0450 Uiso
O3E O 0.1505(7) -0.0146(4) 0.5558(6) 0.0450 Uiso
O4V O 0.2055(5) 0.2011(6) 0.4412(5) 0.0380 Uiso
O4E O 0.2011(6) -0.0044(4) 0.5588(5) 0.0380 Uiso
O5W O -0.0145(6) 0.0626(4) 0.2739(7) 0.0470 Uiso
O5V O 0.0771(5) 0.0145(6) 0.2739(7) 0.0470 Uiso
O6W O -0.0272(7) 0.0835(5) 0.2195(7) 0.0300 Uiso
O6V O 0.1107(5) 0.0272(7) 0.2195(7) 0.0300 Uiso
O7V O 0.1795(6) 0.1361(7) 0.5068(6) 0.0440 Uiso
O7E O 0.1361(7) -0.0434(4) 0.4932(6) 0.0440 Uiso
O8V O 0.2246(5) 0.1819(6) 0.5124(7) 0.0310 Uiso
O8E O 0.1819(6) -0.0427(4) 0.4876(7) 0.0310 Uiso
Si2V Si 0.2830(3) 0.2657(4) 0.2472(4) 0.0500 Uiso
C1V C 0.1523(4) 0.1098(5) 0.3035(8) -0.0060 Uiso
C2V C 0.1725(4) 0.1389(4) 0.3236(7) 0.0160 Uiso
C3V C 0.1945(5) 0.1629(5) 0.3017(5) 0.0600 Uiso
H1V H 0.1966 0.1607 0.2737 0.0720 Uiso
C4V C 0.2136(4) 0.1904(5) 0.3205(8) 0.1100 Uiso
C5V C 0.2104(4) 0.1935(5) 0.3618(8) 0.0500 Uiso
H2V H 0.2233 0.2120 0.3747 0.0600 Uiso
C6V C 0.1885(5) 0.1697(6) 0.3843(5) 0.0390 Uiso
C7V C 0.1696(4) 0.1424(5) 0.3649(6) 0.0290 Uiso
H3V H 0.1547 0.1262 0.3799 0.0350 Uiso
C8V C 0.1859(5) 0.1740(6) 0.4284(5) -0.0110 Uiso
C9V C 0.2070(5) 0.1534(6) 0.5114(4) -0.0130 Uiso
C11V C 0.2231(5) 0.1365(6) 0.5171(6) 0.0450 Uiso
C12V C 0.2536(5) 0.1501(6) 0.5229(5) 0.0430 Uiso
H5V H 0.2649 0.1712 0.5232 0.0510 Uiso
C14W C -0.0109(6) 0.0765(4) 0.2407(6) -0.0150 Uiso
C16W C 0.0196(5) 0.0862(4) 0.2242(7) 0.0430 Uiso
C17W C 0.0275(4) 0.1018(4) 0.1878(6) 0.0760 Uiso
H7W H 0.0137 0.1060 0.1744 0.0910 Uiso
C21V C 0.2363(5) 0.2152(6) 0.2979(12) 0.0500 Uiso
C22V C 0.2543(4) 0.2342(5) 0.2762(9) 0.0500 Uiso
C26W C 0.1238(6) 0.1856(5) 0.0561(8) 0.0500 Uiso
H9W H 0.1313 0.1962 0.0298 0.0600 Uiso
C27W C 0.1372(8) 0.1655(7) 0.0642(14) 0.0500 Uiso
H10W H 0.1590 0.1779 0.0668 0.0750 Uiso
H11W H 0.1289 0.1543 0.0891 0.0750 Uiso
H12W H 0.1324 0.1515 0.0418 0.0750 Uiso
C28W C 0.0342(9) 0.1171(8) 0.0048(13) 0.0500 Uiso
H13W H 0.0242 0.0998 0.0228 0.0750 Uiso
H14W H 0.0264 0.1307 0.0097 0.0750 Uiso
H15W H 0.0303 0.1103 -0.0232 0.0750 Uiso
C29W C 0.1327(11) 0.2085(7) 0.0905(12) 0.0500 Uiso
H16W H 0.1545 0.2208 0.0917 0.0750 Uiso
H17W H 0.1240 0.2213 0.0855 0.0750 Uiso
H18W H 0.1251 0.1979 0.1160 0.0750 Uiso
C30V C 0.2748(7) 0.2978(9) 0.2566(8) 0.0500 Uiso
H19V H 0.2542 0.2909 0.2461 0.0600 Uiso
C31V C 0.2750(6) 0.2525(8) 0.1917(6) 0.0500 Uiso
H20V H 0.2869 0.2704 0.1744 0.0600 Uiso
C32V C 0.3210(4) 0.2737(7) 0.2651(7) 0.0500 Uiso
H21V H 0.3201 0.2540 0.2639 0.0600 Uiso
C33V C 0.3759(6) 0.1569(7) 0.5754(6) 0.0500 Uiso
H22V H 0.3573 0.1373 0.5707 0.0600 Uiso
C35V C 0.2740(10) 0.3035(13) 0.3012(8) 0.0500 Uiso
H24V H 0.2705 0.3203 0.3050 0.0750 Uiso
H25V H 0.2578 0.2856 0.3140 0.0750 Uiso
H26V H 0.2931 0.3082 0.3135 0.0750 Uiso
C36V C 0.2955(10) 0.3255(13) 0.2336(11) 0.0500 Uiso
H27V H 0.2910 0.3414 0.2399 0.0750 Uiso
H28V H 0.3162 0.3320 0.2411 0.0750 Uiso
H29V H 0.2928 0.3211 0.2047 0.0750 Uiso
C37V C 0.3287(7) 0.2835(12) 0.3077(7) 0.0500 Uiso
H30V H 0.3485 0.2863 0.3139 0.0750 Uiso
H31V H 0.3289 0.3024 0.3117 0.0750 Uiso
H32V H 0.3138 0.2682 0.3256 0.0750 Uiso
C38V C 0.3458(5) 0.2933(10) 0.2358(10) 0.0500 Uiso
H33V H 0.3650 0.2966 0.2460 0.0750 Uiso
H34V H 0.3417 0.2833 0.2095 0.0750 Uiso
H35V H 0.3466 0.3126 0.2328 0.0750 Uiso
C39V C 0.2855(9) 0.2305(11) 0.1829(10) 0.0500 Uiso
H36V H 0.2813 0.2241 0.1548 0.0750 Uiso
H37V H 0.3071 0.2401 0.1878 0.0750 Uiso
H38V H 0.2751 0.2131 0.2006 0.0750 Uiso
C40V C 0.2426(7) 0.2404(11) 0.1813(10) 0.0500 Uiso
H39V H 0.2391 0.2337 0.1532 0.0750 Uiso
H40V H 0.2300 0.2234 0.1989 0.0750 Uiso
H41V H 0.2374 0.2561 0.1850 0.0750 Uiso
C41V C 0.3765(10) 0.1639(12) 0.4705(8) 0.0500 Uiso
H42V H 0.3863 0.1690 0.4441 0.0750 Uiso
H43V H 0.3835 0.1524 0.4858 0.0750 Uiso
H44V H 0.3548 0.1519 0.4668 0.0750 Uiso
C42V C 0.3757(10) 0.1592(12) 0.6196(7) 0.0500 Uiso
H45V H 0.3803 0.1446 0.6316 0.0750 Uiso
H46V H 0.3908 0.1794 0.6279 0.0750 Uiso
H47V H 0.3559 0.1550 0.6285 0.0750 Uiso
C43V C 0.3986(9) 0.1513(10) 0.5568(11) 0.0500 Uiso
H48V H 0.4013 0.1371 0.5735 0.0750 Uiso
H49V H 0.3920 0.1429 0.5299 0.0750 Uiso
H50V H 0.4176 0.1701 0.5548 0.0750 Uiso
loop_
_atom_site_aniso_label
_atom_site_aniso_U_11
_atom_site_aniso_U_22
_atom_site_aniso_U_33
_atom_site_aniso_U_23
_atom_site_aniso_U_13
_atom_site_aniso_U_12
Cu1 0.036(5) 0.060(4) 0.017(4) 0.0037(18) 0.007(4) 0.018(2)
Cu2 0.041(5) 0.060(4) 0.021(5) 0.0022(19) 0.004(4) 0.021(3)
Cu3 0.037(4) 0.088(7) 0.060(6) 0.040(5) 0.020(3) 0.044(4)
Cu4 0.047(4) 0.101(8) 0.053(6) 0.032(5) 0.016(3) 0.050(4)
Cu1A 0.06 0.06 0.017 0.0033 -0.0037 0.042
Cu2A 0.06 0.059 0.021 0.0018 -0.0022 0.039
Cu3U 0.037 0.037 0.06 -0.02 0.02 -0.007
Cu4U 0.048 0.047 0.053 -0.016 0.016 -0.003
loop_
_geom_bond_atom_site_label_1
_geom_bond_atom_site_label_2
_geom_bond_site_symmetry_1
_geom_bond_site_symmetry_2
Cu1 O1 1_555 1_555
Cu2 O2 1_555 1_555
Cu3 O3 1_555 1_555
Cu4 O4 1_555 1_555
O1 C1 1_555 1_555
O2 C1 1_555 1_555
O3 C8 1_555 1_555
O4 C8 1_555 1_555
O5 Cu1 1_555 1_555
O6 Cu2 1_555 1_555
O7 Cu3 1_555 1_555
O8 Cu4 1_555 1_555
O9 Cu1 1_555 1_555
O10 Cu2 1_555 1_555
O11 Cu3 1_555 1_555
O12 Cu4 1_555 1_555
Si1 C20 1_555 1_555
Si2 C22 1_555 1_555
Si3 C24 1_555 1_555
C1 C2 1_555 1_555
C2 C3 1_555 1_555
C3 H1 1_555 1_555
C4 C3 1_555 1_555
C5 C4 1_555 1_555
H2 C5 1_555 1_555
C6 C5 1_555 1_555
C7 C2 1_555 1_555
H3 C7 1_555 1_555
C8 C6 1_555 1_555
C9 O7 1_555 1_555
C10 H4 1_555 1_555
C11 C9 1_555 1_555
C12 C11 1_555 1_555
H5 C12 1_555 1_555
C13 C12 1_555 1_555
C14 O5 1_555 1_555
C15 H6 1_555 1_555
C16 C14 1_555 1_555
C17 C16 1_555 1_555
H7 C17 1_555 1_555
C18 C17 1_555 1_555
C19 C18 1_555 1_555
C20 C19 1_555 1_555
C21 C4 1_555 1_555
C22 C21 1_555 1_555
C23 C13 1_555 1_555
C24 C23 1_555 1_555
C25 Si1 1_555 1_555
H8 C25 1_555 1_555
C26 Si1 1_555 1_555
H9 C26 1_555 1_555
C27 C26 1_555 1_555
H10 C27 1_555 1_555
H11 C27 1_555 1_555
H12 C27 1_555 1_555
C28 C25 1_555 1_555
H13 C28 1_555 1_555
H14 C28 1_555 1_555
H15 C28 1_555 1_555
C29 C26 1_555 1_555
H16 C29 1_555 1_555
H17 C29 1_555 1_555
H18 C29 1_555 1_555
C30 Si2 1_555 1_555
H19 C30 1_555 1_555
C31 Si2 1_555 1_555
H20 C31 1_555 1_555
C32 Si2 1_555 1_555
H21 C32 1_555 1_555
C33 Si3 1_555 1_555
H22 C33 1_555 1_555
C34 Si3 1_555 1_555
H23 C34 1_555 1_555
C35 C30 1_555 1_555
H24 C35 1_555 1_555
H25 C35 1_555 1_555
H26 C35 1_555 1_555
C36 C30 1_555 1_555
H27 C36 1_555 1_555
H28 C36 1_555 1_555
H29 C36 1_555 1_555
C37 C32 1_555 1_555
H30 C37 1_555 1_555
H31 C37 1_555 1_555
H32 C37 1_555 1_555
C38 C32 1_555 1_555
H33 C38 1_555 1_555
H34 C38 1_555 1_555
H35 C38 1_555 1_555
C39 C31 1_555 1_555
H36 C39 1_555 1_555
H37 C39 1_555 1_555
H38 C39 1_555 1_555
C40 C31 1_555 1_555
H39 C40 1_555 1_555
H40 C40 1_555 1_555
H41 C40 1_555 1_555
C41 C34 1_555 1_555
H42 C41 1_555 1_555
H43 C41 1_555 1_555
H44 C41 1_555 1_555
C42 C33 1_555 1_555
H45 C42 1_555 1_555
H46 C42 1_555 1_555
H47 C42 1_555 1_555
C43 C33 1_555 1_555
H48 C43 1_555 1_555
H49 C43 1_555 1_555
H50 C43 1_555 1_555
Cu1A O5W 1_555 1_555
Cu2A O6W 1_555 1_555
Cu3U O3V 1_555 1_555
Cu4U O4V 1_555 1_555
O1V Cu1 1_555 1_555
O2V Cu2 1_555 1_555
O3V C8V 1_555 1_555
O3E Cu3 1_555 1_555
O4V C8V 1_555 1_555
O4E Cu4 1_555 1_555
O5W C14W 1_555 1_555
O5V Cu1 1_555 1_555
O6W C14W 1_555 1_555
O6V Cu2 1_555 1_555
O7V Cu3U 1_555 1_555
O7E Cu3 1_555 1_555
O8V Cu4U 1_555 1_555
O8E Cu4 1_555 1_555
Si2V C22V 1_555 1_555
C1V O1V 1_555 1_555
C2V C1V 1_555 1_555
C3V C2V 1_555 1_555
H1V C3V 1_555 1_555
C4V C3V 1_555 1_555
C5V C4V 1_555 1_555
H2V C5V 1_555 1_555
C6V C5V 1_555 1_555
C7V C2V 1_555 1_555
H3V C7V 1_555 1_555
C8V C6V 1_555 1_555
C9V O7V 1_555 1_555
C11V C10 1_555 1_555
C12V C13 1_555 1_555
H5V C12V 1_555 1_555
C14W C16W 1_555 1_555
C16W C15 1_555 1_555
C17W C18 1_555 1_555
H7W C17W 1_555 1_555
C21V C4V 1_555 1_555
C22V C21V 1_555 1_555
C26W Si1 1_555 1_555
H9W C26W 1_555 1_555
C27W C26W 1_555 1_555
H10W C27W 1_555 1_555
H11W C27W 1_555 1_555
H12W C27W 1_555 1_555
C28W C25 1_555 1_555
H13W C28W 1_555 1_555
H14W C28W 1_555 1_555
H15W C28W 1_555 1_555
C29W C26W 1_555 1_555
H16W C29W 1_555 1_555
H17W C29W 1_555 1_555
H18W C29W 1_555 1_555
C30V Si2V 1_555 1_555
H19V C30V 1_555 1_555
C31V Si2V 1_555 1_555
H20V C31V 1_555 1_555
C32V Si2V 1_555 1_555
H21V C32V 1_555 1_555
C33V Si3 1_555 1_555
H22V C33V 1_555 1_555
C35V C30V 1_555 1_555
H24V C35V 1_555 1_555
H25V C35V 1_555 1_555
H26V C35V 1_555 1_555
C36V C30V 1_555 1_555
H27V C36V 1_555 1_555
H28V C36V 1_555 1_555
H29V C36V 1_555 1_555
C37V C32V 1_555 1_555
H30V C37V 1_555 1_555
H31V C37V 1_555 1_555
H32V C37V 1_555 1_555
C38V C32V 1_555 1_555
H33V C38V 1_555 1_555
H34V C38V 1_555 1_555
H35V C38V 1_555 1_555
C39V C31V 1_555 1_555
H36V C39V 1_555 1_555
H37V C39V 1_555 1_555
H38V C39V 1_555 1_555
C40V C31V 1_555 1_555
H39V C40V 1_555 1_555
H40V C40V 1_555 1_555
H41V C40V 1_555 1_555
C41V C34 1_555 1_555
H42V C41V 1_555 1_555
H43V C41V 1_555 1_555
H44V C41V 1_555 1_555
C42V C33V 1_555 1_555
H45V C42V 1_555 1_555
H46V C42V 1_555 1_555
H47V C42V 1_555 1_555
C43V C33V 1_555 1_555
H48V C43V 1_555 1_555
H49V C43V 1_555 1_555
H50V C43V 1_555 1_555
O6 C14 1_555 1_555
O8 C9 1_555 1_555
C6 C7 1_555 1_555
C10 C11 1_555 1_555
C15 C16 1_555 1_555
O2V C1V 1_555 1_555
O8V C9V 1_555 1_555
C6V C7V 1_555 1_555
C9V C11V 1_555 1_555
C11V C12V 1_555 1_555
C16W C17W 1_555 1_555

#END
