
#######################################################################
#
#                 Cambridge Crystallographic Data Centre
#                                CCDC 
#
#######################################################################
#
# If this CIF has been generated from an entry in the Cambridge 
# Structural Database, then it will include bibliographic, chemical, 
# crystal, experimental, refinement or atomic coordinate data resulting 
# from the CCDC's data processing and validation procedures.
#
#######################################################################

data_YUBFUX
_chemical_name_common            MAF-X5
_chemical_formula_moiety         '(C4 H6 F1 N3 Zn1)n'
_chemical_name_systematic        
catena-((\m~3~-3,5-Dimethyl-1,2,4-triazolato-N,N',N'')-(\m~2~-fluoro)-zinc(ii))
_symmetry_cell_setting           rhombohedral
_symmetry_space_group_name_H-M   'R -3 c'
_symmetry_Int_Tables_number      167
_space_group_name_Hall           '-R 3 2"c'
loop_
_symmetry_equiv_pos_site_id
_symmetry_equiv_pos_as_xyz
1 x,y,z
2 -y,x-y,z
3 -x+y,-x,z
4 y,x,1/2-z
5 x-y,-y,1/2-z
6 -x,-x+y,1/2-z
7 2/3+x,1/3+y,1/3+z
8 2/3-y,1/3+x-y,1/3+z
9 2/3-x+y,1/3-x,1/3+z
10 2/3+y,1/3+x,5/6-z
11 2/3+x-y,1/3-y,5/6-z
12 2/3-x,1/3-x+y,5/6-z
13 1/3+x,2/3+y,2/3+z
14 1/3-y,2/3+x-y,2/3+z
15 1/3-x+y,2/3-x,2/3+z
16 1/3+y,2/3+x,1/6-z
17 1/3+x-y,2/3-y,1/6-z
18 1/3-x,2/3-x+y,1/6-z
19 -x,-y,-z
20 y,-x+y,-z
21 x-y,x,-z
22 -y,-x,1/2+z
23 -x+y,y,1/2+z
24 x,x-y,1/2+z
25 1/3-x,2/3-y,2/3-z
26 1/3+y,2/3-x+y,2/3-z
27 1/3+x-y,2/3+x,2/3-z
28 1/3-y,2/3-x,1/6+z
29 1/3-x+y,2/3+y,1/6+z
30 1/3+x,2/3+x-y,1/6+z
31 2/3-x,1/3-y,1/3-z
32 2/3+y,1/3-x+y,1/3-z
33 2/3+x-y,1/3+x,1/3-z
34 2/3-y,1/3-x,5/6+z
35 2/3-x+y,1/3+y,5/6+z
36 2/3+x,1/3+x-y,5/6+z
_cell_length_a                   18.8698(12)
_cell_length_b                   18.8698(12)
_cell_length_c                   9.7902(13)
_cell_angle_alpha                90
_cell_angle_beta                 90
_cell_angle_gamma                120
_cell_volume                     3018.96
_exptl_crystal_colour            colorless
_exptl_crystal_description       needle
_cell_formula_units_Z            18
loop_
_atom_site_label
_atom_site_type_symbol
_atom_site_fract_x
_atom_site_fract_y
_atom_site_fract_z
Zn1 Zn -0.041830(17) -0.333330(17) -0.0833
F1 F 0.00000(10) -0.2631 -0.2500
N1 N 0.18367(13) -0.14966(13) 0.0833
N2 N 0.05731(11) -0.24621(12) 0.0324(2)
C1 C 0.11672(14) -0.17060(14) 0.0064(2)
C2 C 0.10987(17) -0.11323(16) -0.0904(3)
H1 H 0.0627 -0.1432 -0.1474
H2 H 0.1581 -0.0869 -0.1463
H3 H 0.1045 -0.0726 -0.0397
Zn1T Zn 0.291500(24) -0.041830(17) 0.0833
Zn1G Zn -0.000003(17) -0.375167(24) 0.2500
Zn1E Zn 0.041830(17) -0.291500(24) -0.4167
F1G F -0.0702 -0.40357(10) 0.0833
N1S N -0.14966(13) -0.33333(18) -0.0833
N2O N 0.08712(12) -0.27602(11) 0.1343(2)
N2J N -0.02981(16) -0.42046(12) -0.1991(2)
C1O C 0.16273(14) -0.21661(14) 0.1603(2)
C2O C 0.22010(16) -0.22346(17) 0.2571(3)
H1O H 0.1901 -0.2706 0.3141
H2O H 0.2464 -0.1752 0.3130
H3O H 0.2607 -0.2288 0.2064
loop_
_geom_bond_atom_site_label_1
_geom_bond_atom_site_label_2
_geom_bond_site_symmetry_1
_geom_bond_site_symmetry_2
Zn1 F1 1_555 1_555
F1 Zn1E 1_555 1_555
N1 C1 1_555 1_555
N2 Zn1 1_555 1_555
C1 N2 1_555 1_555
C2 C1 1_555 1_555
H1 C2 1_555 1_555
H2 C2 1_555 1_555
H3 C2 1_555 1_555
Zn1T N1 1_555 1_555
Zn1G F1G 1_555 1_555
F1G Zn1 1_555 1_555
N1S Zn1 1_555 1_555
N2O N2 1_555 1_555
N2J Zn1 1_555 1_555
C1O N1 1_555 1_555
C2O C1O 1_555 1_555
H1O C2O 1_555 1_555
H2O C2O 1_555 1_555
H3O C2O 1_555 1_555
Zn1G N2O 1_555 1_555
N2O C1O 1_555 1_555

#END
