
#######################################################################
#
#                 Cambridge Crystallographic Data Centre
#                                CCDC 
#
#######################################################################
#
# If this CIF has been generated from an entry in the Cambridge 
# Structural Database, then it will include bibliographic, chemical, 
# crystal, experimental, refinement or atomic coordinate data resulting 
# from the CCDC's data processing and validation procedures.
#
#######################################################################

data_YUBFOR
_chemical_name_common            MAF-X4
_chemical_formula_moiety         
'(C5 H7 N3 O2 Zn1)n,0.16n(C2 H7 N1),0.25n(H2 O1)'
_chemical_name_systematic        
"catena-((\m~3~-3,5-Dimethyl-1,2,4-triazolato-N,N',N'')-(formato-O)-zinc(ii) dimethylamine hydrate)"
_symmetry_cell_setting           rhombohedral
_symmetry_space_group_name_H-M   'R -3'
_symmetry_Int_Tables_number      148
_space_group_name_Hall           '-R 3'
loop_
_symmetry_equiv_pos_site_id
_symmetry_equiv_pos_as_xyz
1 x,y,z
2 -y,x-y,z
3 -x+y,-x,z
4 2/3+x,1/3+y,1/3+z
5 2/3-y,1/3+x-y,1/3+z
6 2/3-x+y,1/3-x,1/3+z
7 1/3+x,2/3+y,2/3+z
8 1/3-y,2/3+x-y,2/3+z
9 1/3-x+y,2/3-x,2/3+z
10 -x,-y,-z
11 y,-x+y,-z
12 x-y,x,-z
13 1/3-x,2/3-y,2/3-z
14 1/3+y,2/3-x+y,2/3-z
15 1/3+x-y,2/3+x,2/3-z
16 2/3-x,1/3-y,1/3-z
17 2/3+y,1/3-x+y,1/3-z
18 2/3+x-y,1/3+x,1/3-z
_cell_length_a                   20.2484(16)
_cell_length_b                   20.2484(16)
_cell_length_c                   11.3469(17)
_cell_angle_alpha                90
_cell_angle_beta                 90
_cell_angle_gamma                120
_cell_volume                     4028.93
_exptl_crystal_colour            colorless
_exptl_crystal_description       block
_cell_formula_units_Z            18
loop_
_atom_site_label
_atom_site_type_symbol
_atom_site_fract_x
_atom_site_fract_y
_atom_site_fract_z
O3 O 0.661(3) 0.410(4) -0.038(5)
Zn1 Zn 0.19642(3) 0.33059(4) 0.17821(5)
N1 N 0.2186(2) 0.2844(2) 0.3196(4)
N2 N 0.1896(2) 0.2801(2) 0.4314(4)
N3 N 0.2629(4) 0.2285(2) 0.4372(4)
C1 C 0.1989(4) 0.2299(5) 0.6249(6)
H1 H 0.1644 0.2469 0.6489
H2 H 0.1759 0.1761 0.6382
H3 H 0.2452 0.2563 0.6698
C2 C 0.2165(3) 0.2462(3) 0.4979(5)
C3 C 0.2614(3) 0.2525(3) 0.3261(4)
C4 C 0.3018(4) 0.2443(5) 0.2230(5)
H4 H 0.2919 0.2660 0.1547
H5 H 0.3556 0.2704 0.2383
H6 H 0.2840 0.1913 0.2093
O1 O 0.1317(16) 0.2711(14) 0.050(2)
O2 O 0.0679(18) 0.1754(13) 0.1592(18)
H7 H 0.0594 0.1829 -0.0062
C7 C 0.0857(7) 0.2098(6) 0.0607(7)
Zn1L Zn 0.13691(3) 0.33608(4) 0.48846(5)
Zn1D Zn 0.33608(4) 0.19916(5) 0.51154(5)
N2L N 0.1437(2) 0.3866(2) 0.2353(4)
N3H N 0.2989(4) 0.4038(4) 0.1039(4)
C5? C 0.0857(7) 0.2098(6) 0.0607(7)
C6? C 0.681(4) 0.4107(13) 0.070(5)
N4? N 0.6667 0.3333 0.047(5)
H8? H 0.5618 0.3979 0.3258
O4? O 0.5649(14) 0.4851(11) 0.2771(19)
O5? O 0.4952(18) 0.3773(12) 0.2010(19)
loop_
_geom_bond_atom_site_label_1
_geom_bond_atom_site_label_2
_geom_bond_site_symmetry_1
_geom_bond_site_symmetry_2
Zn1 N1 1_555 1_555
N1 N2 1_555 1_555
N2 C2 1_555 1_555
N3 C2 1_555 1_555
C1 H1 1_555 1_555
H2 C1 1_555 1_555
H3 C1 1_555 1_555
C2 C1 1_555 1_555
C3 N1 1_555 1_555
C4 C3 1_555 1_555
H4 C4 1_555 1_555
H5 C4 1_555 1_555
H6 C4 1_555 1_555
O1 Zn1 1_555 1_555
O2 C7 1_555 1_555
H7 C7 1_555 1_555
C7 O1 1_555 1_555
Zn1L N2 1_555 1_555
Zn1D N3 1_555 1_555
N2L Zn1 1_555 1_555
N3H Zn1 1_555 1_555
N3 C3 1_555 1_555

#END
