
#######################################################################
#
#                 Cambridge Crystallographic Data Centre
#                                CCDC 
#
#######################################################################
#
# If this CIF has been generated from an entry in the Cambridge 
# Structural Database, then it will include bibliographic, chemical, 
# crystal, experimental, refinement or atomic coordinate data resulting 
# from the CCDC's data processing and validation procedures.
#
#######################################################################

data_ZIVCOY
_chemical_formula_moiety         '(C84 H54 Cu6 O33)n'
_chemical_name_systematic        
"catena-[tris(\m-4',4''-oxydibiphenyl-3,5-dicarboxylato)-hexa-aqua-hexa-copper unknown solvate]"
_symmetry_cell_setting           tetragonal
_symmetry_space_group_name_H-M   'P 4/m m m'
_symmetry_Int_Tables_number      123
_space_group_name_Hall           '-P 4 2'
loop_
_symmetry_equiv_pos_site_id
_symmetry_equiv_pos_as_xyz
1 x,y,z
2 -y,x,z
3 -x,-y,z
4 y,-x,z
5 x,-y,-z
6 -x,y,-z
7 y,x,-z
8 -y,-x,-z
9 -x,-y,-z
10 y,-x,-z
11 x,y,-z
12 -y,x,-z
13 -x,y,z
14 x,-y,z
15 -y,-x,z
16 y,x,z
_cell_length_a                   30.2922(13)
_cell_length_b                   30.2922(13)
_cell_length_c                   29.597(3)
_cell_angle_alpha                90
_cell_angle_beta                 90
_cell_angle_gamma                90
_cell_volume                     27158.7
_exptl_crystal_colour            blue
_exptl_crystal_description       block
_cell_formula_units_Z            4
loop_
_atom_site_label
_atom_site_type_symbol
_atom_site_fract_x
_atom_site_fract_y
_atom_site_fract_z
_atom_site_U_iso_or_equiv
_atom_site_thermal_displace_type
Cu1 Cu 0.13000(4) 0.13000(4) 0.19565(6) 0.1129 Uani
Cu2 Cu 0.17510(4) 0.17510(4) 0.25716(6) 0.1155 Uani
Cu3 Cu 0.26058(8) 0.0000 0.0000 0.1137 Uani
Cu4 Cu 0.34824(8) 0.0000 0.0000 0.1122 Uani
O1 O 0.1876(2) 0.1241(2) 0.1654(2) 0.1350 Uani
O2 O 0.2259(2) 0.1638(3) 0.2193(2) 0.1507 Uani
O3 O 0.26617(17) 0.0448(2) 0.04503(19) 0.1233 Uani
O4 O 0.34249(19) 0.0464(2) 0.04678(18) 0.1220 Uani
O5 O 0.1433(2) 0.07966(19) 0.2342(2) 0.1337 Uani
O6 O 0.1831(2) 0.1188(2) 0.2851(2) 0.1373 Uani
O7 O 0.3377(4) 0.0000 0.5000 0.1747 Uani
O8 O 0.2144(3) 0.2144(3) 0.3038(4) 0.1900 Uiso
O9 O 0.0919(3) 0.0919(3) 0.1453(4) 0.1930 Uiso
O10 O 0.4204(5) 0.0000 0.0000 0.1790 Uiso
O11 O 0.1901(5) 0.0000 0.0000 0.1690 Uiso
C1 C 0.2205(2) 0.1393(3) 0.1874(4) 0.1060 Uani
C2 C 0.3026(3) 0.0531(3) 0.0573(2) 0.0833 Uani
C3 C 0.2631(4) 0.1290(4) 0.1592(3) 0.1337 Uani
C4 C 0.2645(3) 0.1005(3) 0.1182(4) 0.1207 Uani
C5 C 0.3036(2) 0.0902(3) 0.0962(3) 0.0997 Uani
C6 C 0.3427(4) 0.1088(4) 0.1132(4) 0.1387 Uani
C7 C 0.3424(4) 0.1419(4) 0.1499(4) 0.1450 Uani
C8 C 0.3024(4) 0.1482(4) 0.1705(4) 0.1603 Uani
C9 C 0.3854(4) 0.1604(5) 0.1652(5) 0.2150 Uiso
C10 C 0.4603(5) 0.2096(5) 0.1839(5) 0.2230 Uiso
C11 C 0.1698(3) 0.0832(2) 0.2660(3) 0.0887 Uani
C12 C 0.1686(4) 0.0000 0.2707(5) 0.1200 Uani
C13 C 0.1822(3) 0.0379(3) 0.2890(3) 0.1127 Uani
C14 C 0.2124(3) 0.0428(3) 0.3265(3) 0.1230 Uani
C15 C 0.2264(5) 0.0000 0.3445(3) 0.1357 Uani
C16 C 0.2587(4) 0.0000 0.3834(3) 0.1090 Uiso
C17 C 0.2510(4) -0.0316(4) 0.4188(5) 0.1280 Uiso
C18 C 0.2784(5) -0.0311(4) 0.4568(4) 0.1660 Uiso
C19 C 0.3124(4) 0.0000 0.4596(4) 0.1370 Uiso
C20 C 0.3196(5) 0.0296(4) 0.4255(6) 0.1810 Uiso
C21 C 0.2930(5) 0.0297(4) 0.3880(4) 0.1460 Uiso
C22 C 0.4268(7) 0.1399(5) 0.1668(6) 0.2470 Uiso
C23 C 0.4646(5) 0.1653(7) 0.1764(6) 0.1860 Uiso
C24 C 0.4205(8) 0.2309(5) 0.1828(7) 0.2500 Uiso
C25 C 0.3814(6) 0.2053(7) 0.1730(7) 0.2360 Uiso
O12 O 0.5000 0.2161(7) 0.2078(6) 0.2850 Uiso
O1L O 0.8124(2) 0.1241(2) 0.1654(2) 0.1350 Uani
O2L O 0.7741(2) 0.1638(3) 0.2193(2) 0.1507 Uani
O3L O 0.73383(17) 0.0448(2) 0.04503(19) 0.1233 Uani
O4L O 0.65751(19) 0.0464(2) 0.04678(18) 0.1220 Uani
C1L C 0.7795(2) 0.1393(3) 0.1874(4) 0.1060 Uani
C2L C 0.6974(3) 0.0531(3) 0.0573(2) 0.0833 Uani
C3L C 0.7369(4) 0.1290(4) 0.1592(3) 0.1337 Uani
C4L C 0.7355(3) 0.1005(3) 0.1182(4) 0.1207 Uani
C5L C 0.6964(2) 0.0902(3) 0.0962(3) 0.0997 Uani
C6L C 0.6573(4) 0.1088(4) 0.1132(4) 0.1387 Uani
C7L C 0.6576(4) 0.1419(4) 0.1499(4) 0.1450 Uani
C8L C 0.6976(4) 0.1482(4) 0.1705(4) 0.1603 Uani
C9L C 0.6146(4) 0.1604(5) 0.1652(5) 0.2150 Uiso
C10L C 0.5397(5) 0.2096(5) 0.1839(5) 0.2230 Uiso
C22L C 0.5732(7) 0.1399(5) 0.1668(6) 0.2470 Uiso
C23L C 0.5354(5) 0.1653(7) 0.1764(6) 0.1860 Uiso
C24L C 0.5795(8) 0.2309(5) 0.1828(7) 0.2500 Uiso
C25L C 0.6186(6) 0.2053(7) 0.1730(7) 0.2360 Uiso
O5D O 0.1433(2) -0.07966(19) 0.7658(2) 0.1337 Uani
O6D O 0.1831(2) -0.1188(2) 0.7149(2) 0.1373 Uani
C11D C 0.1698(3) -0.0832(2) 0.7340(3) 0.0887 Uani
C12D C 0.1686(4) 0.0000 0.7293(5) 0.1200 Uani
C13D C 0.1822(3) -0.0379(3) 0.7110(3) 0.1127 Uani
C14D C 0.2124(3) -0.0428(3) 0.6735(3) 0.1230 Uani
C15D C 0.2264(5) 0.0000 0.6555(3) 0.1357 Uani
C16D C 0.2587(4) 0.0000 0.6166(3) 0.1090 Uiso
C17D C 0.2510(4) 0.0316(4) 0.5812(5) 0.1280 Uiso
C18D C 0.2784(5) 0.0311(4) 0.5432(4) 0.1660 Uiso
C19D C 0.3124(4) 0.0000 0.5404(4) 0.1370 Uiso
C20D C 0.3196(5) -0.0296(4) 0.5745(6) 0.1810 Uiso
C21D C 0.2930(5) -0.0297(4) 0.6120(4) 0.1460 Uiso
O5J O 0.1433(2) 0.07966(19) 0.7658(2) 0.1337 Uani
O6J O 0.1831(2) 0.1188(2) 0.7149(2) 0.1373 Uani
C11J C 0.1698(3) 0.0832(2) 0.7340(3) 0.0887 Uani
C13J C 0.1822(3) 0.0379(3) 0.7110(3) 0.1127 Uani
C14J C 0.2124(3) 0.0428(3) 0.6735(3) 0.1230 Uani
C17J C 0.2510(4) -0.0316(4) 0.5812(5) 0.1280 Uiso
C18J C 0.2784(5) -0.0311(4) 0.5432(4) 0.1660 Uiso
C20J C 0.3196(5) 0.0296(4) 0.5745(6) 0.1810 Uiso
C21J C 0.2930(5) 0.0297(4) 0.6120(4) 0.1460 Uiso
O5M O 0.1433(2) -0.07966(19) 0.2342(2) 0.1337 Uani
O6M O 0.1831(2) -0.1188(2) 0.2851(2) 0.1373 Uani
C11M C 0.1698(3) -0.0832(2) 0.2660(3) 0.0887 Uani
C13M C 0.1822(3) -0.0379(3) 0.2890(3) 0.1127 Uani
C14M C 0.2124(3) -0.0428(3) 0.3265(3) 0.1230 Uani
C17M C 0.2510(4) 0.0316(4) 0.4188(5) 0.1280 Uiso
C18M C 0.2784(5) 0.0311(4) 0.4568(4) 0.1660 Uiso
C20M C 0.3196(5) -0.0296(4) 0.4255(6) 0.1810 Uiso
C21M C 0.2930(5) -0.0297(4) 0.3880(4) 0.1460 Uiso
O1B O 0.8124(2) -0.1241(2) 0.1654(2) 0.1350 Uani
O2B O 0.7741(2) -0.1638(3) 0.2193(2) 0.1507 Uani
O3B O 0.73383(17) -0.0448(2) 0.04503(19) 0.1233 Uani
O4B O 0.65751(19) -0.0464(2) 0.04678(18) 0.1220 Uani
C1B C 0.7795(2) -0.1393(3) 0.1874(4) 0.1060 Uani
C2B C 0.6974(3) -0.0531(3) 0.0573(2) 0.0833 Uani
C3B C 0.7369(4) -0.1290(4) 0.1592(3) 0.1337 Uani
C4B C 0.7355(3) -0.1005(3) 0.1182(4) 0.1207 Uani
C5B C 0.6964(2) -0.0902(3) 0.0962(3) 0.0997 Uani
C6B C 0.6573(4) -0.1088(4) 0.1132(4) 0.1387 Uani
C7B C 0.6576(4) -0.1419(4) 0.1499(4) 0.1450 Uani
C8B C 0.6976(4) -0.1482(4) 0.1705(4) 0.1603 Uani
C9B C 0.6146(4) -0.1604(5) 0.1652(5) 0.2150 Uiso
C10B C 0.5397(5) -0.2096(5) 0.1839(5) 0.2230 Uiso
C22B C 0.5732(7) -0.1399(5) 0.1668(6) 0.2470 Uiso
C23B C 0.5354(5) -0.1653(7) 0.1764(6) 0.1860 Uiso
C24B C 0.5795(8) -0.2309(5) 0.1828(7) 0.2500 Uiso
C25B C 0.6186(6) -0.2053(7) 0.1730(7) 0.2360 Uiso
O12B O 0.5000 -0.2161(7) 0.2078(6) 0.2850 Uiso
O1M O 0.1876(2) -0.1241(2) 0.1654(2) 0.1350 Uani
O2M O 0.2259(2) -0.1638(3) 0.2193(2) 0.1507 Uani
O3M O 0.26617(17) -0.0448(2) 0.04503(19) 0.1233 Uani
O4M O 0.34249(19) -0.0464(2) 0.04678(18) 0.1220 Uani
C1M C 0.2205(2) -0.1393(3) 0.1874(4) 0.1060 Uani
C2M C 0.3026(3) -0.0531(3) 0.0573(2) 0.0833 Uani
C3M C 0.2631(4) -0.1290(4) 0.1592(3) 0.1337 Uani
C4M C 0.2645(3) -0.1005(3) 0.1182(4) 0.1207 Uani
C5M C 0.3036(2) -0.0902(3) 0.0962(3) 0.0997 Uani
C6M C 0.3427(4) -0.1088(4) 0.1132(4) 0.1387 Uani
C7M C 0.3424(4) -0.1419(4) 0.1499(4) 0.1450 Uani
C8M C 0.3024(4) -0.1482(4) 0.1705(4) 0.1603 Uani
C9M C 0.3854(4) -0.1604(5) 0.1652(5) 0.2150 Uiso
C10M C 0.4603(5) -0.2096(5) 0.1839(5) 0.2230 Uiso
C22M C 0.4268(7) -0.1399(5) 0.1668(6) 0.2470 Uiso
C23M C 0.4646(5) -0.1653(7) 0.1764(6) 0.1860 Uiso
C24M C 0.4205(8) -0.2309(5) 0.1828(7) 0.2500 Uiso
C25M C 0.3814(6) -0.2053(7) 0.1730(7) 0.2360 Uiso
Cu1A Cu 0.87000(4) 0.13000(4) 0.19565(6) 0.1129 Uani
O9A O 0.9081(3) 0.0919(3) 0.1453(4) 0.1930 Uiso
Cu2A Cu 0.82490(4) 0.17510(4) 0.25716(6) 0.1155 Uani
O8A O 0.7856(3) 0.2144(3) 0.3038(4) 0.1900 Uiso
Cu1B Cu 0.87000(4) -0.13000(4) 0.19565(6) 0.1129 Uani
Cu1C Cu 0.13000(4) -0.13000(4) 0.19565(6) 0.1129 Uani
Cu1D Cu 0.13000(4) -0.13000(4) 0.80435(6) 0.1129 Uani
Cu1F Cu 0.13000(4) 0.13000(4) 0.80435(6) 0.1129 Uani
Cu2B Cu 0.82490(4) -0.17510(4) 0.25716(6) 0.1155 Uani
Cu2C Cu 0.17510(4) -0.17510(4) 0.25716(6) 0.1155 Uani
Cu2D Cu 0.17510(4) -0.17510(4) 0.74284(6) 0.1155 Uani
Cu2F Cu 0.17510(4) 0.17510(4) 0.74284(6) 0.1155 Uani
Cu3B Cu 0.73942(8) 0.0000 0.0000 0.1137 Uani
Cu4B Cu 0.65176(8) 0.0000 0.0000 0.1122 Uani
O1A O 0.8759(2) 0.1876(2) 0.1654(2) 0.1350 Uani
O1O O 0.1241(2) 0.1876(2) 0.1654(2) 0.1350 Uani
O2A O 0.8362(3) 0.2259(2) 0.2193(2) 0.1507 Uani
O2O O 0.1638(3) 0.2259(2) 0.2193(2) 0.1507 Uani
O3D O 0.26617(17) -0.0448(2) -0.04503(19) 0.1233 Uani
O3J O 0.26617(17) 0.0448(2) -0.04503(19) 0.1233 Uani
O4D O 0.34249(19) -0.0464(2) -0.04678(18) 0.1220 Uani
O4J O 0.34249(19) 0.0464(2) -0.04678(18) 0.1220 Uani
O5A O 0.92034(19) 0.1433(2) 0.2342(2) 0.1337 Uani
O5L O 0.8567(2) 0.07966(19) 0.2342(2) 0.1337 Uani
O5O O 0.07966(19) 0.1433(2) 0.2342(2) 0.1337 Uani
O6A O 0.8812(2) 0.1831(2) 0.2851(2) 0.1373 Uani
O6L O 0.8169(2) 0.1188(2) 0.2851(2) 0.1373 Uani
O6O O 0.1188(2) 0.1831(2) 0.2851(2) 0.1373 Uani
C26? C 0.4100(6) 0.1772(6) 0.1298(5) 0.1950 Uiso
C27? C 0.4354(7) 0.1925(6) 0.2191(5) 0.2340 Uiso
C28? C 0.3974(6) 0.1678(6) 0.2095(5) 0.1560 Uiso
C29? C 0.4487(6) 0.2026(6) 0.1387(6) 0.2530 Uiso
loop_
_atom_site_aniso_label
_atom_site_aniso_U_11
_atom_site_aniso_U_22
_atom_site_aniso_U_33
_atom_site_aniso_U_23
_atom_site_aniso_U_13
_atom_site_aniso_U_12
Cu1 0.1054(10) 0.1054(10) 0.1280(13) -0.0134(7) -0.0134(7) -0.0035(10)
Cu2 0.1070(10) 0.1070(10) 0.1324(14) -0.0141(8) -0.0141(8) 0.0010(10)
Cu3 0.0877(18) 0.130(2) 0.1235(18) 0.000 0.000 0.000
Cu4 0.0840(17) 0.137(2) 0.1157(17) 0.000 0.000 0.000
O1 0.148(6) 0.116(5) 0.141(5) -0.024(4) -0.014(4) -0.002(4)
O2 0.121(6) 0.161(6) 0.170(6) -0.017(5) -0.064(5) -0.061(5)
O3 0.039(3) 0.192(6) 0.139(4) 0.020(4) 0.001(3) 0.027(3)
O4 0.073(4) 0.166(6) 0.127(4) 0.027(4) -0.005(3) -0.008(4)
O5 0.146(5) 0.110(5) 0.145(5) -0.014(4) -0.008(4) -0.048(4)
O6 0.153(6) 0.120(5) 0.139(5) -0.047(4) -0.020(4) -0.009(4)
O7 0.108(10) 0.291(19) 0.125(9) 0.000 0.000 0.000
C1 0.009(4) 0.094(6) 0.215(10) -0.004(6) -0.027(5) -0.017(4)
C2 0.060(4) 0.103(4) 0.087(4) -0.001(3) 0.004(3) 0.012(3)
C3 0.097(8) 0.148(9) 0.156(8) -0.021(7) -0.046(7) -0.037(7)
C4 0.082(7) 0.086(6) 0.194(9) -0.020(6) -0.022(6) -0.021(5)
C5 0.016(4) 0.116(7) 0.167(7) 0.020(6) 0.001(5) 0.002(4)
C6 0.111(9) 0.152(9) 0.153(8) -0.012(7) -0.008(6) 0.038(7)
C7 0.104(9) 0.190(11) 0.141(8) -0.029(8) -0.016(7) -0.009(7)
C8 0.115(10) 0.155(10) 0.211(11) -0.053(8) 0.029(9) 0.035(8)
C11 0.106(6) 0.052(5) 0.108(6) -0.016(4) -0.033(5) -0.008(4)
C12 0.132(11) 0.005(5) 0.223(14) 0.000 0.016(9) 0.000
C13 0.123(7) 0.102(7) 0.113(6) 0.027(6) 0.034(6) 0.056(6)
C14 0.105(7) 0.148(9) 0.116(6) 0.045(6) -0.010(6) 0.030(6)
C15 0.150(12) 0.193(16) 0.064(6) 0.000 -0.015(7) 0.000
O1L 0.148 0.116 0.141 -0.024 0.014 0.002
O2L 0.121 0.161 0.17 -0.017 0.064 0.061
O3L 0.039 0.192 0.139 0.02 -0.001 -0.027
O4L 0.073 0.166 0.127 0.027 0.005 0.008
C1L 0.009 0.094 0.215 -0.004 0.027 0.017
C2L 0.06 0.103 0.087 -0.001 -0.004 -0.012
C3L 0.097 0.148 0.156 -0.021 0.046 0.037
C4L 0.082 0.086 0.194 -0.02 0.022 0.021
C5L 0.016 0.116 0.167 0.02 -0.001 -0.002
C6L 0.111 0.152 0.153 -0.012 0.008 -0.038
C7L 0.104 0.19 0.141 -0.029 0.016 0.009
C8L 0.115 0.155 0.211 -0.053 -0.029 -0.035
O5D 0.146 0.11 0.145 -0.014 0.008 0.048
O6D 0.153 0.12 0.139 -0.047 0.02 0.009
C11D 0.106 0.052 0.108 -0.016 0.033 0.008
C12D 0.132 0.005 0.223 0 -0.016 0
C13D 0.123 0.102 0.113 0.027 -0.034 -0.056
C14D 0.105 0.148 0.116 0.045 0.01 -0.03
C15D 0.15 0.193 0.064 0 0.015 0
O5J 0.146 0.11 0.145 0.014 0.008 -0.048
O6J 0.153 0.12 0.139 0.047 0.02 -0.009
C11J 0.106 0.052 0.108 0.016 0.033 -0.008
C13J 0.123 0.102 0.113 -0.027 -0.034 0.056
C14J 0.105 0.148 0.116 -0.045 0.01 0.03
O5M 0.146 0.11 0.145 0.014 -0.008 0.048
O6M 0.153 0.12 0.139 0.047 -0.02 0.009
C11M 0.106 0.052 0.108 0.016 -0.033 0.008
C13M 0.123 0.102 0.113 -0.027 0.034 -0.056
C14M 0.105 0.148 0.116 -0.045 -0.01 -0.03
O1B 0.148 0.116 0.141 0.024 0.014 -0.002
O2B 0.121 0.161 0.17 0.017 0.064 -0.061
O3B 0.039 0.192 0.139 -0.02 -0.001 0.027
O4B 0.073 0.166 0.127 -0.027 0.005 -0.008
C1B 0.009 0.094 0.215 0.004 0.027 -0.017
C2B 0.06 0.103 0.087 0.001 -0.004 0.012
C3B 0.097 0.148 0.156 0.021 0.046 -0.037
C4B 0.082 0.086 0.194 0.02 0.022 -0.021
C5B 0.016 0.116 0.167 -0.02 -0.001 0.002
C6B 0.111 0.152 0.153 0.012 0.008 0.038
C7B 0.104 0.19 0.141 0.029 0.016 -0.009
C8B 0.115 0.155 0.211 0.053 -0.029 0.035
O1M 0.148 0.116 0.141 0.024 -0.014 0.002
O2M 0.121 0.161 0.17 0.017 -0.064 0.061
O3M 0.039 0.192 0.139 -0.02 0.001 -0.027
O4M 0.073 0.166 0.127 -0.027 -0.005 0.008
C1M 0.009 0.094 0.215 0.004 -0.027 0.017
C2M 0.06 0.103 0.087 0.001 0.004 -0.012
C3M 0.097 0.148 0.156 0.021 -0.046 0.037
C4M 0.082 0.086 0.194 0.02 -0.022 0.021
C5M 0.016 0.116 0.167 -0.02 0.001 -0.002
C6M 0.111 0.152 0.153 0.012 -0.008 -0.038
C7M 0.104 0.19 0.141 0.029 -0.016 0.009
C8M 0.115 0.155 0.211 0.053 0.029 -0.035
Cu1A 0.1054 0.1054 0.128 -0.0134 0.0134 0.0035
Cu2A 0.107 0.107 0.1324 -0.0141 0.0141 -0.001
Cu1B 0.1054 0.1054 0.128 0.0134 0.0134 -0.0035
Cu1C 0.1054 0.1054 0.128 0.0134 -0.0134 0.0035
Cu1D 0.1054 0.1054 0.128 -0.0134 0.0134 0.0035
Cu1F 0.1054 0.1054 0.128 0.0134 0.0134 -0.0035
Cu2B 0.107 0.107 0.1324 0.0141 0.0141 0.001
Cu2C 0.107 0.107 0.1324 0.0141 -0.0141 -0.001
Cu2D 0.107 0.107 0.1324 -0.0141 0.0141 -0.001
Cu2F 0.107 0.107 0.1324 0.0141 0.0141 0.001
Cu3B 0.0877 0.13 0.1235 0 0 0
Cu4B 0.084 0.137 0.1157 0 0 0
O1A 0.116 0.148 0.141 -0.014 0.024 0.002
O1O 0.116 0.148 0.141 -0.014 -0.024 -0.002
O2A 0.161 0.121 0.17 -0.064 0.017 0.061
O2O 0.161 0.121 0.17 -0.064 -0.017 -0.061
O3D 0.039 0.192 0.139 0.02 -0.001 -0.027
O3J 0.039 0.192 0.139 -0.02 -0.001 0.027
O4D 0.073 0.166 0.127 0.027 0.005 0.008
O4J 0.073 0.166 0.127 -0.027 0.005 -0.008
O5A 0.11 0.146 0.145 -0.008 0.014 0.048
O5L 0.146 0.11 0.145 -0.014 0.008 0.048
O5O 0.11 0.146 0.145 -0.008 -0.014 -0.048
O6A 0.12 0.153 0.139 -0.02 0.047 0.009
O6L 0.153 0.12 0.139 -0.047 0.02 0.009
O6O 0.12 0.153 0.139 -0.02 -0.047 -0.009
loop_
_geom_bond_atom_site_label_1
_geom_bond_atom_site_label_2
_geom_bond_site_symmetry_1
_geom_bond_site_symmetry_2
Cu1 O1 1_555 1_555
Cu2 O2 1_555 1_555
Cu3 O3 1_555 1_555
Cu4 O4 1_555 1_555
O1 C1 1_555 1_555
O2 C1 1_555 1_555
O3 C2 1_555 1_555
O4 C2 1_555 1_555
O5 Cu1 1_555 1_555
O6 Cu2 1_555 1_555
O7 C19 1_555 1_555
O8 Cu2 1_555 1_555
O9 Cu1 1_555 1_555
O10 Cu4 1_555 1_555
O11 Cu3 1_555 1_555
C1 C3 1_555 1_555
C2 C5 1_555 1_555
C3 C4 1_555 1_555
C4 C5 1_555 1_555
C5 C6 1_555 1_555
C6 C7 1_555 1_555
C7 C8 1_555 1_555
C8 C3 1_555 1_555
C9 C7 1_555 1_555
C10 C23 1_555 1_555
C11 O5 1_555 1_555
C12 C13 1_555 1_555
C13 C11 1_555 1_555
C14 C13 1_555 1_555
C15 C14 1_555 1_555
C16 C15 1_555 1_555
C17 C16 1_555 1_555
C18 C17 1_555 1_555
C19 C18 1_555 1_555
C20 C19 1_555 1_555
C21 C16 1_555 1_555
C22 C9 1_555 1_555
C23 C22 1_555 1_555
C24 C10 1_555 1_555
C25 C9 1_555 1_555
O12 C10 1_555 1_555
O1L C1L 1_555 1_555
O2L C1L 1_555 1_555
O3L C2L 1_555 1_555
O4L C2L 1_555 1_555
C1L C3L 1_555 1_555
C2L C5L 1_555 1_555
C3L C4L 1_555 1_555
C4L C5L 1_555 1_555
C5L C6L 1_555 1_555
C6L C7L 1_555 1_555
C7L C8L 1_555 1_555
C8L C3L 1_555 1_555
C9L C7L 1_555 1_555
C10L O12 1_555 1_555
C22L C9L 1_555 1_555
C23L C10L 1_555 1_555
C24L C10L 1_555 1_555
C25L C9L 1_555 1_555
O5D C11D 1_555 1_555
O6D C11D 1_555 1_555
C11D C13D 1_555 1_555
C12D C13D 1_555 1_555
C13D C14D 1_555 1_555
C14D C15D 1_555 1_555
C15D C16D 1_555 1_555
C16D C17D 1_555 1_555
C17D C18D 1_555 1_555
C18D C19D 1_555 1_555
C19D O7 1_555 1_555
C20D C19D 1_555 1_555
C21D C16D 1_555 1_555
O5J C11J 1_555 1_555
O6J C11J 1_555 1_555
C11J C13J 1_555 1_555
C13J C12D 1_555 1_555
C14J C15D 1_555 1_555
C17J C16D 1_555 1_555
C18J C19D 1_555 1_555
C20J C18D 1_555 1_555
C21J C16D 1_555 1_555
O5M C11M 1_555 1_555
O6M C11M 1_555 1_555
C11M C13M 1_555 1_555
C13M C12 1_555 1_555
C14M C15 1_555 1_555
C17M C16 1_555 1_555
C18M C19 1_555 1_555
C20M C18 1_555 1_555
C21M C16 1_555 1_555
O1B C1B 1_555 1_555
O2B C1B 1_555 1_555
O3B C2B 1_555 1_555
O4B C2B 1_555 1_555
C1B C3B 1_555 1_555
C2B C5B 1_555 1_555
C3B C4B 1_555 1_555
C4B C5B 1_555 1_555
C5B C6B 1_555 1_555
C6B C7B 1_555 1_555
C7B C8B 1_555 1_555
C8B C3B 1_555 1_555
C9B C7B 1_555 1_555
C10B C23B 1_555 1_555
C22B C9B 1_555 1_555
C23B C22B 1_555 1_555
C24B C10B 1_555 1_555
C25B C9B 1_555 1_555
O12B C10B 1_555 1_555
O1M C1M 1_555 1_555
O2M C1M 1_555 1_555
O3M Cu3 1_555 1_555
O4M Cu4 1_555 1_555
C1M C3M 1_555 1_555
C2M O3M 1_555 1_555
C3M C4M 1_555 1_555
C4M C5M 1_555 1_555
C5M C2M 1_555 1_555
C6M C5M 1_555 1_555
C7M C6M 1_555 1_555
C8M C3M 1_555 1_555
C9M C7M 1_555 1_555
C10M O12B 1_555 1_555
C22M C9M 1_555 1_555
C23M C10M 1_555 1_555
C24M C10M 1_555 1_555
C25M C9M 1_555 1_555
Cu1A O1L 1_555 1_555
O9A Cu1A 1_555 1_555
Cu2A O2L 1_555 1_555
O8A Cu2A 1_555 1_555
Cu1B O1B 1_555 1_555
Cu1C O5M 1_555 1_555
Cu1D O5D 1_555 1_555
Cu1F O5J 1_555 1_555
Cu2B O2B 1_555 1_555
Cu2C O6M 1_555 1_555
Cu2D O6D 1_555 1_555
Cu2F O6J 1_555 1_555
Cu3B O3L 1_555 1_555
Cu4B O4L 1_555 1_555
O1A Cu1A 1_555 1_555
O1O Cu1 1_555 1_555
O2A Cu2A 1_555 1_555
O2O Cu2 1_555 1_555
O3D Cu3 1_555 1_555
O3J Cu3 1_555 1_555
O4D Cu4 1_555 1_555
O4J Cu4 1_555 1_555
O5A Cu1A 1_555 1_555
O5L Cu1A 1_555 1_555
O5O Cu1 1_555 1_555
O6A Cu2A 1_555 1_555
O6L Cu2A 1_555 1_555
O6O Cu2 1_555 1_555
O6 C11 1_555 1_555
C17 C21M 1_555 1_555
C19 C20M 1_555 1_555
C20 C21 1_555 1_555
C20 C18M 1_555 1_555
C20 C20M 1_555 1_555
C21 C17M 1_555 1_555
C21 C21M 1_555 1_555
C24 C25 1_555 1_555
C22L C23L 1_555 1_555
C24L C25L 1_555 1_555
C17D C21J 1_555 1_555
C19D C20J 1_555 1_555
C20D C21D 1_555 1_555
C20D C18J 1_555 1_555
C20D C20J 1_555 1_555
C21D C17J 1_555 1_555
C21D C21J 1_555 1_555
C13J C14J 1_555 1_555
C17J C18J 1_555 1_555
C20J C21J 1_555 1_555
C13M C14M 1_555 1_555
C17M C18M 1_555 1_555
C20M C21M 1_555 1_555
O3B Cu3B 1_555 1_555
O4B Cu4B 1_555 1_555
C24B C25B 1_555 1_555
O1M Cu1C 1_555 1_555
O2M Cu2C 1_555 1_555
O4M C2M 1_555 1_555
C7M C8M 1_555 1_555
C22M C23M 1_555 1_555
C24M C25M 1_555 1_555

#END
