
#######################################################################
#
#                 Cambridge Crystallographic Data Centre
#                                CCDC 
#
#######################################################################
#
# If this CIF has been generated from an entry in the Cambridge 
# Structural Database, then it will include bibliographic, chemical, 
# crystal, experimental, refinement or atomic coordinate data resulting 
# from the CCDC's data processing and validation procedures.
#
#######################################################################

data_RUBDUP
_chemical_formula_moiety         '(C102 H46 O14 Zn3)n'
_chemical_name_systematic        
'catena-(bis(\m~6~-Heptacyclo[37.3.1.1^4,8^.1^11,15^.1^18,22^.1^25,29^.1^32,36^]octatetraconta-1(43),4(48),5,7,11(47),12,14,18(46),19,21,25(45),26,28,32(44),33,35,39,41-octadecaene-2,9,16,23,30,37-hexayne-6,20,34-tricarboxylato)-diaqua-tri-zinc unknown solvate)'
_symmetry_cell_setting           cubic
_symmetry_space_group_name_H-M   'P 41 3 2'
_symmetry_Int_Tables_number      213
_space_group_name_Hall           'P 4bd 2ab 3'
loop_
_symmetry_equiv_pos_site_id
_symmetry_equiv_pos_as_xyz
1 x,y,z
2 1/2-x,-y,1/2+z
3 -x,1/2+y,1/2-z
4 1/2+x,1/2-y,-z
5 z,x,y
6 1/2+z,1/2-x,-y
7 1/2-z,-x,1/2+y
8 -z,1/2+x,1/2-y
9 y,z,x
10 -y,1/2+z,1/2-x
11 1/2+y,1/2-z,-x
12 1/2-y,-z,1/2+x
13 3/4+y,1/4+x,1/4-z
14 3/4-y,3/4-x,3/4-z
15 1/4+y,1/4-x,3/4+z
16 1/4-y,3/4+x,1/4+z
17 3/4+x,1/4+z,1/4-y
18 1/4-x,3/4+z,1/4+y
19 3/4-x,3/4-z,3/4-y
20 1/4+x,1/4-z,3/4+y
21 3/4+z,1/4+y,1/4-x
22 1/4+z,1/4-y,3/4+x
23 1/4-z,3/4+y,1/4+x
24 3/4-z,3/4-y,3/4-x
_cell_length_a                   33.261(4)
_cell_length_b                   33.261(4)
_cell_length_c                   33.261(4)
_cell_angle_alpha                90
_cell_angle_beta                 90
_cell_angle_gamma                90
_cell_volume                     36796.4
_exptl_crystal_colour            yellow
_exptl_crystal_description       Cube
_cell_formula_units_Z            4
_chemical_properties_physical    Moisture-sensitive
loop_
_atom_site_label
_atom_site_type_symbol
_atom_site_fract_x
_atom_site_fract_y
_atom_site_fract_z
Zn1 Zn 0.3750 0.6250 1.1250
Zn2 Zn 0.43692(3) 0.56308(3) 1.06308(3)
O1 O 0.37364(16) 0.62649(17) 1.06079(16)
O2 O 0.3944(2) 0.5744(2) 1.0263(2)
O3 O 0.47224(16) 0.52776(16) 1.02776(16)
C1 C 0.3184(2) 0.6514(2) 1.00701(18)
H1 H 0.3221 0.6679 1.0293
C2 C 0.34127(18) 0.6167(2) 1.0028(2)
C3 C 0.3358(2) 0.59201(19) 0.9695(3)
H2 H 0.3511 0.5688 0.9667
C4 C 0.3075(2) 0.6021(3) 0.9404(2)
C5 C 0.2847(2) 0.6368(3) 0.9446(2)
H3 H 0.2658 0.6436 0.9252
C6 C 0.2902(2) 0.6615(2) 0.9779(3)
C7 C 0.3737(3) 0.6022(4) 1.0317(4)
C8 C 0.2634(4) 0.6926(4) 0.9837(3)
C9 C 0.2401(3) 0.7197(4) 0.9858(4)
C10 C 0.1756(8) 0.7531(6) 0.9689(4)
H4 H 0.1726 0.7378 0.9457
C11 C 0.1491(4) 0.7844(8) 0.9769(7)
C12 C 0.1536(6) 0.8072(3) 1.0117(9)
H5 H 0.1359 0.8282 1.0170
C13 C 0.1846(8) 0.7987(7) 1.0384(4)
H6 H 0.1876 0.8140 1.0616
C14 C 0.2111(4) 0.7674(8) 1.0304(7)
H7 H 0.2318 0.7617 1.0483
C15 C 0.2066(5) 0.7446(4) 0.9957(9)
C16 C 0.2996(6) 0.5533(5) 0.8778(5)
C17 C 0.3031(5) 0.5761(5) 0.9048(4)
O1G O -0.06079(16) 0.87364(16) 0.87351(17)
O2G O -0.0263(2) 0.8944(2) 0.9256(2)
C1G C -0.00701(18) 0.8184(2) 0.8486(2)
H1G H -0.0293 0.8221 0.8321
C2G C -0.0028(2) 0.84127(18) 0.8833(2)
C3G C 0.0305(3) 0.8358(2) 0.90799(19)
H2G H 0.0333 0.8511 0.9312
C4G C 0.0596(2) 0.8075(2) 0.8979(3)
C5G C 0.0554(2) 0.7847(2) 0.8632(3)
H3G H 0.0748 0.7658 0.8564
C6G C 0.0221(3) 0.7902(2) 0.8385(2)
C7G C -0.0317(4) 0.8737(3) 0.8978(4)
C8G C 0.0163(3) 0.7634(4) 0.8074(4)
C9G C 0.0142(4) 0.7401(3) 0.7803(4)
C10G C 0.0311(4) 0.6756(8) 0.7469(6)
H4G H 0.0543 0.6726 0.7622
C11G C 0.0231(7) 0.6491(4) 0.7156(8)
C12G C -0.0117(9) 0.6536(6) 0.6928(3)
H5G H -0.0170 0.6359 0.6718
C13G C -0.0384(4) 0.6846(8) 0.7013(7)
H6G H -0.0616 0.6876 0.6860
C14G C -0.0304(7) 0.7111(4) 0.7326(8)
H7G H -0.0483 0.7318 0.7383
C15G C 0.0043(9) 0.7066(5) 0.7554(4)
C16G C 0.1222(5) 0.7996(6) 0.9467(5)
C17G C 0.0952(4) 0.8031(5) 0.9239(5)
O1J O 0.12649(17) 0.43921(16) 0.62636(16)
O2J O 0.0744(2) 0.4737(2) 0.6056(2)
C1J C 0.1514(2) 0.49299(18) 0.6816(2)
H1J H 0.1679 0.4707 0.6779
C2J C 0.1167(2) 0.4972(2) 0.65873(18)
C3J C 0.09201(19) 0.5305(3) 0.6642(2)
H2J H 0.0688 0.5333 0.6489
C4J C 0.1021(3) 0.5596(2) 0.6925(2)
C5J C 0.1368(3) 0.5554(2) 0.7153(2)
H3J H 0.1436 0.5748 0.7342
C6J C 0.1615(2) 0.5221(3) 0.7098(2)
C7J C 0.1022(4) 0.4683(4) 0.6263(3)
C8J C 0.1926(4) 0.5163(3) 0.7366(4)
C9J C 0.2197(4) 0.5142(4) 0.7599(3)
C10J C 0.2531(6) 0.5311(4) 0.8244(8)
H4J H 0.2378 0.5543 0.8274
C11J C 0.2844(8) 0.5231(7) 0.8509(4)
C12J C 0.3072(3) 0.4883(9) 0.8464(6)
H5J H 0.3282 0.4830 0.8641
C13J C 0.2987(7) 0.4616(4) 0.8154(8)
H6J H 0.3140 0.4384 0.8124
C14J C 0.2674(8) 0.4696(7) 0.7889(4)
H7J H 0.2617 0.4517 0.7682
C15J C 0.2446(4) 0.5043(9) 0.7934(5)
C16J C 0.0533(5) 0.6222(5) 0.7004(6)
C17J C 0.0761(5) 0.5952(4) 0.6969(5)
Zn2L Zn 0.31308(3) 0.68692(3) 1.18692(3)
O3L O 0.27776(16) 0.72224(16) 1.22224(16)
O1U O 0.31079(16) 0.62351(17) 1.12364(16)
O2U O 0.2763(2) 0.6756(2) 1.1444(2)
C1U C 0.25701(18) 0.5986(2) 1.0684(2)
H1U H 0.2793 0.5821 1.0721
C2U C 0.2528(2) 0.6333(2) 1.09127(18)
C3U C 0.2195(3) 0.65799(19) 1.0858(2)
H2U H 0.2167 0.6812 1.1011
C4U C 0.1904(2) 0.6479(3) 1.0575(2)
C5U C 0.1946(2) 0.6132(3) 1.0347(2)
H3U H 0.1752 0.6064 1.0158
C6U C 0.2279(3) 0.5885(2) 1.0402(2)
C7U C 0.2817(4) 0.6478(4) 1.1237(3)
C8U C 0.2337(3) 0.5574(4) 1.0134(4)
C9U C 0.2358(4) 0.5303(4) 0.9901(3)
C10U C 0.2189(4) 0.4969(6) 0.9256(8)
H4U H 0.1957 0.5122 0.9226
C11U C 0.2269(7) 0.4656(8) 0.8991(4)
C12U C 0.2617(9) 0.4428(3) 0.9036(6)
H5U H 0.2670 0.4218 0.8859
C13U C 0.2884(4) 0.4513(7) 0.9346(8)
H6U H 0.3116 0.4360 0.9376
C14U C 0.2804(7) 0.4826(8) 0.9611(4)
H7U H 0.2983 0.4883 0.9818
C15U C 0.2457(9) 0.5054(4) 0.9566(5)
C16U C 0.1278(5) 0.6967(5) 1.0496(6)
C17U C 0.1548(4) 0.6739(5) 1.0531(5)
O1M O 0.12351(17) 0.37636(16) 0.68921(16)
O2M O 0.1756(2) 0.3556(2) 0.7237(2)
C1M C 0.0986(2) 0.4316(2) 0.74299(18)
H1M H 0.0821 0.4279 0.7207
C2M C 0.1333(2) 0.40873(18) 0.7472(2)
C3M C 0.15799(19) 0.4142(2) 0.7805(3)
H2M H 0.1812 0.3989 0.7833
C4M C 0.1479(3) 0.4425(2) 0.8096(2)
C5M C 0.1132(3) 0.4653(2) 0.8054(2)
H3M H 0.1064 0.4842 0.8248
C6M C 0.0885(2) 0.4598(2) 0.7721(3)
C7M C 0.1478(4) 0.3763(3) 0.7183(4)
C8M C 0.0574(4) 0.4866(4) 0.7663(3)
C9M C 0.0303(4) 0.5099(3) 0.7642(4)
C10M C -0.0031(6) 0.5744(8) 0.7811(4)
H4M H 0.0122 0.5774 0.8043
C11M C -0.0344(8) 0.6009(4) 0.7731(7)
C12M C -0.0572(3) 0.5964(6) 0.7383(9)
H5M H -0.0782 0.6141 0.7330
C13M C -0.0487(7) 0.5654(8) 0.7116(4)
H6M H -0.0640 0.5624 0.6884
C14M C -0.0174(8) 0.5389(4) 0.7196(7)
H7M H -0.0117 0.5182 0.7017
C15M C 0.0054(4) 0.5434(5) 0.7543(9)
C16M C 0.1967(5) 0.4504(6) 0.8722(5)
C17M C 0.1739(5) 0.4469(5) 0.8452(4)
O1Q O -0.12364(16) 0.81079(16) 0.87649(17)
O2Q O -0.1444(2) 0.7763(2) 0.8244(2)
C1Q C -0.0684(2) 0.75701(18) 0.9014(2)
H1Q H -0.0721 0.7793 0.9179
C2Q C -0.09127(18) 0.7528(2) 0.8667(2)
C3Q C -0.0858(2) 0.7195(3) 0.84201(19)
H2Q H -0.1011 0.7167 0.8188
C4Q C -0.0575(2) 0.6904(2) 0.8521(3)
C5Q C -0.0347(2) 0.6946(2) 0.8868(3)
H3Q H -0.0158 0.6752 0.8936
C6Q C -0.0402(2) 0.7279(3) 0.9115(2)
C7Q C -0.1237(3) 0.7817(4) 0.8522(4)
C8Q C -0.0134(4) 0.7337(3) 0.9426(4)
C9Q C 0.0099(3) 0.7358(4) 0.9697(4)
C10Q C 0.0744(8) 0.7189(4) 1.0031(6)
H4Q H 0.0774 0.6957 0.9878
C11Q C 0.1009(4) 0.7269(7) 1.0344(8)
C12Q C 0.0964(6) 0.7617(9) 1.0572(3)
H5Q H 0.1141 0.7670 1.0782
C13Q C 0.0654(8) 0.7884(4) 1.0487(7)
H6Q H 0.0624 0.8116 1.0640
C14Q C 0.0389(4) 0.7804(7) 1.0174(8)
H7Q H 0.0182 0.7983 1.0117
C15Q C 0.0434(5) 0.7457(9) 0.9946(4)
C16Q C -0.0496(6) 0.6278(5) 0.8033(5)
C17Q C -0.0531(5) 0.6548(4) 0.8261(5)
Zn1A Zn 0.1250 0.3750 0.6250
Zn1C Zn -0.1250 0.8750 0.8750
Zn2A Zn 0.06308(3) 0.43692(3) 0.56308(3)
Zn2C Zn -0.06308(3) 0.93692(3) 0.93692(3)
Zn2M Zn 0.18692(3) 0.31308(3) 0.68692(3)
Zn2N Zn -0.18692(3) 0.81308(3) 0.81308(3)
O1F O 0.43921(16) 0.62636(16) 1.12649(17)
O1I O 0.37351(17) 0.56079(16) 1.12636(16)
O1L O 0.37649(17) 0.62364(16) 1.18921(16)
O1R O 0.37636(16) 0.68921(16) 1.12351(17)
O2F O 0.4737(2) 0.6056(2) 1.0744(2)
O2I O 0.4256(2) 0.5263(2) 1.1056(2)
O2L O 0.3244(2) 0.6444(2) 1.2237(2)
O2R O 0.3556(2) 0.7237(2) 1.1756(2)
loop_
_geom_bond_atom_site_label_1
_geom_bond_atom_site_label_2
_geom_bond_site_symmetry_1
_geom_bond_site_symmetry_2
Zn1 O1 1_555 1_555
Zn2 O2 1_555 1_555
O1 C7 1_555 1_555
O2 C7 1_555 1_555
O3 Zn2 1_555 1_555
C1 H1 1_555 1_555
C2 C1 1_555 1_555
C3 C2 1_555 1_555
H2 C3 1_555 1_555
C4 C3 1_555 1_555
C5 C4 1_555 1_555
H3 C5 1_555 1_555
C6 C1 1_555 1_555
C7 C2 1_555 1_555
C8 C6 1_555 1_555
C9 C8 1_555 1_555
C10 H4 1_555 1_555
C11 C10 1_555 1_555
C12 C11 1_555 1_555
H5 C12 1_555 1_555
C13 C12 1_555 1_555
H6 C13 1_555 1_555
C14 C13 1_555 1_555
H7 C14 1_555 1_555
C15 C9 1_555 1_555
C16 C17 1_555 1_555
C17 C4 1_555 1_555
O1G C7G 1_555 1_555
O2G C7G 1_555 1_555
C1G H1G 1_555 1_555
C2G C1G 1_555 1_555
C3G C2G 1_555 1_555
H2G C3G 1_555 1_555
C4G C3G 1_555 1_555
C5G C4G 1_555 1_555
H3G C5G 1_555 1_555
C6G C1G 1_555 1_555
C7G C2G 1_555 1_555
C8G C6G 1_555 1_555
C9G C8G 1_555 1_555
C10G H4G 1_555 1_555
C11G C10G 1_555 1_555
C12G C11G 1_555 1_555
H5G C12G 1_555 1_555
C13G C12G 1_555 1_555
H6G C13G 1_555 1_555
C14G C13G 1_555 1_555
H7G C14G 1_555 1_555
C15G C9G 1_555 1_555
C16G C11 1_555 1_555
C17G C4G 1_555 1_555
O1J C7J 1_555 1_555
O2J C7J 1_555 1_555
C1J H1J 1_555 1_555
C2J C1J 1_555 1_555
C3J C2J 1_555 1_555
H2J C3J 1_555 1_555
C4J C3J 1_555 1_555
C5J C4J 1_555 1_555
H3J C5J 1_555 1_555
C6J C1J 1_555 1_555
C7J C2J 1_555 1_555
C8J C6J 1_555 1_555
C9J C8J 1_555 1_555
C10J H4J 1_555 1_555
C11J C16 1_555 1_555
C12J C11J 1_555 1_555
H5J C12J 1_555 1_555
C13J C12J 1_555 1_555
H6J C13J 1_555 1_555
C14J C13J 1_555 1_555
H7J C14J 1_555 1_555
C15J C9J 1_555 1_555
C16J C11G 1_555 1_555
C17J C4J 1_555 1_555
Zn2L O3L 1_555 1_555
O1U Zn1 1_555 1_555
O2U Zn2L 1_555 1_555
C1U H1U 1_555 1_555
C2U C1U 1_555 1_555
C3U C2U 1_555 1_555
H2U C3U 1_555 1_555
C4U C3U 1_555 1_555
C5U C4U 1_555 1_555
H3U C5U 1_555 1_555
C6U C1U 1_555 1_555
C7U O1U 1_555 1_555
C8U C6U 1_555 1_555
C9U C8U 1_555 1_555
C10U H4U 1_555 1_555
C11U C10U 1_555 1_555
C12U C11U 1_555 1_555
H5U C12U 1_555 1_555
C13U C12U 1_555 1_555
H6U C13U 1_555 1_555
C14U C13U 1_555 1_555
H7U C14U 1_555 1_555
C15U C9U 1_555 1_555
C16U C17U 1_555 1_555
C17U C4U 1_555 1_555
O1M C7M 1_555 1_555
O2M C7M 1_555 1_555
C1M H1M 1_555 1_555
C2M C1M 1_555 1_555
C3M C2M 1_555 1_555
H2M C3M 1_555 1_555
C4M C3M 1_555 1_555
C5M C4M 1_555 1_555
H3M C5M 1_555 1_555
C6M C1M 1_555 1_555
C7M C2M 1_555 1_555
C8M C6M 1_555 1_555
C9M C8M 1_555 1_555
C10M H4M 1_555 1_555
C11M C10M 1_555 1_555
C12M C11M 1_555 1_555
H5M C12M 1_555 1_555
C13M C12M 1_555 1_555
H6M C13M 1_555 1_555
C14M C13M 1_555 1_555
H7M C14M 1_555 1_555
C15M C9M 1_555 1_555
C16M C11U 1_555 1_555
C17M C4M 1_555 1_555
O1Q C7Q 1_555 1_555
O2Q C7Q 1_555 1_555
C1Q H1Q 1_555 1_555
C2Q C1Q 1_555 1_555
C3Q C2Q 1_555 1_555
H2Q C3Q 1_555 1_555
C4Q C3Q 1_555 1_555
C5Q C4Q 1_555 1_555
H3Q C5Q 1_555 1_555
C6Q C1Q 1_555 1_555
C7Q C2Q 1_555 1_555
C8Q C6Q 1_555 1_555
C9Q C8Q 1_555 1_555
C10Q H4Q 1_555 1_555
C11Q C16U 1_555 1_555
C12Q C11Q 1_555 1_555
H5Q C12Q 1_555 1_555
C13Q C12Q 1_555 1_555
H6Q C13Q 1_555 1_555
C14Q C13Q 1_555 1_555
H7Q C14Q 1_555 1_555
C15Q C9Q 1_555 1_555
C16Q C11M 1_555 1_555
C17Q C4Q 1_555 1_555
Zn1A O1J 1_555 1_555
Zn1C O1G 1_555 1_555
Zn2A O2J 1_555 1_555
Zn2C O2G 1_555 1_555
Zn2M O2M 1_555 1_555
Zn2N O2Q 1_555 1_555
O1F Zn1 1_555 1_555
O1I Zn1 1_555 1_555
O1L Zn1 1_555 1_555
O1R Zn1 1_555 1_555
O2F Zn2 1_555 1_555
O2I Zn2 1_555 1_555
O2L Zn2L 1_555 1_555
O2R Zn2L 1_555 1_555
C5 C6 1_555 1_555
C10 C15 1_555 1_555
C14 C15 1_555 1_555
C5G C6G 1_555 1_555
C10G C15G 1_555 1_555
C14G C15G 1_555 1_555
C16G C17G 1_555 1_555
C5J C6J 1_555 1_555
C10J C11J 1_555 1_555
C10J C15J 1_555 1_555
C14J C15J 1_555 1_555
C16J C17J 1_555 1_555
O2U C7U 1_555 1_555
C2U C7U 1_555 1_555
C5U C6U 1_555 1_555
C10U C15U 1_555 1_555
C14U C15U 1_555 1_555
O1M Zn1A 1_555 1_555
C5M C6M 1_555 1_555
C10M C15M 1_555 1_555
C14M C15M 1_555 1_555
C16M C17M 1_555 1_555
O1Q Zn1C 1_555 1_555
C5Q C6Q 1_555 1_555
C10Q C11Q 1_555 1_555
C10Q C15Q 1_555 1_555
C14Q C15Q 1_555 1_555
C16Q C17Q 1_555 1_555

#END
