
#######################################################################
#
#                 Cambridge Crystallographic Data Centre
#                                CCDC 
#
#######################################################################
#
# If this CIF has been generated from an entry in the Cambridge 
# Structural Database, then it will include bibliographic, chemical, 
# crystal, experimental, refinement or atomic coordinate data resulting 
# from the CCDC's data processing and validation procedures.
#
#######################################################################

data_NIJZIR
_chemical_name_common            PCN-72
_chemical_formula_moiety         '(C26 H26 Mg1 O5 S1)n'
_chemical_name_systematic        
"catena-((\m~4~-2',3',5',6'-Tetramethyl-1,1':4',1''-terphenyl-4,4''-dicarboxylato)-(\m~2~-dimethyl sulfoxide)-magnesium)"
_symmetry_cell_setting           orthorhombic
_symmetry_space_group_name_H-M   'I m m a'
_symmetry_Int_Tables_number      74
_space_group_name_Hall           '-I 2b 2'
loop_
_symmetry_equiv_pos_site_id
_symmetry_equiv_pos_as_xyz
1 x,y,z
2 -x,1/2-y,z
3 x,-y,-z
4 -x,1/2+y,-z
5 1/2+x,1/2+y,1/2+z
6 1/2-x,-y,1/2+z
7 1/2+x,1/2-y,1/2-z
8 1/2-x,y,1/2-z
9 -x,-y,-z
10 x,1/2+y,-z
11 -x,y,z
12 x,1/2-y,z
13 1/2-x,1/2-y,1/2-z
14 1/2+x,y,1/2-z
15 1/2-x,1/2+y,1/2+z
16 1/2+x,-y,1/2+z
_cell_length_a                   36.85(2)
_cell_length_b                   7.469(4)
_cell_length_c                   8.756(5)
_cell_angle_alpha                90
_cell_angle_beta                 90
_cell_angle_gamma                90
_cell_volume                     2409.94
_exptl_crystal_colour            colorless
_exptl_crystal_description       needle
_cell_formula_units_Z            4
loop_
_atom_site_label
_atom_site_type_symbol
_atom_site_fract_x
_atom_site_fract_y
_atom_site_fract_z
Mg1 Mg 0.0000 0.5000 0.0000
O1 O 0.04038(5) 0.3987(3) 0.1337(3)
C1 C 0.09578(10) 0.2500 0.1816(5)
C2 C 0.11446(7) 0.0913(5) 0.1938(4)
H1 H 0.1017 -0.0190 0.1882
C3 C 0.15208(7) 0.0908(5) 0.2143(4)
H2 H 0.1646 -0.0198 0.2232
C4 C 0.17124(10) 0.2500 0.2219(5)
C5 C 0.21222(9) 0.2500 0.2378(5)
C6 C 0.23368(10) 0.2500 0.1051(5)
C7 C 0.21728(12) 0.2500 -0.0527(5)
C8 C 0.22811(10) 0.2500 0.3817(5)
C9 C 0.20584(7) 0.2500 0.5244(2)
O2 O 0.00000(7) 0.7500 0.1386(2)
C10 C 0.05475(7) 0.2500 0.1521(2)
S1 S 0.00000(7) 0.8305 0.3091(2)
C11 C 0.03957(7) 0.7500 0.3898(2)
O1G O 0.45962(5) 0.3987(3) 0.3663(3)
C1G C 0.40422(10) 0.2500 0.3184(5)
C2G C 0.38554(7) 0.0913(5) 0.3062(4)
H1G H 0.3983 -0.0190 0.3118
C3G C 0.34792(7) 0.0908(5) 0.2857(4)
H2G H 0.3354 -0.0198 0.2768
C4G C 0.32876(10) 0.2500 0.2781(5)
C5G C 0.28778(9) 0.2500 0.2622(5)
C6G C 0.26632(10) 0.2500 0.3949(5)
C7G C 0.28272(12) 0.2500 0.5527(5)
C8G C 0.27189(10) 0.2500 0.1183(5)
C9G C 0.29416(7) 0.2500 -0.0244(2)
C10G C 0.44525(7) 0.2500 0.3479(2)
O1K O 0.04038(5) 0.1013(3) 0.1337(3)
C2K C 0.11446(7) 0.4087(5) 0.1938(4)
H1K H 0.1017 0.5190 0.1882
C3K C 0.15208(7) 0.4092(5) 0.2143(4)
H2K H 0.1646 0.5198 0.2232
O1L O 0.45962(5) 0.1013(3) 0.3663(3)
C2L C 0.38554(7) 0.4087(5) 0.3062(4)
H1L H 0.3983 0.5190 0.3118
C3L C 0.34792(7) 0.4092(5) 0.2857(4)
H2L H 0.3354 0.5198 0.2768
S1A S 0.00000(7) 0.6695 0.3091(2)
C11A C -0.03957(7) 0.7500 0.3898(2)
Mg1A Mg 0.0000 0.0000 0.0000
Mg1A_2 Mg 0.0000 1.0000 0.0000
Mg1D Mg 0.5000 0.0000 0.5000
Mg1E Mg 0.5000 0.5000 0.5000
O1B O 0.04038(5) 0.6013(3) -0.1337(3)
O1H O -0.04038(5) 0.6013(3) -0.1337(3)
O1J O -0.04038(5) 0.3987(3) 0.1337(3)
O2B O 0.00000(7) 0.2500 -0.1386(2)
H3? H 0.2361 0.2222 -0.1281
H4? H 0.2070 0.3683 -0.0745
H5? H 0.1981 0.1595 -0.0580
H6? H 0.2214 0.2221 0.6120
H7? H 0.1867 0.1596 0.5161
H8? H 0.1949 0.3683 0.5387
H9? H 0.0416 0.7927 0.4929
H10? H 0.0391 0.6215 0.3898
H11? H 0.0600 0.7912 0.3315
loop_
_geom_bond_atom_site_label_1
_geom_bond_atom_site_label_2
_geom_bond_site_symmetry_1
_geom_bond_site_symmetry_2
Mg1 O1 1_555 1_555
O1 C10 1_555 1_555
C1 C2 1_555 1_555
C2 H1 1_555 1_555
C3 C2 1_555 1_555
H2 C3 1_555 1_555
C4 C3 1_555 1_555
C5 C4 1_555 1_555
C6 C5 1_555 1_555
C7 C6 1_555 1_555
C8 C5 1_555 1_555
C9 C8 1_555 1_555
O2 Mg1 1_555 1_555
C10 C1 1_555 1_555
S1 O2 1_555 1_555
C11 S1 1_555 1_555
O1G C10G 1_555 1_555
C1G C2G 1_555 1_555
C2G H1G 1_555 1_555
C3G C2G 1_555 1_555
H2G C3G 1_555 1_555
C4G C3G 1_555 1_555
C5G C4G 1_555 1_555
C6G C8 1_555 1_555
C7G C6G 1_555 1_555
C8G C6 1_555 1_555
C9G C8G 1_555 1_555
C10G C1G 1_555 1_555
O1K C10 1_555 1_555
C2K C1 1_555 1_555
H1K C2K 1_555 1_555
C3K C4 1_555 1_555
H2K C3K 1_555 1_555
O1L C10G 1_555 1_555
C2L C1G 1_555 1_555
H1L C2L 1_555 1_555
C3L C4G 1_555 1_555
H2L C3L 1_555 1_555
S1A O2 1_555 1_555
C11A S1 1_555 1_555
Mg1A O1K 1_555 1_555
Mg1A_2 O2 1_555 1_555
Mg1D O1L 1_555 1_555
Mg1E O1G 1_555 1_555
O1B Mg1 1_555 1_555
O1H Mg1 1_555 1_555
O1J Mg1 1_555 1_555
O2B Mg1 1_555 1_555
S1 S1A 1_555 1_555
C11 S1A 1_555 1_555
C5G C6G 1_555 1_555
C5G C8G 1_555 1_555
C2K C3K 1_555 1_555
C2L C3L 1_555 1_555
S1A C11A 1_555 1_555
Mg1A O2B 1_555 1_555

#END
