
#######################################################################
#
#                 Cambridge Crystallographic Data Centre
#                                CCDC 
#
#######################################################################
#
# If this CIF has been generated from an entry in the Cambridge 
# Structural Database, then it will include bibliographic, chemical, 
# crystal, experimental, refinement or atomic coordinate data resulting 
# from the CCDC's data processing and validation procedures.
#
#######################################################################

data_OYIVEY
_chemical_formula_moiety         '(C86 H54 Cu9 N40 O22)n'
_chemical_name_systematic        
catena-(bis(\m~5~-4-(1H-Tetrazol-5-yl)benzoato)-octakis(\m~4~-4-(1H-tetrazol-5-yl)benzoato)-bis(n-propoxy)-nona-copper)
_symmetry_cell_setting           orthorhombic
_symmetry_space_group_name_H-M   'P n n 2'
_symmetry_Int_Tables_number      34
_space_group_name_Hall           'P 2 -2n'
loop_
_symmetry_equiv_pos_site_id
_symmetry_equiv_pos_as_xyz
1 x,y,z
2 -x,-y,z
3 1/2-x,1/2+y,1/2+z
4 1/2+x,1/2-y,1/2+z
_cell_length_a                   13.464(8)
_cell_length_b                   29.985(17)
_cell_length_c                   19.717(11)
_cell_angle_alpha                90
_cell_angle_beta                 90
_cell_angle_gamma                90
_cell_volume                     7960.11
_exptl_crystal_colour            green
_exptl_crystal_description       block
_cell_formula_units_Z            2
loop_
_atom_site_label
_atom_site_type_symbol
_atom_site_fract_x
_atom_site_fract_y
_atom_site_fract_z
C1 C 0.3318(12) 0.4535(6) 0.6875(8)
C2 C 0.2321(6) 0.5094(2) 0.8412(4)
H1 H 0.2353 0.5369 0.8627
C3 C 0.2848(6) 0.5021(3) 0.7817(4)
H2 H 0.3234 0.5248 0.7633
C4 C 0.2800(6) 0.4608(3) 0.7496(3)
C5 C 0.2224(7) 0.4269(2) 0.7772(5)
H3 H 0.2192 0.3993 0.7557
C6 C 0.1697(6) 0.4342(3) 0.8367(5)
H4 H 0.1311 0.4115 0.8551
C7 C 0.1745(5) 0.4754(3) 0.8688(3)
C8 C 0.1188(11) 0.4832(5) 0.9360(7)
C9 C 0.1312(14) 0.4860(7) 0.1202(10)
C10 C -0.1476(12) 0.3773(5) 1.0517(8)
C11 C -0.093(3) 0.2976(11) 1.0557(19)
H5 H -0.0281 0.3106 1.0537
H6 H -0.0923 0.2691 1.0335
H7 H -0.1124 0.2938 1.1022
C12 C 0.9808(9) 0.1962(4) 0.9374(6)
C13 C 0.9370(6) 0.2169(3) 0.8728(4)
C14 C 0.8507(6) 0.2020(3) 0.8414(5)
H8 H 0.8150 0.1784 0.8602
C15 C 0.8179(6) 0.2222(4) 0.7821(5)
H9 H 0.7602 0.2122 0.7611
C16 C 0.8714(7) 0.2573(4) 0.7541(4)
C17 C 0.9577(7) 0.2722(3) 0.7855(4)
H10 H 0.9934 0.2957 0.7667
C18 C 0.9905(5) 0.2520(3) 0.8448(4)
H11 H 1.0482 0.2620 0.8658
C19 C 0.8289(12) 0.2799(5) 0.3674(8)
C20 C 0.8464(9) 0.2730(4) 0.6853(6)
C21 C 0.7182(6) 0.4401(3) 0.5330(10)
C22 C 0.7899(3) 0.47722(15) 0.5333(5)
C23 C 0.8141(6) 0.4995(2) 0.5929(4)
H12 H 0.7869 0.4903 0.6339
C24 C 0.8791(6) 0.5355(2) 0.5911(5)
H13 H 0.8953 0.5504 0.6309
C25 C 0.9199(4) 0.54923(17) 0.5298(6)
C26 C 0.8957(6) 0.5269(3) 0.4702(5)
H14 H 0.9229 0.5361 0.4292
C27 C 0.8307(6) 0.4909(2) 0.4720(4)
H15 H 0.8145 0.4760 0.4321
C28 C 0.9929(5) 0.5858(2) 0.5369(7)
C29 C 0.8764(9) 0.2524(4) 0.3089(6)
C30 C 0.8184(7) 0.2228(3) 0.2760(5)
H16 H 0.7571 0.2145 0.2936
C31 C 0.852(2) 0.2052(9) 0.2157(13)
H17 H 0.8104 0.1867 0.1906
C32 C 0.9461(15) 0.2144(6) 0.1916(9)
C33 C 1.0033(10) 0.2401(5) 0.2272(7)
H18 H 1.0674 0.2454 0.2116
C34 C 0.9728(10) 0.2603(4) 0.2885(7)
H19 H 1.0156 0.2781 0.3138
C35 C 0.9683(12) 0.1873(6) 0.1248(9)
C36 C 0.2022(7) 0.4760(3) 0.1766(4)
C37 C 0.2500(7) 0.5118(3) 0.2074(5)
H20 H 0.2455 0.5402 0.1885
C38 C 0.3044(7) 0.5052(3) 0.2664(5)
H21 H 0.3364 0.5291 0.2870
C39 C 0.3111(7) 0.4628(3) 0.2947(4)
C40 C 0.2634(7) 0.4271(2) 0.2639(5)
H22 H 0.2678 0.3987 0.2827
C41 C 0.2089(7) 0.4337(3) 0.2048(5)
H23 H 0.1769 0.4098 0.1842
Cu1 Cu 0.5000 0.5000 0.52798(17)
Cu2 Cu 0.88443(7) 0.35805(3) 0.53057(13)
Cu3 Cu 0.43115(7) 0.38082(3) 0.53164(13)
Cu4 Cu 0.65019(7) 0.30069(3) 0.53105(13)
Cu5 Cu -0.02667(7) 0.45784(3) 1.03010(14)
N1 N 0.3403(12) 0.4165(5) 0.6582(8)
N2 N 0.3768(8) 0.4872(4) 0.6567(6)
N3 N 0.4181(7) 0.4659(3) 0.6074(5)
N4 N 0.3978(7) 0.4267(3) 0.6040(5)
N5 N 0.5883(4) 0.4007(2) 0.5239(6)
N6 N 0.6222(4) 0.44276(18) 0.5251(6)
N7 N 0.7475(5) 0.3970(2) 0.5220(5)
N8 N 0.6617(5) 0.3730(2) 0.5325(9)
N9 N 0.4031(6) 0.4887(2) 0.4005(4)
N10 N 0.4292(6) 0.4689(3) 0.4636(3)
N11 N 0.3930(7) 0.4245(2) 0.4638(4)
N12 N 0.3446(7) 0.4167(2) 0.4009(5)
C42 C 0.3509(6) 0.4564(3) 0.3618(3)
N13 N 0.8457(7) 0.3159(4) 0.4577(5)
N14 N 0.7560(8) 0.2961(4) 0.4555(5)
N15 N 0.7521(9) 0.2715(4) 0.3975(6)
N16 N 0.9013(7) 0.3074(3) 0.4031(4)
N17 N 0.8335(9) 0.3187(5) 0.6019(7)
N18 N 0.7607(10) 0.2896(4) 0.6023(7)
N19 N 0.7582(7) 0.2630(3) 0.6520(5)
N20 N 0.8865(11) 0.3042(6) 0.6546(8)
C43 C -0.1682(12) 0.3285(5) 1.0198(13)
H24 H -0.2359 0.3190 1.0287
H25 H -0.1572 0.3286 0.9711
O1 O 1.0573(6) 0.2131(3) 0.9621(4)
O2 O 0.9075(8) 0.1672(4) 0.9698(5)
O3 O 1.0533(10) 0.2031(4) 0.1063(7)
O4 O 0.9349(6) 0.1614(3) 0.1042(4)
O5 O 0.0847(7) 0.4503(3) 0.9611(5)
O6 O 0.1305(7) 0.5247(4) 0.9646(5)
O7 O 1.0259(9) 0.6032(4) 0.5823(6)
O8 O 1.0262(7) 0.6016(3) 0.4748(5)
O9 O -0.0667(6) 0.3907(2) 1.0391(7)
O10 O 0.1106(7) 0.5233(4) 0.1039(5)
O11 O 0.0649(8) 0.4537(4) 0.1027(6)
C1A C 0.6682(12) 0.5465(6) 0.6875(8)
C2A C 0.7679(6) 0.4906(2) 0.8412(4)
H1A H 0.7647 0.4631 0.8627
C3A C 0.7152(6) 0.4979(3) 0.7817(4)
H2A H 0.6766 0.4752 0.7633
C4A C 0.7200(6) 0.5392(3) 0.7496(3)
C5A C 0.7776(7) 0.5731(2) 0.7772(5)
H3A H 0.7808 0.6007 0.7557
C6A C 0.8303(6) 0.5658(3) 0.8367(5)
H4A H 0.8689 0.5885 0.8551
C7A C 0.8255(5) 0.5246(3) 0.8688(3)
C8A C 0.8812(11) 0.5168(5) 0.9360(7)
C9A C 0.8688(14) 0.5140(7) 0.1202(10)
C10A C 1.1476(12) 0.6227(5) 1.0517(8)
C11A C 1.093(3) 0.7024(11) 1.0557(19)
H5A H 1.0281 0.6894 1.0537
H6A H 1.0923 0.7309 1.0335
H7A H 1.1124 0.7062 1.1022
C12C C 0.4808(9) 0.3038(4) 0.4374(6)
C13C C 0.4370(6) 0.2831(3) 0.3728(4)
C14C C 0.3507(6) 0.2980(3) 0.3414(5)
H8C H 0.3150 0.3216 0.3602
C15C C 0.3179(6) 0.2778(4) 0.2821(5)
H9C H 0.2602 0.2878 0.2611
C16C C 0.3714(7) 0.2427(4) 0.2541(4)
C17C C 0.4577(7) 0.2278(3) 0.2855(4)
H10C H 0.4934 0.2043 0.2667
C18C C 0.4905(5) 0.2480(3) 0.3448(4)
H11C H 0.5482 0.2380 0.3658
C19C C 0.3289(12) 0.2201(5) 0.8674(8)
C20C C 0.3464(9) 0.2270(4) 0.1853(6)
C21A C 0.2818(6) 0.5599(3) 0.5330(10)
C22A C 0.2101(3) 0.52278(15) 0.5333(5)
C23A C 0.1859(6) 0.5005(2) 0.5929(4)
H12A H 0.2131 0.5097 0.6339
C24A C 0.1209(6) 0.4645(2) 0.5911(5)
H13A H 0.1047 0.4496 0.6309
C25A C 0.0801(4) 0.45077(17) 0.5298(6)
C26A C 0.1043(6) 0.4731(3) 0.4702(5)
H14A H 0.0771 0.4639 0.4292
C27A C 0.1693(6) 0.5091(2) 0.4720(4)
H15A H 0.1855 0.5240 0.4321
C28A C 0.0071(5) 0.4142(2) 0.5369(7)
C29C C 0.3764(9) 0.2476(4) 0.8089(6)
C30C C 0.3184(7) 0.2772(3) 0.7760(5)
H16C H 0.2571 0.2855 0.7936
C31C C 0.352(2) 0.2948(9) 0.7157(13)
H17C H 0.3104 0.3133 0.6906
C32C C 0.4461(15) 0.2856(6) 0.6916(9)
C33C C 0.5033(10) 0.2599(5) 0.7272(7)
H18C H 0.5674 0.2546 0.7116
C34C C 0.4728(10) 0.2397(4) 0.7885(7)
H19C H 0.5156 0.2219 0.8138
C35C C 0.4683(12) 0.3127(6) 0.6248(9)
C36A C 0.7978(7) 0.5240(3) 0.1766(4)
C37A C 0.7500(7) 0.4882(3) 0.2074(5)
H20A H 0.7545 0.4598 0.1885
C38A C 0.6956(7) 0.4948(3) 0.2664(5)
H21A H 0.6636 0.4709 0.2870
C39A C 0.6889(7) 0.5372(3) 0.2947(4)
C40A C 0.7366(7) 0.5729(2) 0.2639(5)
H22A H 0.7322 0.6013 0.2827
C41A C 0.7911(7) 0.5663(3) 0.2048(5)
H23A H 0.8231 0.5902 0.1842
Cu2A Cu 0.11557(7) 0.64195(3) 0.53057(13)
Cu2A_2 Cu 1.11557(7) 0.64195(3) 0.53057(13)
Cu2_2 Cu -0.11557(7) 0.35805(3) 0.53057(13)
Cu2C Cu 0.38443(7) 0.14195(3) 0.03057(13)
Cu2C_2 Cu 0.38443(7) 0.14195(3) 1.03057(13)
Cu3A Cu 0.56885(7) 0.61918(3) 0.53164(13)
Cu3C Cu 0.93115(7) 0.11918(3) 1.03164(13)
Cu3C_2 Cu 0.93115(7) 0.11918(3) 0.03164(13)
Cu4A Cu 0.34981(7) 0.69931(3) 0.53105(13)
Cu4C Cu 1.15019(7) 0.19931(3) 1.03105(13)
Cu4C_2 Cu 1.15019(7) 0.19931(3) 0.03105(13)
Cu4C_3 Cu 0.15019(7) 0.19931(3) 0.03105(13)
Cu4C_4 Cu 0.15019(7) 0.19931(3) 1.03105(13)
Cu5A Cu 1.02667(7) 0.54216(3) 1.03010(14)
Cu5A_2 Cu 0.02667(7) 0.54216(3) 1.03010(14)
Cu5A_3 Cu 0.02667(7) 0.54216(3) 0.03010(14)
Cu5_2 Cu -0.02667(7) 0.45784(3) 0.03010(14)
Cu5_3 Cu 0.97333(7) 0.45784(3) 1.03010(14)
Cu5_4 Cu 0.97333(7) 0.45784(3) 0.03010(14)
Cu5A_4 Cu 1.02667(7) 0.54216(3) 0.03010(14)
N1A N 0.6597(12) 0.5835(5) 0.6582(8)
N2A N 0.6232(8) 0.5128(4) 0.6567(6)
N3A N 0.5819(7) 0.5341(3) 0.6074(5)
N4A N 0.6022(7) 0.5733(3) 0.6040(5)
N5A N 0.4117(4) 0.5993(2) 0.5239(6)
N6A N 0.3778(4) 0.55724(18) 0.5251(6)
N7A N 0.2525(5) 0.6030(2) 0.5220(5)
N8A N 0.3383(5) 0.6270(2) 0.5325(9)
N9A N 0.5969(6) 0.5113(2) 0.4005(4)
N10A N 0.5708(6) 0.5311(3) 0.4636(3)
N11A N 0.6070(7) 0.5755(2) 0.4638(4)
N12A N 0.6554(7) 0.5833(2) 0.4009(5)
C42A C 0.6491(6) 0.5436(3) 0.3618(3)
N13C N 0.3457(7) 0.1841(4) 0.9577(5)
N13A N 0.1543(7) 0.6841(4) 0.4577(5)
N14C N 0.2560(8) 0.2039(4) 0.9555(5)
N14A N 0.2440(8) 0.7039(4) 0.4555(5)
N15C N 0.2521(9) 0.2285(4) 0.8975(6)
N16C N 0.4013(7) 0.1926(3) 0.9031(4)
N17C N 0.3335(9) 0.1813(5) 0.1019(7)
N17A N 0.1665(9) 0.6813(5) 0.6019(7)
N18C N 0.2607(10) 0.2104(4) 0.1023(7)
N18A N 0.2393(10) 0.7104(4) 0.6023(7)
N19C N 0.2582(7) 0.2370(3) 0.1520(5)
N20C N 0.3865(11) 0.1958(6) 0.1546(8)
C43A C 1.1682(12) 0.6715(5) 1.0198(13)
H24A H 1.2359 0.6810 1.0287
H25A H 1.1572 0.6714 0.9711
O1C O 0.5573(6) 0.2869(3) 0.4621(4)
O1B O 0.4427(6) 0.7131(3) 0.4621(4)
O2C O 0.4075(8) 0.3328(4) 0.4698(5)
O2B O 0.5925(8) 0.6672(4) 0.4698(5)
O3C O 0.5533(10) 0.2969(4) 0.6063(7)
O3B O 0.4467(10) 0.7031(4) 0.6063(7)
O4C O 0.4349(6) 0.3386(3) 0.6042(4)
O4B O 0.5651(6) 0.6614(3) 0.6042(4)
O5A O 0.9153(7) 0.5497(3) 0.9611(5)
O6A O 0.8695(7) 0.4753(4) 0.9646(5)
O6A_2 O -0.1305(7) 0.4753(4) 0.9646(5)
O6_2 O 1.1305(7) 0.5247(4) 0.9646(5)
O7A O -0.0259(9) 0.3968(4) 0.5823(6)
O7A_2 O 0.9741(9) 0.3968(4) 0.5823(6)
O7_2 O 0.0259(9) 0.6032(4) 0.5823(6)
O8A O -0.0262(7) 0.3984(3) 0.4748(5)
O8A_2 O 0.9738(7) 0.3984(3) 0.4748(5)
O8_2 O 0.0262(7) 0.6016(3) 0.4748(5)
O9A O 1.0667(6) 0.6093(2) 1.0391(7)
O10A O 0.8894(7) 0.4767(4) 0.1039(5)
O10A_2 O -0.1106(7) 0.4767(4) 1.1039(5)
O10_2 O 1.1106(7) 0.5233(4) 1.1039(5)
O11A O 0.9351(8) 0.5463(4) 0.1027(6)
O11_2 O 0.0649(8) 0.4537(4) 1.1027(6)
O11A_2 O 0.9351(8) 0.5463(4) 1.1027(6)
loop_
_geom_bond_atom_site_label_1
_geom_bond_atom_site_label_2
_geom_bond_site_symmetry_1
_geom_bond_site_symmetry_2
C1 C4 1_555 1_555
C2 H1 1_555 1_555
C3 C2 1_555 1_555
H2 C3 1_555 1_555
C4 C3 1_555 1_555
C5 C4 1_555 1_555
H3 C5 1_555 1_555
C6 C5 1_555 1_555
H4 C6 1_555 1_555
C7 C2 1_555 1_555
C8 C7 1_555 1_555
C9 C36 1_555 1_555
C10 C43 1_555 1_555
C11 H5 1_555 1_555
H6 C11 1_555 1_555
H7 C11 1_555 1_555
C12 C13 1_555 1_555
C13 C14 1_555 1_555
C14 H8 1_555 1_555
C15 C14 1_555 1_555
H9 C15 1_555 1_555
C16 C15 1_555 1_555
C17 C16 1_555 1_555
H10 C17 1_555 1_555
C18 C13 1_555 1_555
H11 C18 1_555 1_555
C19 C29 1_555 1_555
C20 C16 1_555 1_555
C21 C22 1_555 1_555
C22 C23 1_555 1_555
C23 H12 1_555 1_555
C24 C23 1_555 1_555
H13 C24 1_555 1_555
C25 C24 1_555 1_555
C26 C25 1_555 1_555
H14 C26 1_555 1_555
C27 C22 1_555 1_555
H15 C27 1_555 1_555
C28 C25 1_555 1_555
C29 C30 1_555 1_555
C30 H16 1_555 1_555
C31 C30 1_555 1_555
H17 C31 1_555 1_555
C32 C31 1_555 1_555
C33 C32 1_555 1_555
H18 C33 1_555 1_555
C34 C29 1_555 1_555
H19 C34 1_555 1_555
C35 C32 1_555 1_555
C36 C37 1_555 1_555
C37 H20 1_555 1_555
C38 C37 1_555 1_555
H21 C38 1_555 1_555
C39 C38 1_555 1_555
C40 C39 1_555 1_555
H22 C40 1_555 1_555
C41 C36 1_555 1_555
H23 C41 1_555 1_555
Cu1 N3 1_555 1_555
Cu2 N7 1_555 1_555
Cu3 N4 1_555 1_555
Cu4 N8 1_555 1_555
Cu5 O5 1_555 1_555
N1 C1 1_555 1_555
N2 C1 1_555 1_555
N3 N2 1_555 1_555
N4 N1 1_555 1_555
N5 Cu3 1_555 1_555
N6 C21 1_555 1_555
N7 C21 1_555 1_555
N8 N5 1_555 1_555
N9 N10 1_555 1_555
N10 Cu1 1_555 1_555
N11 Cu3 1_555 1_555
N12 N11 1_555 1_555
C42 C39 1_555 1_555
N13 Cu2 1_555 1_555
N14 Cu4 1_555 1_555
N15 C19 1_555 1_555
N16 C19 1_555 1_555
N17 Cu2 1_555 1_555
N18 Cu4 1_555 1_555
N19 C20 1_555 1_555
N20 C20 1_555 1_555
C43 C11 1_555 1_555
H24 C43 1_555 1_555
H25 C43 1_555 1_555
O1 C12 1_555 1_555
O2 C12 1_555 1_555
O3 C35 1_555 1_555
O4 C35 1_555 1_555
O5 C8 1_555 1_555
O6 C8 1_555 1_555
O7 C28 1_555 1_555
O8 C28 1_555 1_555
O9 C10 1_555 1_555
O10 C9 1_555 1_555
O11 C9 1_555 1_555
C1A C4A 1_555 1_555
C2A H1A 1_555 1_555
C3A C2A 1_555 1_555
H2A C3A 1_555 1_555
C4A C3A 1_555 1_555
C5A C4A 1_555 1_555
H3A C5A 1_555 1_555
C6A C5A 1_555 1_555
H4A C6A 1_555 1_555
C7A C2A 1_555 1_555
C8A C7A 1_555 1_555
C9A C36A 1_555 1_555
C10A C43A 1_555 1_555
C11A H5A 1_555 1_555
H6A C11A 1_555 1_555
H7A C11A 1_555 1_555
C12C C13C 1_555 1_555
C13C C14C 1_555 1_555
C14C H8C 1_555 1_555
C15C C14C 1_555 1_555
H9C C15C 1_555 1_555
C16C C15C 1_555 1_555
C17C C16C 1_555 1_555
H10C C17C 1_555 1_555
C18C C13C 1_555 1_555
H11C C18C 1_555 1_555
C19C C29C 1_555 1_555
C20C C16C 1_555 1_555
C21A C22A 1_555 1_555
C22A C23A 1_555 1_555
C23A H12A 1_555 1_555
C24A C23A 1_555 1_555
H13A C24A 1_555 1_555
C25A C24A 1_555 1_555
C26A C25A 1_555 1_555
H14A C26A 1_555 1_555
C27A C22A 1_555 1_555
H15A C27A 1_555 1_555
C28A C25A 1_555 1_555
C29C C30C 1_555 1_555
C30C H16C 1_555 1_555
C31C C30C 1_555 1_555
H17C C31C 1_555 1_555
C32C C31C 1_555 1_555
C33C C32C 1_555 1_555
H18C C33C 1_555 1_555
C34C C29C 1_555 1_555
H19C C34C 1_555 1_555
C35C C32C 1_555 1_555
C36A C37A 1_555 1_555
C37A H20A 1_555 1_555
C38A C37A 1_555 1_555
H21A C38A 1_555 1_555
C39A C38A 1_555 1_555
C40A C39A 1_555 1_555
H22A C40A 1_555 1_555
C41A C36A 1_555 1_555
H23A C41A 1_555 1_555
Cu2A N7A 1_555 1_555
Cu2A_2 O7 1_555 1_555
Cu2_2 O7A 1_555 1_555
Cu2C N17C 1_555 1_555
Cu2C_2 N13C 1_555 1_555
Cu3A N4A 1_555 1_555
Cu3C O2 1_555 1_555
Cu3C_2 O4 1_555 1_555
Cu4A N8A 1_555 1_555
Cu4C O1 1_555 1_555
Cu4C_2 O3 1_555 1_555
Cu4C_3 N18C 1_555 1_555
Cu4C_4 N14C 1_555 1_555
Cu5A Cu5_3 1_555 1_555
Cu5A_2 Cu5 1_555 1_555
Cu5A_3 O10 1_555 1_555
Cu5_2 O11 1_555 1_555
Cu5_3 O6A 1_555 1_555
Cu5_4 Cu5A_4 1_555 1_555
Cu5A_4 O11A 1_555 1_555
N1A C1A 1_555 1_555
N2A C1A 1_555 1_555
N3A Cu1 1_555 1_555
N4A N1A 1_555 1_555
N5A Cu3A 1_555 1_555
N6A Cu1 1_555 1_555
N7A C21A 1_555 1_555
N8A N5A 1_555 1_555
N9A N10A 1_555 1_555
N10A Cu1 1_555 1_555
N11A Cu3A 1_555 1_555
N12A N11A 1_555 1_555
C42A C39A 1_555 1_555
N13C N14C 1_555 1_555
N13A Cu2A 1_555 1_555
N14C N15C 1_555 1_555
N14A Cu4A 1_555 1_555
N15C C19C 1_555 1_555
N16C C19C 1_555 1_555
N17C N18C 1_555 1_555
N17A Cu2A 1_555 1_555
N18C N19C 1_555 1_555
N18A Cu4A 1_555 1_555
N19C C20C 1_555 1_555
N20C C20C 1_555 1_555
C43A C11A 1_555 1_555
H24A C43A 1_555 1_555
H25A C43A 1_555 1_555
O1C Cu4 1_555 1_555
O1B Cu4A 1_555 1_555
O2C Cu3 1_555 1_555
O2B Cu3A 1_555 1_555
O3C Cu4 1_555 1_555
O3B Cu4A 1_555 1_555
O4C Cu3 1_555 1_555
O4B Cu3A 1_555 1_555
O5A C8A 1_555 1_555
O6A C8A 1_555 1_555
O6A_2 Cu5 1_555 1_555
O6_2 Cu5A 1_555 1_555
O7A C28A 1_555 1_555
O7A_2 Cu2 1_555 1_555
O7_2 Cu2A 1_555 1_555
O8A C28A 1_555 1_555
O8A_2 Cu2 1_555 1_555
O8_2 Cu2A 1_555 1_555
O9A C10A 1_555 1_555
O10A C9A 1_555 1_555
O10A_2 Cu5 1_555 1_555
O10_2 Cu5A 1_555 1_555
O11A C9A 1_555 1_555
O11_2 Cu5 1_555 1_555
O11A_2 Cu5A 1_555 1_555
C6 C7 1_555 1_555
C17 C18 1_555 1_555
C26 C27 1_555 1_555
C33 C34 1_555 1_555
C40 C41 1_555 1_555
Cu1 N6 1_555 1_555
Cu5 O9 1_555 1_555
N3 N4 1_555 1_555
N5 N6 1_555 1_555
N7 N8 1_555 1_555
N9 C42 1_555 1_555
N10 N11 1_555 1_555
N12 C42 1_555 1_555
N13 N14 1_555 1_555
N13 N16 1_555 1_555
N14 N15 1_555 1_555
N17 N18 1_555 1_555
N17 N20 1_555 1_555
N18 N19 1_555 1_555
O6 Cu5A_2 1_555 1_555
O8 Cu2A_2 1_555 1_555
C6A C7A 1_555 1_555
C12C O1C 1_555 1_555
C12C O2C 1_555 1_555
C17C C18C 1_555 1_555
C21A N6A 1_555 1_555
C26A C27A 1_555 1_555
C33C C34C 1_555 1_555
C35C O3C 1_555 1_555
C35C O4C 1_555 1_555
C40A C41A 1_555 1_555
Cu2_2 O8A 1_555 1_555
Cu5A O5A 1_555 1_555
Cu5A O9A 1_555 1_555
Cu5A_3 Cu5_2 1_555 1_555
Cu5_4 O10A 1_555 1_555
N2A N3A 1_555 1_555
N3A N4A 1_555 1_555
N5A N6A 1_555 1_555
N7A N8A 1_555 1_555
N9A C42A 1_555 1_555
N10A N11A 1_555 1_555
N12A C42A 1_555 1_555
N13C N16C 1_555 1_555
N13A N14A 1_555 1_555
N17C N20C 1_555 1_555
N17A N18A 1_555 1_555

#END
