
#######################################################################
#
#                 Cambridge Crystallographic Data Centre
#                                CCDC 
#
#######################################################################
#
# If this CIF has been generated from an entry in the Cambridge 
# Structural Database, then it will include bibliographic, chemical, 
# crystal, experimental, refinement or atomic coordinate data resulting 
# from the CCDC's data processing and validation procedures.
#
#######################################################################

data_OYIVIC
_chemical_formula_moiety         '(C21 H21 Cu2 N9 O6)n'
_chemical_name_systematic        
catena-(bis(\m~4~-4-(1H-Tetrazol-5-yl)benzoato)-(\m~2~-dimethylformamide)-(\m~2~-ethanol)-di-copper)
_symmetry_cell_setting           orthorhombic
_symmetry_space_group_name_H-M   'I m m 2'
_symmetry_Int_Tables_number      44
_space_group_name_Hall           'I 2 -2'
loop_
_symmetry_equiv_pos_site_id
_symmetry_equiv_pos_as_xyz
1 x,y,z
2 -x,-y,z
3 -x,y,z
4 x,-y,z
5 1/2+x,1/2+y,1/2+z
6 1/2-x,1/2-y,1/2+z
7 1/2-x,1/2+y,1/2+z
8 1/2+x,1/2-y,1/2+z
_cell_length_a                   7.119(6)
_cell_length_b                   21.58(2)
_cell_length_c                   9.100(8)
_cell_angle_alpha                90
_cell_angle_beta                 90
_cell_angle_gamma                90
_cell_volume                     1398.01
_exptl_crystal_colour            green
_exptl_crystal_description       prismatic
_cell_formula_units_Z            2
loop_
_atom_site_label
_atom_site_type_symbol
_atom_site_fract_x
_atom_site_fract_y
_atom_site_fract_z
C1 C 0.5000 0.7844(5) 0.8038(14)
C2 C 0.3330(9) 0.7508(5) 0.779(2)
H1 H 0.2186 0.7707 0.7927
C3 C 0.3322(12) 0.6926(4) 0.7361(11)
H2 H 0.2168 0.6735 0.7204
C4 C 0.5000 0.6567(6) 0.7125(16)
C5 C 0.5000 0.5929(5) 0.6692(11)
C6 C 0.5000 0.8462(5) 0.8535(14)
C7 C 0.5000 1.0000 1.316(3)
H3 H 0.5000 0.9578 1.3376
C8 C 0.5000 0.9157(10) 1.440(4)
H4 H 0.5000 0.9091 1.3360
H5 H 0.3899 0.8972 1.4825
C9 C 1.0000 0.9732(12) 0.749(3)
H6 H 0.8912 0.9461 0.7487
C10 C 1.0000 1.0000 0.6196(17)
H7 H 1.0000 0.9689 0.5441
H8 H 1.1101 1.0254 0.6100
Cu1 Cu 0.74826(14) 1.0000 1.0330(4)
N1 N 0.6035(11) 0.9348(3) 0.9322(9)
N2 N 0.6568(10) 0.8818(3) 0.8845(8)
N3 N 0.5000 1.0279(9) 1.466(2)
O1 O 0.6458(9) 0.5682(3) 0.6523(7)
O2 O 0.5000 1.0000 1.2108(15)
O3 O 1.0000 1.0000 0.878(2)
C11 C 0.5000 1.0000 1.585(3)
H9 H 0.5000 1.0439 1.5677
H10 H 0.3899 1.0111 1.6401
C1A C 0.5000 1.2156(5) 0.8038(14)
C2B C 0.6670(9) 0.7508(5) 0.779(2)
C2C C 0.3330(9) 1.2492(5) 0.779(2)
C2A C 0.6670(9) 1.2492(5) 0.779(2)
H1B H 0.7814 0.7707 0.7927
H1C H 0.2186 1.2293 0.7927
H1A H 0.7814 1.2293 0.7927
C3B C 0.6678(12) 0.6926(4) 0.7361(11)
C3C C 0.3322(12) 1.3074(4) 0.7361(11)
C3A C 0.6678(12) 1.3074(4) 0.7361(11)
H2B H 0.7832 0.6735 0.7204
H2C H 0.2168 1.3265 0.7204
H2A H 0.7832 1.3265 0.7204
C4A C 0.5000 1.3433(6) 0.7125(16)
C5A C 0.5000 1.4071(5) 0.6692(11)
C6A C 0.5000 1.1538(5) 0.8535(14)
H3A H 0.5000 1.0422 1.3376
C8A C 0.5000 1.0843(10) 1.440(4)
H4A H 0.5000 1.0909 1.3360
H5B H 0.6101 0.8972 1.4825
H5A H 0.6101 1.1028 1.4825
H5C H 0.3899 1.1028 1.4825
C9A C 1.0000 1.0268(12) 0.749(3)
H6A H 1.1088 1.0539 0.7487
H6C H 0.8912 1.0539 0.7487
H6B H 1.1088 0.9461 0.7487
H7A H 1.0000 1.0311 0.5441
H8A H 0.8899 0.9746 0.6100
H8B H 0.8899 1.0254 0.6100
H8C H 1.1101 0.9746 0.6100
Cu1A Cu 0.25174(14) 1.0000 1.0330(4)
Cu1E Cu 0.75174(14) 0.5000 0.5330(4)
Cu1A_2 Cu 1.25174(14) 1.0000 1.0330(4)
Cu1D Cu 0.24826(14) 0.5000 0.5330(4)
Cu1E_2 Cu 0.75174(14) 1.5000 0.5330(4)
Cu1D_2 Cu 0.24826(14) 1.5000 0.5330(4)
N1B N 0.3965(11) 0.9348(3) 0.9322(9)
N1C N 0.6035(11) 1.0652(3) 0.9322(9)
N1A N 0.3965(11) 1.0652(3) 0.9322(9)
N2B N 0.3432(10) 0.8818(3) 0.8845(8)
N2C N 0.6568(10) 1.1182(3) 0.8845(8)
N2A N 0.3432(10) 1.1182(3) 0.8845(8)
N3A N 0.5000 0.9721(9) 1.466(2)
O1B O 0.3542(9) 0.5682(3) 0.6523(7)
O1C O 0.6458(9) 1.4318(3) 0.6523(7)
O1A O 0.3542(9) 1.4318(3) 0.6523(7)
O1E O 0.8542(9) 0.9318(3) 1.1523(7)
O1F O 0.8542(9) 1.0682(3) 1.1523(7)
O1G O 0.1458(9) 0.9318(3) 1.1523(7)
O1D O 0.1458(9) 1.0682(3) 1.1523(7)
O3_2 O 0.0000 1.0000 0.878(2)
H9A H 0.5000 0.9561 1.5677
H10C H 0.3899 0.9889 1.6401
H10A H 0.6101 0.9889 1.6401
H10B H 0.6101 1.0111 1.6401
loop_
_geom_bond_atom_site_label_1
_geom_bond_atom_site_label_2
_geom_bond_site_symmetry_1
_geom_bond_site_symmetry_2
C1 C2 1_555 1_555
C2 H1 1_555 1_555
C3 C2 1_555 1_555
H2 C3 1_555 1_555
C4 C3 1_555 1_555
C5 C4 1_555 1_555
C6 C1 1_555 1_555
C7 H3 1_555 1_555
H3 C8 1_555 1_555
C8 H4 1_555 1_555
H5 C8 1_555 1_555
C9 H6 1_555 1_555
C10 C9 1_555 1_555
H7 C10 1_555 1_555
H8 C10 1_555 1_555
Cu1 N1 1_555 1_555
N1 N2 1_555 1_555
N2 C6 1_555 1_555
N3 C7 1_555 1_555
O1 C5 1_555 1_555
O2 C7 1_555 1_555
O3 C9 1_555 1_555
C11 N3 1_555 1_555
H9 N3 1_555 1_555
H10 C11 1_555 1_555
C1A C2C 1_555 1_555
C2B C1 1_555 1_555
C2C H1C 1_555 1_555
C2A C1A 1_555 1_555
H1B C2B 1_555 1_555
H1A C2A 1_555 1_555
C3B C4 1_555 1_555
C3C C2C 1_555 1_555
C3A C2A 1_555 1_555
H2B C3B 1_555 1_555
H2C C3C 1_555 1_555
H2A C3A 1_555 1_555
C4A C3C 1_555 1_555
C5A C4A 1_555 1_555
C6A C1A 1_555 1_555
H3A C7 1_555 1_555
C8A N3 1_555 1_555
H4A C8A 1_555 1_555
H5B C8 1_555 1_555
H5A C8A 1_555 1_555
H5C C8A 1_555 1_555
C9A C9 1_555 1_555
H6A C9A 1_555 1_555
H6C C9A 1_555 1_555
H6B C9 1_555 1_555
H7A C10 1_555 1_555
H8A C10 1_555 1_555
H8B C10 1_555 1_555
H8C C10 1_555 1_555
Cu1A O2 1_555 1_555
Cu1E O1 1_555 1_555
Cu1A_2 O3 1_555 1_555
Cu1D O1B 1_555 1_555
Cu1E_2 O1C 1_555 1_555
Cu1D_2 O1A 1_555 1_555
N1B N1 1_555 1_555
N1C Cu1 1_555 1_555
N1A Cu1A 1_555 1_555
N2B C6 1_555 1_555
N2C C6A 1_555 1_555
N2A C6A 1_555 1_555
N3A C7 1_555 1_555
O1B C5 1_555 1_555
O1C C5A 1_555 1_555
O1A C5A 1_555 1_555
O1E Cu1 1_555 1_555
O1F Cu1 1_555 1_555
O1G Cu1A 1_555 1_555
O1D Cu1A 1_555 1_555
O3_2 Cu1A 1_555 1_555
H9A C11 1_555 1_555
H10C C11 1_555 1_555
H10A C11 1_555 1_555
H10B C11 1_555 1_555
H3 N3A 1_555 1_555
C8 N3A 1_555 1_555
C10 C9A 1_555 1_555
Cu1 O2 1_555 1_555
Cu1 O3 1_555 1_555
N3 H3A 1_555 1_555
N3 N3A 1_555 1_555
O3 C9A 1_555 1_555
C11 H9 1_555 1_555
C11 N3A 1_555 1_555
H10 H10C 1_555 1_555
C2B C3B 1_555 1_555
C3A C4A 1_555 1_555
H3A C8A 1_555 1_555
Cu1A N1B 1_555 1_555
N1B N2B 1_555 1_555
N1C N1A 1_555 1_555
N1C N2C 1_555 1_555
N1A N2A 1_555 1_555
N3A H9A 1_555 1_555
H10A H10B 1_555 1_555

#END
