
#######################################################################
#
#                 Cambridge Crystallographic Data Centre
#                                CCDC 
#
#######################################################################
#
# If this CIF has been generated from an entry in the Cambridge 
# Structural Database, then it will include bibliographic, chemical, 
# crystal, experimental, refinement or atomic coordinate data resulting 
# from the CCDC's data processing and validation procedures.
#
#######################################################################

data_KUKWEV
_chemical_formula_moiety         '(C16 H8 Al2 O10)n,3.2(C1 O2)'
_chemical_name_systematic        
"catena-[(\m- [1,1'-biphenyl]-3,3',5,5'-tetracarboxylato)-bis(\m-hydroxo)-di-aluminium carbon dioxide]"
_symmetry_cell_setting           tetragonal
_symmetry_space_group_name_H-M   'I 41 2 2'
_symmetry_Int_Tables_number      98
_space_group_name_Hall           'I 4bw 2bw'
loop_
_symmetry_equiv_pos_site_id
_symmetry_equiv_pos_as_xyz
1 x,y,z
2 1/2-x,y,3/4-z
3 -y,-x,-z
4 -y,1/2+x,1/4+z
5 1/2+y,-x,3/4+z
6 1/2+y,1/2+x,1/2-z
7 x,1/2-y,1/4-z
8 1/2-x,1/2-y,1/2+z
9 1/2+x,1/2+y,1/2+z
10 -x,1/2+y,1/4-z
11 1/2-y,1/2-x,1/2-z
12 1/2-y,x,3/4+z
13 y,1/2-x,1/4+z
14 y,x,-z
15 1/2+x,-y,3/4-z
16 -x,-y,z
_cell_length_a                   14.824318(64)
_cell_length_b                   14.824318(64)
_cell_length_c                   11.805704(51)
_cell_angle_alpha                90
_cell_angle_beta                 90
_cell_angle_gamma                90
_cell_volume                     2594.43
_cell_formula_units_Z            4
loop_
_atom_site_label
_atom_site_type_symbol
_atom_site_fract_x
_atom_site_fract_y
_atom_site_fract_z
_atom_site_U_iso_or_equiv
_atom_site_thermal_displace_type
Al1 Al 0.693060(44) 0.306940(44) 0.500 0.0118 Uiso
O1 O 0.75117(13) 0.250 0.625 0.0104 Uiso
O2 O 0.62152(22) 0.37975(22) 0.60276(28) 0.0104 Uiso
O3 O 0.60511(22) 0.28380(22) 0.75032(28) 0.0104 Uiso
C1 C 0.59215(19) 0.36044(15) 0.70222(15) 0.0174 Uiso
C2 C 0.540779(78) 0.430025(61) 0.76456(13) 0.0174 Uiso
C3 C 0.500 0.500 0.70584(14) 0.0174 Uiso
C4 C 0.540779(78) 0.430025(61) 0.88199(13) 0.0174 Uiso
C5 C 0.500 0.500 0.94071(14) 0.0174 Uiso
H1 H 0.8123(17) 0.250 0.625 0.0104 Uiso
H2 H 0.500 0.500 0.6289(11) 0.0174 Uiso
H3 H 0.56750(38) 0.38417(64) 0.92047(55) 0.0174 Uiso
O2B O 0.62025(22) 0.37848(22) 1.39724(28) 0.0104 Uiso
O3B O 0.71620(22) 0.39489(22) 1.24968(28) 0.0104 Uiso
C1B C 0.63956(15) 0.40785(19) 1.29778(15) 0.0174 Uiso
C2B C 0.569975(61) 0.459221(78) 1.23544(13) 0.0174 Uiso
C3B C 0.500 0.500 1.29416(14) 0.0174 Uiso
C4B C 0.569975(61) 0.459221(78) 1.11801(13) 0.0174 Uiso
C5B C 0.500 0.500 1.05929(14) 0.0174 Uiso
H2B H 0.500 0.500 1.3711(11) 0.0174 Uiso
H3B H 0.61583(64) 0.43250(38) 1.07953(55) 0.0174 Uiso
O2M O 0.37975(22) 0.62152(22) 1.39724(28) 0.0104 Uiso
O3M O 0.28380(22) 0.60511(22) 1.24968(28) 0.0104 Uiso
C1M C 0.36044(15) 0.59215(19) 1.29778(15) 0.0174 Uiso
C2M C 0.430025(61) 0.540779(78) 1.23544(13) 0.0174 Uiso
C4M C 0.430025(61) 0.540779(78) 1.11801(13) 0.0174 Uiso
H3M H 0.38417(64) 0.56750(38) 1.07953(55) 0.0174 Uiso
O2O O 0.37848(22) 0.62025(22) 0.60276(28) 0.0104 Uiso
O3O O 0.39489(22) 0.71620(22) 0.75032(28) 0.0104 Uiso
C1O C 0.40785(19) 0.63956(15) 0.70222(15) 0.0174 Uiso
C2O C 0.459221(78) 0.569975(61) 0.76456(13) 0.0174 Uiso
C4O C 0.459221(78) 0.569975(61) 0.88199(13) 0.0174 Uiso
H3O H 0.43250(38) 0.61583(64) 0.92047(55) 0.0174 Uiso
Al1A Al 0.806940(44) 0.306940(44) 1.250 0.0118 Uiso
O1A O 0.74883(13) 0.250 1.125 0.0104 Uiso
H1A H 0.6877(17) 0.250 1.125 0.0104 Uiso
Al1_2 Al 0.693060(44) 0.306940(44) 1.500 0.0118 Uiso
Al1C Al 0.693060(44) 0.193060(44) 0.750 0.0118 Uiso
Al1E Al 0.806940(44) 0.193060(44) 1.000 0.0118 Uiso
Al1I Al 0.306940(44) 0.806940(44) 0.750 0.0118 Uiso
Al1K Al 0.193060(44) 0.693060(44) 1.250 0.0118 Uiso
Al1M Al 0.306940(44) 0.693060(44) 0.500 0.0118 Uiso
Al1M_2 Al 0.306940(44) 0.693060(44) 1.500 0.0118 Uiso
O1B O 0.750 0.24883(13) 0.375 0.0104 Uiso
O1B_2 O 0.750 0.24883(13) 1.375 0.0104 Uiso
O2A O 0.87848(22) 0.37975(22) 1.14724(28) 0.0104 Uiso
O2B_2 O 0.62025(22) 0.37848(22) 0.39724(28) 0.0104 Uiso
O2D O 0.87975(22) 0.37848(22) 1.35276(28) 0.0104 Uiso
O3D O 0.78380(22) 0.39489(22) 0.50032(28) 0.0104 Uiso
O3F O 0.60511(22) 0.21620(22) 0.49968(28) 0.0104 Uiso
O3G O 0.89489(22) 0.21620(22) 1.25032(28) 0.0104 Uiso
C6 C 0.250 0.35535 0.375 0.2533 Uiso
O4 O 0.32821 0.35535 0.375 0.2533 Uiso
O4A O 0.17179 0.35535 0.375 0.2533 Uiso
O5? O 0.9673(23) 0.250 0.625 0.2533 Uiso
C7? C 1.0335(25) 0.250 0.6676(12) 0.2533 Uiso
O6? O 1.0998(32) 0.250 0.7102(24) 0.2533 Uiso
loop_
_geom_bond_atom_site_label_1
_geom_bond_atom_site_label_2
_geom_bond_site_symmetry_1
_geom_bond_site_symmetry_2
Al1 O1 1_555 1_555
O1 H1 1_555 1_555
O2 Al1 1_555 1_555
O3 C1 1_555 1_555
C1 O2 1_555 1_555
C2 C1 1_555 1_555
C3 C2 1_555 1_555
C4 C2 1_555 1_555
C5 C4 1_555 1_555
H2 C3 1_555 1_555
H3 C4 1_555 1_555
C6 O4 1_555 1_555
O2B C1B 1_555 1_555
O3B C1B 1_555 1_555
C1B C2B 1_555 1_555
C2B C3B 1_555 1_555
C3B H2B 1_555 1_555
C4B C2B 1_555 1_555
C5B C5 1_555 1_555
H3B C4B 1_555 1_555
O2M C1M 1_555 1_555
O3M C1M 1_555 1_555
C1M C2M 1_555 1_555
C2M C3B 1_555 1_555
C4M C5B 1_555 1_555
H3M C4M 1_555 1_555
O2O C1O 1_555 1_555
O3O C1O 1_555 1_555
C1O C2O 1_555 1_555
C2O C3 1_555 1_555
C4O C5 1_555 1_555
H3O C4O 1_555 1_555
Al1A O3B 1_555 1_555
O1A Al1A 1_555 1_555
H1A O1A 1_555 1_555
Al1_2 O2B 1_555 1_555
Al1C O1 1_555 1_555
Al1E O1A 1_555 1_555
Al1I O3O 1_555 1_555
Al1K O3M 1_555 1_555
Al1M O2O 1_555 1_555
Al1M_2 O2M 1_555 1_555
O1B Al1 1_555 1_555
O1B_2 Al1A 1_555 1_555
O2A Al1A 1_555 1_555
O2B_2 Al1 1_555 1_555
O2D Al1A 1_555 1_555
O3D Al1 1_555 1_555
O3F Al1 1_555 1_555
O3G Al1A 1_555 1_555
O4A C6 1_555 1_555
O3 Al1C 1_555 1_555
C4B C5B 1_555 1_555
C2M C4M 1_555 1_555
C2O C4O 1_555 1_555
Al1_2 O1B_2 1_555 1_555

#END
