
#######################################################################
#
#                 Cambridge Crystallographic Data Centre
#                                CCDC 
#
#######################################################################
#
# If this CIF has been generated from an entry in the Cambridge 
# Structural Database, then it will include bibliographic, chemical, 
# crystal, experimental, refinement or atomic coordinate data resulting 
# from the CCDC's data processing and validation procedures.
#
#######################################################################

data_DUXLEP
_chemical_name_common            UPC-12
_chemical_formula_moiety         '(C22 H16 N2 O12 Zn2)n'
_chemical_name_systematic        
"catena-[(\m-dihydrogen cyclohexane-1,2,3,4,5,6-hexacarboxylato)-(4,4'-bipyridine)-di-zinc unknown solvate]"
_symmetry_cell_setting           monoclinic
_symmetry_space_group_name_H-M   'P 2/n'
_symmetry_Int_Tables_number      13
_space_group_name_Hall           '-P 2yac'
loop_
_symmetry_equiv_pos_site_id
_symmetry_equiv_pos_as_xyz
1 x,y,z
2 1/2-x,y,1/2-z
3 -x,-y,-z
4 1/2+x,-y,1/2+z
_cell_length_a                   8.6956(8)
_cell_length_b                   14.1289(9)
_cell_length_c                   10.9783(8)
_cell_angle_alpha                90
_cell_angle_beta                 105.047(9)
_cell_angle_gamma                90
_cell_volume                     1302.54
_exptl_crystal_colour            colorless
_exptl_crystal_description       stick
_cell_formula_units_Z            2
loop_
_atom_site_label
_atom_site_type_symbol
_atom_site_fract_x
_atom_site_fract_y
_atom_site_fract_z
Zn1 Zn 0.2500 0.34127(6) 0.2500
Zn2 Zn 0.2500 0.55020(5) 0.2500
O1 O 0.2644(5) 0.3681(3) 0.4327(4)
O2 O 0.2066(5) 0.5219(3) 0.4217(4)
O3 O 0.4950(5) 0.6342(3) 0.7173(4)
O4 O 0.5189(4) 0.4820(3) 0.6701(4)
O5 O 0.0259(8) 0.2685(5) 0.5676(6)
O6 O 0.2592(10) 0.1899(4) 0.6083(8)
N1 N 0.2500 1.1969(5) 0.2500
N2 N 0.2500 0.6948(5) 0.2500
C1 C 0.2271(7) 0.4440(4) 0.4770(5)
C2 C 0.1978(7) 0.4418(3) 0.6100(5)
H1 H 0.0822 0.4416 0.5983
C3 C 0.2623(7) 0.3515(4) 0.6814(5)
H2 H 0.3763 0.3462 0.6870
C4 C 0.1762(9) 0.2636(5) 0.6140(6)
C5 C 0.2623(6) 0.5341(4) 0.6818(5)
H3 H 0.2007 0.5870 0.6357
C6 C 0.4389(7) 0.5526(3) 0.6893(5)
C7 C 0.3317(10) 0.7440(5) 0.3492(7)
H4 H 0.3883 0.7110 0.4199
C8 C 0.3366(12) 0.8399(5) 0.3522(8)
H5 H 0.3981 0.8711 0.4229
C9 C 0.2500 0.8913(7) 0.2500
C10 C 0.2500 0.9993(6) 0.2500
C11 C 0.1143(19) 1.0494(7) 0.1972(15)
H6 H 0.0199 1.0178 0.1603
C12 C 0.1184(17) 1.1495(8) 0.1993(14)
H7 H 0.0254 1.1828 0.1637
O1A O 0.2356(5) 0.3681(3) 1.0673(4)
O2A O 0.2934(5) 0.5219(3) 1.0783(4)
O5A O 0.4741(8) 0.2685(5) 0.9324(6)
O6A O 0.2408(10) 0.1899(4) 0.8917(8)
C1A C 0.2729(7) 0.4440(4) 1.0230(5)
C2A C 0.3022(7) 0.4418(3) 0.8900(5)
H1A H 0.4178 0.4416 0.9017
C3A C 0.2377(7) 0.3515(4) 0.8186(5)
H2A H 0.1237 0.3462 0.8130
C4A C 0.3238(9) 0.2636(5) 0.8860(6)
C5A C 0.2377(6) 0.5341(4) 0.8182(5)
H3A H 0.2993 0.5870 0.8643
C6A C 0.0611(7) 0.5526(3) 0.8107(5)
O3A O 0.0050(5) 0.6342(3) 0.7827(4)
O4A O -0.0189(4) 0.4820(3) 0.8299(4)
C7A C 0.1683(10) 0.7440(5) 0.1508(7)
H4A H 0.1117 0.7110 0.0801
C8A C 0.1634(12) 0.8399(5) 0.1478(8)
H5A H 0.1019 0.8711 0.0771
C11A C 0.3857(19) 1.0494(7) 0.3028(15)
H6A H 0.4801 1.0178 0.3397
C12A C 0.3816(17) 1.1495(8) 0.3007(14)
H7A H 0.4746 1.1828 0.3363
Zn1_2 Zn 0.2500 0.34127(6) 1.2500
Zn1_3 Zn 0.2500 1.34127(6) 0.2500
Zn1B Zn -0.2500 0.65873(6) 0.7500
Zn1B_2 Zn 0.7500 0.65873(6) 0.7500
Zn2_2 Zn 0.2500 0.55020(5) 1.2500
Zn2B Zn -0.2500 0.44980(5) 0.7500
Zn2B_2 Zn 0.7500 0.44980(5) 0.7500
O1A_2 O 0.2356(5) 0.3681(3) 0.0673(4)
O2A_2 O 0.2934(5) 0.5219(3) 0.0783(4)
O3B O 0.5050(5) 0.3658(3) 0.2827(4)
O3C O -0.0050(5) 0.3658(3) 0.2173(4)
O4B O 0.4811(4) 0.5180(3) 0.3299(4)
O4C O 0.0189(4) 0.5180(3) 0.1701(4)
N1_2 N 0.2500 0.1969(5) 0.2500
C13? C 0.202(3) 1.0451(12) 0.143(2)
H8? H 0.1670 1.0119 0.0680
C14? C 0.204(3) 1.1452(13) 0.143(2)
H9? H 0.1716 1.1767 0.0663
loop_
_geom_bond_atom_site_label_1
_geom_bond_atom_site_label_2
_geom_bond_site_symmetry_1
_geom_bond_site_symmetry_2
Zn1 O1 1_555 1_555
Zn2 O2 1_555 1_555
O1 C1 1_555 1_555
O2 C1 1_555 1_555
O3 C6 1_555 1_555
O4 C6 1_555 1_555
O5 C4 1_555 1_555
O6 C4 1_555 1_555
N1 C12 1_555 1_555
N2 Zn2 1_555 1_555
C1 C2 1_555 1_555
C2 H1 1_555 1_555
C3 C2 1_555 1_555
H2 C3 1_555 1_555
C4 C3 1_555 1_555
C5 C2 1_555 1_555
H3 C5 1_555 1_555
C6 C5 1_555 1_555
C7 N2 1_555 1_555
H4 C7 1_555 1_555
C8 C7 1_555 1_555
H5 C8 1_555 1_555
C9 C8 1_555 1_555
C10 C9 1_555 1_555
C11 C10 1_555 1_555
H6 C11 1_555 1_555
C12 C11 1_555 1_555
H7 C12 1_555 1_555
O1A C1A 1_555 1_555
O2A C1A 1_555 1_555
O5A C4A 1_555 1_555
O6A C4A 1_555 1_555
C1A C2A 1_555 1_555
C2A H1A 1_555 1_555
C3A C3 1_555 1_555
H2A C3A 1_555 1_555
C4A C3A 1_555 1_555
C5A C5 1_555 1_555
H3A C5A 1_555 1_555
C6A C5A 1_555 1_555
O3A C6A 1_555 1_555
O4A C6A 1_555 1_555
C7A N2 1_555 1_555
H4A C7A 1_555 1_555
C8A C9 1_555 1_555
H5A C8A 1_555 1_555
C11A C10 1_555 1_555
H6A C11A 1_555 1_555
C12A N1 1_555 1_555
H7A C12A 1_555 1_555
Zn1_2 O1A 1_555 1_555
Zn1_3 N1 1_555 1_555
Zn1B O3A 1_555 1_555
Zn1B_2 O3 1_555 1_555
Zn2_2 O2A 1_555 1_555
Zn2B O4A 1_555 1_555
Zn2B_2 O4 1_555 1_555
O1A_2 Zn1 1_555 1_555
O2A_2 Zn2 1_555 1_555
O3B Zn1 1_555 1_555
O3C Zn1 1_555 1_555
O4B Zn2 1_555 1_555
O4C Zn2 1_555 1_555
N1_2 Zn1 1_555 1_555
C2A C3A 1_555 1_555
C2A C5A 1_555 1_555
C7A C8A 1_555 1_555
C11A C12A 1_555 1_555

#END
