
#######################################################################
#
#                 Cambridge Crystallographic Data Centre
#                                CCDC 
#
#######################################################################
#
# If this CIF has been generated from an entry in the Cambridge 
# Structural Database, then it will include bibliographic, chemical, 
# crystal, experimental, refinement or atomic coordinate data resulting 
# from the CCDC's data processing and validation procedures.
#
#######################################################################

data_LODTEF01
_chemical_formula_moiety         '(C40 H30 Cd2 N10 O8)n,4n(H2 O1)'
_chemical_name_systematic        
"catena-((\m~4~-2-Aminoterephthalato)-(\m~2~-2-aminoterephthalato)-bis(\m~2~-4,4'-(hydrazine-1,2-diylidenedimethylylidene)dipyridine)-di-cadmium tetrahydrate)"
_symmetry_cell_setting           triclinic
_symmetry_space_group_name_H-M   'P -1'
_symmetry_Int_Tables_number      2
_space_group_name_Hall           '-P 1'
loop_
_symmetry_equiv_pos_site_id
_symmetry_equiv_pos_as_xyz
1 x,y,z
2 -x,-y,-z
_cell_length_a                   10.3881(9)
_cell_length_b                   11.0025(10)
_cell_length_c                   11.0101(10)
_cell_angle_alpha                92.700(4)
_cell_angle_beta                 104.206(4)
_cell_angle_gamma                104.337(4)
_cell_volume                     1174.1
_exptl_crystal_colour            yellow
_exptl_crystal_description       Block
_cell_formula_units_Z            1
loop_
_atom_site_label
_atom_site_type_symbol
_atom_site_fract_x
_atom_site_fract_y
_atom_site_fract_z
N1 N 0.0895(11) -0.0179(8) 0.2728(8)
C1 C 0.1931(14) -0.0758(13) 0.3200(13)
H1 H 0.2738 -0.0587 0.2906
C2 C 0.1787(15) -0.1589(13) 0.4101(13)
H2 H 0.2496 -0.1985 0.4424
C3 C 0.0607(16) -0.1839(10) 0.4531(10)
C4 C -0.0429(16) -0.1260(14) 0.4059(14)
H3 H -0.1236 -0.1432 0.4352
C5 C -0.0286(13) -0.0430(12) 0.3157(13)
H4 H -0.0994 -0.0034 0.2835
C6 C -0.0315(13) -0.6780(13) 0.9571(13)
H5 H -0.1025 -0.7064 0.9978
C7 C -0.0444(16) -0.5918(14) 0.8696(14)
H6 H -0.1242 -0.5613 0.8505
C8 C 0.0594(15) -0.5502(10) 0.8101(10)
C9 C 0.1761(15) -0.5949(13) 0.8381(13)
H7 H 0.2471 -0.5664 0.7975
C10 C 0.1890(13) -0.6811(13) 0.9256(13)
H8 H 0.2688 -0.7116 0.9448
N2 N 0.0852(11) -0.7227(8) 0.9851(8)
Cd1 Cd 0.08723(9) 0.13590(9) 0.13555(9)
O1 O -0.1457(10) -0.0004(11) -0.0005(11)
O2 O -0.1303(10) 0.1479(12) 0.1465(12)
O3 O 0.1716(12) 0.2975(13) 0.2985(13)
C11 C -0.3581(15) 0.0298(15) 0.0286(15)
C12 C 0.4012(13) 0.4100(12) 0.4083(12)
O4 O 0.3331(12) 0.2424(13) 0.2419(14)
C13 C -0.4230(16) 0.0948(17) 0.0942(17)
C14 C -0.4382(15) -0.0642(17) -0.0628(17)
H9 H -0.3944 -0.1107 -0.1067
C15 C -0.2014(14) 0.0626(16) 0.0619(15)
C16 C 0.2970(17) 0.3108(14) 0.3110(15)
C17 C 0.366(2) 0.481(3) 0.481(3)
C18 C 0.5349(18) 0.427(3) 0.425(3)
H10 H 0.5659 0.3763 0.3724
N3 N 0.148(3) -0.435(3) 0.676(3)
C19 C 0.059(3) -0.288(2) 0.544(2)
H11 H -0.0166 -0.3161 0.5797
N4 N -0.361(3) 0.186(4) 0.180(4)
H12 H -0.4087 0.2255 0.2160
H13 H -0.2703 0.2097 0.2043
C20 C 0.063(3) -0.454(2) 0.708(3)
H14 H -0.0103 -0.4158 0.6784
N5 N 0.144(3) -0.327(3) 0.566(3)
N6 N 0.255(8) 0.442(11) 0.535(10)
H15 H 0.2046 0.3627 0.5191
H16 H 0.2368 0.4959 0.5850
O2A O -0.8697(10) -0.1479(12) -0.1465(12)
C11A C -0.6419(15) -0.0298(15) -0.0286(15)
C13A C -0.5770(16) -0.0948(17) -0.0942(17)
C14A C -0.5618(15) 0.0642(17) 0.0628(17)
H9A H -0.6056 0.1107 0.1067
C15A C -0.7986(14) -0.0626(16) -0.0619(15)
N4A N -0.639(3) -0.186(4) -0.180(4)
H12A H -0.5913 -0.2255 -0.2160
H13A H -0.7297 -0.2097 -0.2043
O1A O -0.8543(10) 0.0004(11) 0.0005(11)
O3A O 0.8284(12) 0.7025(13) 0.7015(13)
C12A C 0.5988(13) 0.5900(12) 0.5917(12)
O4A O 0.6669(12) 0.7576(13) 0.7581(14)
C16A C 0.7030(17) 0.6892(14) 0.6890(15)
C17A C 0.634(2) 0.519(3) 0.519(3)
C18A C 0.4651(18) 0.573(3) 0.575(3)
H10A H 0.4341 0.6237 0.6276
N6A N 0.745(8) 0.558(11) 0.465(10)
H15A H 0.7954 0.6373 0.4809
H16A H 0.7632 0.5041 0.4150
N1A N -1.0895(11) 0.0179(8) -0.2728(8)
C1A C -1.1931(14) 0.0758(13) -0.3200(13)
H1A H -1.2738 0.0587 -0.2906
C2A C -1.1787(15) 0.1589(13) -0.4101(13)
H2A H -1.2496 0.1985 -0.4424
C3A C -1.0607(16) 0.1839(10) -0.4531(10)
C4A C -0.9571(16) 0.1260(14) -0.4059(14)
H3A H -0.8764 0.1432 -0.4352
C5A C -0.9714(13) 0.0430(12) -0.3157(13)
H4A H -0.9006 0.0034 -0.2835
C6A C -0.9685(13) 0.6780(13) -0.9571(13)
H5A H -0.8975 0.7064 -0.9978
C7A C -0.9556(16) 0.5918(14) -0.8696(14)
H6A H -0.8758 0.5613 -0.8505
C8A C -1.0594(15) 0.5502(10) -0.8101(10)
C9A C -1.1761(15) 0.5949(13) -0.8381(13)
H7A H -1.2471 0.5664 -0.7975
C10A C -1.1890(13) 0.6811(13) -0.9256(13)
H8A H -1.2688 0.7116 -0.9448
N2A N -1.0852(11) 0.7227(8) -0.9851(8)
Cd1A Cd -1.08723(9) -0.13590(9) -0.13555(9)
N3A N -1.148(3) 0.435(3) -0.676(3)
C19A C -1.059(3) 0.288(2) -0.544(2)
H11A H -0.9834 0.3161 -0.5797
C20A C -1.063(3) 0.454(2) -0.708(3)
H14A H -0.9897 0.4158 -0.6784
N5A N -1.144(3) 0.327(3) -0.566(3)
N2_2 N 0.0852(11) 0.2773(8) -0.0149(8)
N2A_2 N -1.0852(11) -0.2773(8) 0.0149(8)
Cd1_2 Cd -0.91277(9) 0.13590(9) 0.13555(9)
Cd1_3 Cd 0.08723(9) -0.86410(9) 1.13555(9)
Cd1A_2 Cd -1.08723(9) 0.86410(9) -1.13555(9)
Cd1A_3 Cd -0.08723(9) -0.13590(9) -0.13555(9)
Cd1A_4 Cd 0.91277(9) 0.86410(9) 0.86445(9)
O1_2 O -1.1457(10) -0.0004(11) -0.0005(11)
O1A_2 O 0.1457(10) 0.0004(11) 0.0005(11)
O3A_2 O -1.1716(12) -0.2975(13) -0.2985(13)
O4A_2 O -1.3331(12) -0.2424(13) -0.2419(14)
loop_
_geom_bond_atom_site_label_1
_geom_bond_atom_site_label_2
_geom_bond_site_symmetry_1
_geom_bond_site_symmetry_2
N1 C1 1_555 1_555
C1 H1 1_555 1_555
C2 C1 1_555 1_555
H2 C2 1_555 1_555
C3 C2 1_555 1_555
C4 C3 1_555 1_555
H3 C4 1_555 1_555
C5 N1 1_555 1_555
H4 C5 1_555 1_555
C6 H5 1_555 1_555
C7 C6 1_555 1_555
H6 C7 1_555 1_555
C8 C7 1_555 1_555
C9 C8 1_555 1_555
H7 C9 1_555 1_555
C10 C9 1_555 1_555
H8 C10 1_555 1_555
N2 C6 1_555 1_555
Cd1 N1 1_555 1_555
O1 Cd1 1_555 1_555
O2 Cd1 1_555 1_555
O3 Cd1 1_555 1_555
C11 C13 1_555 1_555
C12 C16 1_555 1_555
O4 Cd1 1_555 1_555
C13 N4 1_555 1_555
C14 C11 1_555 1_555
H9 C14 1_555 1_555
C15 O1 1_555 1_555
C16 O3 1_555 1_555
C17 C12 1_555 1_555
C18 C12 1_555 1_555
H10 C18 1_555 1_555
N3 C20 1_555 1_555
C19 C3 1_555 1_555
H11 C19 1_555 1_555
N4 H12 1_555 1_555
H13 N4 1_555 1_555
C20 C8 1_555 1_555
H14 C20 1_555 1_555
N5 N3 1_555 1_555
N6 C17 1_555 1_555
H15 N6 1_555 1_555
H16 N6 1_555 1_555
O2A C15A 1_555 1_555
C11A C13A 1_555 1_555
C13A C14 1_555 1_555
C14A C13 1_555 1_555
H9A C14A 1_555 1_555
C15A C11A 1_555 1_555
N4A C13A 1_555 1_555
H12A N4A 1_555 1_555
H13A N4A 1_555 1_555
O1A C15A 1_555 1_555
O3A C16A 1_555 1_555
C12A C16A 1_555 1_555
O4A C16A 1_555 1_555
C17A C18 1_555 1_555
C18A C17 1_555 1_555
H10A C18A 1_555 1_555
N6A C17A 1_555 1_555
H15A N6A 1_555 1_555
H16A N6A 1_555 1_555
N1A C1A 1_555 1_555
C1A H1A 1_555 1_555
C2A C1A 1_555 1_555
H2A C2A 1_555 1_555
C3A C2A 1_555 1_555
C4A C3A 1_555 1_555
H3A C4A 1_555 1_555
C5A N1A 1_555 1_555
H4A C5A 1_555 1_555
C6A H5A 1_555 1_555
C7A C6A 1_555 1_555
H6A C7A 1_555 1_555
C8A C7A 1_555 1_555
C9A C8A 1_555 1_555
H7A C9A 1_555 1_555
C10A C9A 1_555 1_555
H8A C10A 1_555 1_555
N2A C6A 1_555 1_555
Cd1A O2A 1_555 1_555
N3A C20A 1_555 1_555
C19A C3A 1_555 1_555
H11A C19A 1_555 1_555
C20A C8A 1_555 1_555
H14A C20A 1_555 1_555
N5A N3A 1_555 1_555
N2_2 Cd1 1_555 1_555
N2A_2 Cd1A 1_555 1_555
Cd1_2 O1A 1_555 1_555
Cd1_3 N2 1_555 1_555
Cd1A_2 N2A 1_555 1_555
Cd1A_3 O1 1_555 1_555
Cd1A_4 O3A 1_555 1_555
O1_2 Cd1A 1_555 1_555
O1A_2 Cd1 1_555 1_555
O3A_2 Cd1A 1_555 1_555
O4A_2 Cd1A 1_555 1_555
C4 C5 1_555 1_555
C10 N2 1_555 1_555
O2 C15 1_555 1_555
C11 C15 1_555 1_555
O4 C16 1_555 1_555
C19 N5 1_555 1_555
C11A C14A 1_555 1_555
O1A Cd1A 1_555 1_555
C12A C17A 1_555 1_555
C12A C18A 1_555 1_555
O4A Cd1A_4 1_555 1_555
N1A Cd1A 1_555 1_555
C4A C5A 1_555 1_555
C10A N2A 1_555 1_555
C19A N5A 1_555 1_555
Cd1_2 O1_2 1_555 1_555
Cd1A_3 O1A_2 1_555 1_555

#END
