
#######################################################################
#
#                 Cambridge Crystallographic Data Centre
#                                CCDC 
#
#######################################################################
#
# If this CIF has been generated from an entry in the Cambridge 
# Structural Database, then it will include bibliographic, chemical, 
# crystal, experimental, refinement or atomic coordinate data resulting 
# from the CCDC's data processing and validation procedures.
#
#######################################################################

data_KEDPUG
_chemical_formula_moiety         '(C43 H34 Cu1 N2 O7)n,n(C4 H9 N1 O1)'
_chemical_name_systematic        
"catena-((\m~4~-Hydrogen tris(4'-carboxylato-1,1'-biphenyl-4-yl)amine)-dimethylacetamide-copper dimethylacetamide solvate)"
_symmetry_cell_setting           monoclinic
_symmetry_space_group_name_H-M   'P 21/c'
_symmetry_Int_Tables_number      14
_space_group_name_Hall           '-P 2ybc'
loop_
_symmetry_equiv_pos_site_id
_symmetry_equiv_pos_as_xyz
1 x,y,z
2 -x,1/2+y,1/2-z
3 -x,-y,-z
4 x,1/2-y,1/2+z
_cell_length_a                   18.023(4)
_cell_length_b                   18.952(4)
_cell_length_c                   12.389(3)
_cell_angle_alpha                90
_cell_angle_beta                 90.84(3)
_cell_angle_gamma                90
_cell_volume                     4231.28
_cell_formula_units_Z            4
loop_
_atom_site_label
_atom_site_type_symbol
_atom_site_fract_x
_atom_site_fract_y
_atom_site_fract_z
_atom_site_U_iso_or_equiv
_atom_site_thermal_displace_type
Cu1 Cu 0.01808(4) 0.44387(4) 1.05852(6) 0.0795 Uani
N1 N 0.4154(3) 0.3173(3) 0.2465(4) 0.0881 Uani
O1 O 0.0768(3) 0.4117(3) 0.9361(4) 0.1023 Uani
C1 C 0.4802(4) 0.2779(3) 0.2733(5) 0.0807 Uani
C2 C 0.6075(4) 0.1988(3) 0.3238(5) 0.0832 Uani
C3 C 0.3319(4) 0.4074(3) 0.0108(5) 0.0916 Uani
H1 H 0.2845 0.4186 -0.0145 0.1100 Uiso
C4 C 0.4094(4) 0.3530(3) 0.1456(5) 0.0794 Uani
C5 C 0.3457(4) 0.4049(3) 0.3489(5) 0.0897 Uani
H2 H 0.3620 0.4402 0.3028 0.1080 Uiso
C6 C 0.1300(4) 0.4276(4) 0.7628(5) 0.0934 Uani
C7 C 0.2263(4) 0.3899(4) 0.5971(6) 0.0947 Uani
C8 C 0.3933(5) 0.4289(3) -0.0473(5) 0.0911 Uani
C9 C 0.2753(4) 0.3714(3) 0.5057(5) 0.0881 Uani
C10 C 0.5794(4) 0.2489(3) 0.3944(5) 0.0886 Uani
H3 H 0.6027 0.2554 0.4610 0.1060 Uiso
C11 C 0.6770(4) 0.1612(3) 0.3504(6) 0.0879 Uani
C12 C 0.2299(4) 0.3568(4) 0.6963(5) 0.1034 Uani
H4 H 0.2656 0.3221 0.7083 0.1240 Uiso
C13 C 0.1731(5) 0.4430(4) 0.5814(6) 0.1117 Uani
H5 H 0.1683 0.4656 0.5151 0.1340 Uiso
C14 C 0.0797(4) 0.4481(4) 0.8521(6) 0.0931 Uani
C15 C 0.5182(4) 0.2889(3) 0.3686(5) 0.0891 Uani
H6 H 0.5024 0.3236 0.4161 0.1070 Uiso
C16 C 0.3677(4) 0.3359(3) 0.3330(5) 0.0828 Uani
C17 C 0.5698(4) 0.1878(3) 0.2278(6) 0.0902 Uani
H7 H 0.5872 0.1541 0.1798 0.1080 Uiso
C18 C 0.3832(5) 0.4719(4) -0.1474(6) 0.1062 Uani
C19 C 0.3401(4) 0.3698(3) 0.1049(5) 0.0872 Uani
H8 H 0.2981 0.3554 0.1418 0.1050 Uiso
C20 C 0.5063(4) 0.2259(3) 0.2010(5) 0.0895 Uani
H9 H 0.4812 0.2173 0.1363 0.1080 Uiso
C21 C 0.3437(4) 0.2846(3) 0.4038(5) 0.0950 Uani
H10 H 0.3575 0.2379 0.3930 0.1140 Uiso
C22 C 0.4711(4) 0.3743(3) 0.0890(5) 0.0962 Uani
H11 H 0.5184 0.3642 0.1157 0.1160 Uiso
C23 C 0.2998(4) 0.4212(3) 0.4327(5) 0.0941 Uani
H12 H 0.2845 0.4677 0.4409 0.1130 Uiso
C24 C 0.2998(4) 0.3016(3) 0.4900(5) 0.0956 Uani
H13 H 0.2861 0.2666 0.5384 0.1140 Uiso
C25 C 0.1822(4) 0.3738(4) 0.7778(6) 0.1047 Uani
H14 H 0.1846 0.3495 0.8430 0.1260 Uiso
C26 C 0.4623(4) 0.4111(4) -0.0089(6) 0.1001 Uani
H15 H 0.5040 0.4235 -0.0480 0.1200 Uiso
O2 O 0.3849(6) 0.5823(4) -0.5204(6) 0.1907 Uani
C27 C 0.3451(11) 0.5826(6) -0.4423(11) 0.1656 Uani
C28 C 0.3589(8) 0.5467(5) -0.3392(7) 0.1368 Uani
C29 C 0.1273(4) 0.4614(5) 0.6667(6) 0.1137 Uani
H16 H 0.0937 0.4982 0.6571 0.1360 Uiso
C30 C 0.4301(6) 0.4648(4) -0.2354(6) 0.1237 Uani
H17 H 0.4711 0.4351 -0.2298 0.1490 Uiso
C31 C 0.3240(6) 0.5188(4) -0.1551(7) 0.1346 Uani
H18 H 0.2935 0.5261 -0.0963 0.1610 Uiso
C32 C 0.3105(7) 0.5560(5) -0.2546(9) 0.1522 Uani
H19 H 0.2697 0.5858 -0.2621 0.1820 Uiso
O3 O 0.2794(7) 0.6152(4) -0.4433(6) 0.2007 Uani
H20 H 0.2728 0.6346 -0.5018 0.3010 Uiso
C33 C 0.4170(6) 0.5007(5) -0.3305(7) 0.1381 Uani
H21 H 0.4478 0.4937 -0.3890 0.1660 Uiso
O4 O 0.0431(3) 0.5052(3) 0.8374(4) 0.1050 Uani
C34 C 0.7564(4) 0.0590(3) 0.3414(6) 0.0899 Uani
H22 H 0.7642 0.0132 0.3174 0.1080 Uiso
C35 C 0.6911(4) 0.0927(3) 0.3168(6) 0.0947 Uani
H23 H 0.6550 0.0690 0.2763 0.1140 Uiso
C36 C 0.8114(4) 0.0931(3) 0.4022(5) 0.0886 Uani
C37 C 0.7330(5) 0.1938(4) 0.4100(8) 0.1290 Uani
H24 H 0.7255 0.2399 0.4334 0.1550 Uiso
C38 C 0.7982(4) 0.1618(4) 0.4358(7) 0.1213 Uani
H25 H 0.8340 0.1858 0.4762 0.1460 Uiso
O5 O 0.8938(2) -0.0036(2) 0.3954(4) 0.0933 Uani
O6 O 0.9276(3) 0.0919(2) 0.4924(4) 0.0974 Uani
O7 O 0.0306(4) 0.3562(3) 1.1656(6) 0.1463 Uani
C39 C 0.8829(4) 0.0580(4) 0.4334(6) 0.0888 Uani
C40 C 0.0621(8) 0.3396(6) 1.2393(12) 0.1487 Uani
N2 N 0.0502(10) 0.3204(8) 1.3356(14) 0.2444 Uani
C41 C 0.1469(11) 0.3255(11) 1.2222(17) 0.2877 Uani
H26 H 0.1529 0.2835 1.1800 0.4310 Uiso
H27 H 0.1712 0.3196 1.2911 0.4310 Uiso
H28 H 0.1684 0.3648 1.1852 0.4310 Uiso
C42 C -0.0106(16) 0.3449(17) 1.408(2) 0.3979 Uani
H29 H 0.0060 0.3852 1.4482 0.5970 Uiso
H30 H -0.0237 0.3076 1.4562 0.5970 Uiso
H31 H -0.0532 0.3577 1.3645 0.5970 Uiso
C43 C 0.0895(10) 0.2817(10) 1.4242(14) 0.2711 Uani
H32 H 0.1082 0.2378 1.3970 0.4060 Uiso
H33 H 0.0556 0.2725 1.4816 0.4060 Uiso
H34 H 0.1301 0.3098 1.4510 0.4060 Uiso
Cu1B Cu -0.01808(4) 0.55613(4) 0.94148(6) 0.0795 Uani
Cu1A Cu 0.98192(4) -0.05613(4) 0.44148(6) 0.0795 Uani
Cu1C Cu 1.01808(4) 0.05613(4) 0.55852(6) 0.0795 Uani
O4B O -0.0431(3) 0.4948(3) 1.1626(4) 0.1050 Uani
O5A O 0.1062(2) 0.4964(2) 1.1046(4) 0.0933 Uani
O6C O -0.0724(3) 0.4081(2) 0.9924(4) 0.0974 Uani
O8 O 0.2223(10) 0.6824(7) 0.3878(7) 0.2800 Uani
N3 N 0.093(13) 0.665(3) 0.379(12) 2.0000 Uani
C44 C 0.1718(16) 0.7628(18) 0.3058(17) 0.4416 Uani
H35 H 0.1435 0.7778 0.2437 0.6610 Uiso
H36 H 0.2236 0.7627 0.2890 0.6610 Uiso
H37 H 0.1633 0.7947 0.3646 0.6610 Uiso
C45 C 0.0498(13) 0.6840(12) 0.2812(19) 0.3525 Uani
H38 H 0.0452 0.7344 0.2763 0.5290 Uiso
H39 H 0.0013 0.6633 0.2850 0.5290 Uiso
H40 H 0.0746 0.6665 0.2186 0.5290 Uiso
C46 C 0.1060(15) 0.589(2) 0.3652(14) 0.5499 Uani
H41 H 0.0746 0.5716 0.3079 0.8250 Uiso
H42 H 0.0947 0.5647 0.4310 0.8250 Uiso
H43 H 0.1570 0.5809 0.3475 0.8250 Uiso
C47 C 0.1477(19) 0.6882(16) 0.338(3) 0.2922 Uani
loop_
_atom_site_aniso_label
_atom_site_aniso_U_11
_atom_site_aniso_U_22
_atom_site_aniso_U_33
_atom_site_aniso_U_23
_atom_site_aniso_U_13
_atom_site_aniso_U_12
Cu1 0.0807(6) 0.0807(5) 0.0776(5) -0.0004(3) 0.0198(4) -0.0054(3)
N1 0.103(4) 0.089(3) 0.073(3) 0.009(2) 0.025(3) 0.028(3)
O1 0.108(4) 0.111(3) 0.089(3) -0.004(3) 0.034(3) 0.008(3)
C1 0.093(4) 0.083(4) 0.067(4) 0.005(3) 0.027(3) 0.011(3)
C2 0.092(4) 0.076(4) 0.082(4) -0.006(3) 0.015(4) 0.012(3)
C3 0.111(5) 0.090(4) 0.074(4) 0.002(3) 0.004(4) 0.007(4)
C4 0.101(5) 0.073(3) 0.065(3) 0.003(3) 0.025(3) 0.018(3)
C5 0.123(5) 0.075(4) 0.072(4) 0.003(3) 0.028(4) 0.007(3)
C6 0.108(5) 0.099(5) 0.074(4) -0.008(3) 0.026(4) 0.009(4)
C7 0.100(5) 0.101(5) 0.084(4) -0.005(3) 0.028(4) 0.013(4)
C8 0.125(6) 0.086(4) 0.063(4) 0.010(3) 0.021(4) 0.014(4)
C9 0.098(5) 0.096(4) 0.071(4) 0.001(3) 0.024(3) 0.019(3)
C10 0.094(5) 0.089(4) 0.083(4) -0.002(3) 0.008(4) 0.014(3)
C11 0.083(4) 0.080(4) 0.101(5) -0.008(3) 0.011(4) 0.012(3)
C12 0.115(6) 0.122(5) 0.074(4) 0.008(4) 0.031(4) 0.028(4)
C13 0.135(6) 0.116(6) 0.085(5) 0.012(4) 0.037(5) 0.037(5)
C14 0.097(5) 0.099(5) 0.084(5) -0.017(4) 0.023(4) 0.002(4)
C15 0.108(5) 0.083(4) 0.077(4) -0.012(3) 0.025(4) 0.015(4)
C16 0.095(4) 0.081(4) 0.073(4) 0.002(3) 0.022(3) 0.018(3)
C17 0.099(5) 0.082(4) 0.090(5) -0.009(3) 0.018(4) 0.022(3)
C18 0.146(7) 0.079(4) 0.094(5) 0.008(4) 0.015(5) 0.002(4)
C19 0.100(5) 0.078(4) 0.084(4) 0.001(3) 0.013(4) -0.003(3)
C20 0.111(5) 0.090(4) 0.068(4) -0.005(3) 0.015(4) 0.017(4)
C21 0.114(5) 0.081(4) 0.091(4) 0.016(3) 0.036(4) 0.028(4)
C22 0.104(5) 0.096(5) 0.089(4) 0.016(4) 0.017(4) 0.016(4)
C23 0.123(6) 0.079(4) 0.081(4) -0.004(3) 0.028(4) 0.013(4)
C24 0.115(5) 0.086(4) 0.087(4) 0.022(3) 0.038(4) 0.024(4)
C25 0.104(5) 0.132(6) 0.079(4) 0.009(4) 0.027(4) 0.009(4)
C26 0.126(6) 0.088(4) 0.087(4) 0.017(4) 0.025(4) 0.010(4)
O2 0.339(13) 0.150(6) 0.083(4) 0.026(4) 0.000(6) -0.063(7)
C27 0.276(17) 0.095(6) 0.124(9) 0.025(6) -0.056(11) -0.033(8)
C28 0.225(12) 0.111(7) 0.074(5) 0.025(5) -0.015(7) -0.039(7)
C29 0.119(6) 0.130(6) 0.093(5) 0.001(4) 0.035(5) 0.021(5)
C30 0.165(8) 0.120(6) 0.087(5) 0.020(4) 0.033(5) 0.009(5)
C31 0.195(9) 0.103(6) 0.106(6) 0.018(5) 0.004(6) 0.019(6)
C32 0.210(11) 0.129(7) 0.117(7) 0.039(6) -0.020(8) 0.012(7)
O3 0.326(12) 0.141(6) 0.133(6) 0.056(5) -0.071(8) -0.030(7)
C33 0.208(10) 0.112(6) 0.095(6) 0.018(5) 0.024(6) -0.003(7)
O4 0.106(3) 0.123(4) 0.087(3) -0.001(3) 0.038(3) 0.007(3)
C34 0.088(4) 0.072(4) 0.110(5) -0.006(3) 0.014(4) 0.005(3)
C35 0.091(5) 0.083(4) 0.110(5) -0.014(4) 0.002(4) 0.005(3)
C36 0.084(4) 0.089(4) 0.093(4) 0.000(3) 0.012(4) 0.006(3)
C37 0.125(6) 0.090(5) 0.171(8) -0.044(5) -0.028(6) 0.033(5)
C38 0.106(5) 0.096(5) 0.161(8) -0.035(5) -0.030(5) 0.022(4)
O5 0.092 0.086 0.102 -0.006 0.003 0.016
O6 0.093 0.099 0.1 -0.016 -0.004 0.006
O7 0.150(5) 0.144(5) 0.144(5) 0.069(4) -0.029(5) -0.018(4)
C39 0.08 0.101 0.086 0.019 0.021 0.02
C40 0.172(8) 0.128(6) 0.147(7) 0.023(6) 0.037(7) -0.002(6)
N2 0.260(9) 0.256(9) 0.217(9) 0.037(8) -0.004(8) 0.058(8)
C41 0.256(11) 0.289(12) 0.318(12) 0.023(9) 0.005(9) 0.011(9)
C42 0.387(18) 0.407(18) 0.400(18) -0.012(10) 0.018(10) 0.013(10)
C43 0.289(11) 0.269(11) 0.254(11) 0.027(9) -0.040(9) 0.025(9)
Cu1B 0.0807 0.0807 0.0776 -0.0004 0.0198 -0.0054
Cu1A 0.0807 0.0807 0.0776 0.0004 0.0198 0.0054
Cu1C 0.0807 0.0807 0.0776 0.0004 0.0198 0.0054
O4B 0.106 0.123 0.087 -0.001 0.038 0.007
O5A 0.092 0.086 0.102 0.006 0.003 -0.016
O6C 0.093 0.099 0.1 0.016 -0.004 -0.006
O8 0.43(2) 0.276(12) 0.134(7) 0.004(7) 0.005(10) 0.145(13)
N3 2.0(2) 2.0(2) 2.0(2) 0.000(10) 0.034(11) -0.001(10)
C44 0.40(4) 0.70(7) 0.23(2) -0.20(3) 0.18(3) -0.09(4)
C45 0.34(3) 0.40(3) 0.32(3) -0.15(3) 0.09(2) -0.11(2)
C46 0.30(3) 1.24(12) 0.111(12) 0.01(3) 0.043(16) 0.29(5)
C47 0.295(15) 0.296(14) 0.286(15) 0.002(9) 0.020(10) 0.022(10)
loop_
_geom_bond_atom_site_label_1
_geom_bond_atom_site_label_2
_geom_bond_site_symmetry_1
_geom_bond_site_symmetry_2
Cu1 O1 1_555 1_555
N1 C1 1_555 1_555
O1 C14 1_555 1_555
C1 C15 1_555 1_555
C2 C10 1_555 1_555
C3 H1 1_555 1_555
C4 N1 1_555 1_555
C5 H2 1_555 1_555
C6 C14 1_555 1_555
C7 C9 1_555 1_555
C8 C3 1_555 1_555
C9 C23 1_555 1_555
C10 H3 1_555 1_555
C11 C2 1_555 1_555
C12 C7 1_555 1_555
H4 C12 1_555 1_555
C13 C7 1_555 1_555
H5 C13 1_555 1_555
C14 O4 1_555 1_555
C15 C10 1_555 1_555
H6 C15 1_555 1_555
C16 N1 1_555 1_555
C17 C2 1_555 1_555
H7 C17 1_555 1_555
C18 C8 1_555 1_555
C19 C3 1_555 1_555
H8 C19 1_555 1_555
C20 C1 1_555 1_555
H9 C20 1_555 1_555
C21 C16 1_555 1_555
H10 C21 1_555 1_555
C22 C4 1_555 1_555
H11 C22 1_555 1_555
C23 C5 1_555 1_555
H12 C23 1_555 1_555
C24 C9 1_555 1_555
H13 C24 1_555 1_555
C25 C6 1_555 1_555
H14 C25 1_555 1_555
C26 C8 1_555 1_555
H15 C26 1_555 1_555
O2 C27 1_555 1_555
C27 C28 1_555 1_555
C28 C32 1_555 1_555
C29 C6 1_555 1_555
H16 C29 1_555 1_555
C30 C18 1_555 1_555
H17 C30 1_555 1_555
C31 C18 1_555 1_555
H18 C31 1_555 1_555
C32 C31 1_555 1_555
H19 C32 1_555 1_555
O3 C27 1_555 1_555
H20 O3 1_555 1_555
C33 C28 1_555 1_555
H21 C33 1_555 1_555
O4 Cu1B 1_555 1_555
C34 H22 1_555 1_555
C35 C11 1_555 1_555
H23 C35 1_555 1_555
C36 C34 1_555 1_555
C37 C11 1_555 1_555
H24 C37 1_555 1_555
C38 C36 1_555 1_555
H25 C38 1_555 1_555
O5 C39 1_555 1_555
O6 C39 1_555 1_555
O7 Cu1 1_555 1_555
C39 C36 1_555 1_555
C40 O7 1_555 1_555
N2 C40 1_555 1_555
C41 C40 1_555 1_555
H26 C41 1_555 1_555
H27 C41 1_555 1_555
H28 C41 1_555 1_555
C42 N2 1_555 1_555
H29 C42 1_555 1_555
H30 C42 1_555 1_555
H31 C42 1_555 1_555
C43 N2 1_555 1_555
H32 C43 1_555 1_555
H33 C43 1_555 1_555
H34 C43 1_555 1_555
O8 C47 1_555 1_555
N3 C45 1_555 1_555
C44 H35 1_555 1_555
H36 C44 1_555 1_555
H37 C44 1_555 1_555
C45 H38 1_555 1_555
H39 C45 1_555 1_555
H40 C45 1_555 1_555
C46 N3 1_555 1_555
H41 C46 1_555 1_555
H42 C46 1_555 1_555
H43 C46 1_555 1_555
C47 N3 1_555 1_555
Cu1A O5 1_555 1_555
Cu1C O6 1_555 1_555
O4B Cu1 1_555 1_555
O5A Cu1 1_555 1_555
O6C Cu1 1_555 1_555
C4 C19 1_555 1_555
C5 C16 1_555 1_555
C12 C25 1_555 1_555
C13 C29 1_555 1_555
C17 C20 1_555 1_555
C21 C24 1_555 1_555
C22 C26 1_555 1_555
C30 C33 1_555 1_555
C34 C35 1_555 1_555
C37 C38 1_555 1_555
C44 C47 1_555 1_555

#END
