
#######################################################################
#
#                 Cambridge Crystallographic Data Centre
#                                CCDC 
#
#######################################################################
#
# If this CIF has been generated from an entry in the Cambridge 
# Structural Database, then it will include bibliographic, chemical, 
# crystal, experimental, refinement or atomic coordinate data resulting 
# from the CCDC's data processing and validation procedures.
#
#######################################################################

data_FEVFUJ
_chemical_formula_moiety         '(C90 H60 Cu6 N12)n'
_chemical_name_systematic        
"catena-[tris(\m~4~-3,3',5,5'-tetraphenyl-1H,1'H-4,4'-bipyrazolato)-hexa-copper unknown solvate]"
_symmetry_cell_setting           tetragonal
_symmetry_space_group_name_H-M   'I 41/a'
_symmetry_Int_Tables_number      88
_space_group_name_Hall           '-I 4ad'
loop_
_symmetry_equiv_pos_site_id
_symmetry_equiv_pos_as_xyz
1 x,y,z
2 1/2-x,-y,1/2+z
3 3/4-y,1/4+x,1/4+z
4 3/4+y,3/4-x,3/4+z
5 1/2+x,1/2+y,1/2+z
6 -x,1/2-y,z
7 1/4-y,3/4+x,3/4+z
8 1/4+y,1/4-x,1/4+z
9 -x,-y,-z
10 1/2+x,y,1/2-z
11 1/4+y,3/4-x,3/4-z
12 1/4-y,1/4+x,1/4-z
13 1/2-x,1/2-y,1/2-z
14 x,1/2+y,-z
15 3/4+y,1/4-x,1/4-z
16 3/4-y,3/4+x,3/4-z
_cell_length_a                   30.835(14)
_cell_length_b                   30.835(14)
_cell_length_c                   29.306(7)
_cell_angle_alpha                90
_cell_angle_beta                 90
_cell_angle_gamma                90
_cell_volume                     27864.1
_exptl_crystal_colour            colorless
_exptl_crystal_description       block
_cell_formula_units_Z            8
loop_
_atom_site_label
_atom_site_type_symbol
_atom_site_fract_x
_atom_site_fract_y
_atom_site_fract_z
_atom_site_U_iso_or_equiv
_atom_site_thermal_displace_type
Cu1 Cu 0.076552(9) 0.380434(9) -0.021465(10) 0.0332 Uani
Cu2 Cu 0.128492(9) 0.323738(9) 0.055104(9) 0.0323 Uani
Cu3 Cu 0.149946(9) 0.425672(10) 0.038828(10) 0.0344 Uani
N1 N 0.05361(5) 0.32862(5) -0.00085(5) 0.0317 Uani
N2 N 0.07906(5) 0.30279(5) 0.02593(6) 0.0325 Uani
N3 N 0.17357(6) 0.34987(5) 0.08726(6) 0.0342 Uani
N4 N 0.17531(5) 0.39436(5) 0.08618(6) 0.0345 Uani
N5 N 0.29573(6) 0.37888(6) 0.23756(6) 0.0372 Uani
N6 N 0.31792(6) 0.35147(6) 0.20923(6) 0.0370 Uani
C1 C 0.01622(6) 0.30739(6) -0.00893(6) 0.0304 Uani
C2 C 0.01698(6) 0.26663(6) 0.01250(6) 0.0297 Uani
C3 C 0.05744(6) 0.26557(6) 0.03458(6) 0.0291 Uani
C4 C 0.07781(6) 0.23493(6) 0.06693(7) 0.0311 Uani
C5 C 0.09127(7) 0.19365(7) 0.05450(8) 0.0405 Uani
H1 H 0.0854 0.1830 0.0247 0.0490 Uiso
C6 C 0.11327(8) 0.16805(7) 0.08555(9) 0.0470 Uani
H2 H 0.1221 0.1396 0.0771 0.0560 Uiso
C7 C 0.12253(7) 0.18340(8) 0.12862(8) 0.0445 Uani
H3 H 0.1384 0.1659 0.1494 0.0530 Uiso
C8 C 0.10888(8) 0.22403(7) 0.14151(7) 0.0410 Uani
H4 H 0.1149 0.2344 0.1714 0.0490 Uiso
C9 C 0.08649(7) 0.24977(7) 0.11108(7) 0.0359 Uani
H5 H 0.0769 0.2777 0.1202 0.0430 Uiso
C10 C -0.01959(7) 0.32817(7) -0.03414(7) 0.0365 Uani
C11 C -0.04466(8) 0.30483(9) -0.06529(8) 0.0483 Uani
H6 H -0.0377 0.2755 -0.0720 0.0580 Uiso
C12 C -0.07974(9) 0.32454(11) -0.08646(10) 0.0662 Uani
H7 H -0.0968 0.3085 -0.1076 0.0790 Uiso
C13 C -0.09014(10) 0.36703(11) -0.07718(11) 0.0705 Uani
H8 H -0.1142 0.3802 -0.0919 0.0840 Uiso
C14 C -0.06596(9) 0.39033(10) -0.04687(11) 0.0599 Uani
H9 H -0.0732 0.4197 -0.0406 0.0720 Uiso
C15 C -0.03072(8) 0.37105(8) -0.02515(8) 0.0442 Uani
H10 H -0.0141 0.3874 -0.0039 0.0530 Uiso
C16 C 0.20145(6) 0.33616(6) 0.11974(7) 0.0316 Uani
C17 C 0.22189(7) 0.37193(7) 0.13954(7) 0.0331 Uani
C18 C 0.20412(7) 0.40795(7) 0.11763(7) 0.0347 Uani
C19 C 0.20839(7) 0.29005(7) 0.13087(8) 0.0381 Uani
C20 C 0.21538(8) 0.25926(8) 0.09708(9) 0.0485 Uani
H11 H 0.2131 0.2672 0.0659 0.0580 Uiso
C21 C 0.22570(9) 0.21685(8) 0.10880(11) 0.0616 Uani
H12 H 0.2307 0.1960 0.0855 0.0740 Uiso
C22 C 0.22876(10) 0.20492(8) 0.15394(12) 0.0649 Uani
H13 H 0.2362 0.1760 0.1617 0.0780 Uiso
C23 C 0.22103(9) 0.23486(9) 0.18775(10) 0.0577 Uani
H14 H 0.2226 0.2265 0.2189 0.0690 Uiso
C24 C 0.21094(8) 0.27701(8) 0.17625(8) 0.0455 Uani
H15 H 0.2056 0.2976 0.1998 0.0550 Uiso
C25 C 0.21205(9) 0.45439(7) 0.12473(8) 0.0485 Uani
C26 C 0.25463(12) 0.46975(9) 0.12922(11) 0.0689 Uani
H16 H 0.2784 0.4502 0.1272 0.0830 Uiso
C27 C 0.26193(19) 0.51388(12) 0.13674(15) 0.1077 Uani
H17 H 0.2907 0.5245 0.1400 0.1300 Uiso
C28 C 0.2271(2) 0.54206(11) 0.13945(17) 0.1262 Uani
H18 H 0.2320 0.5721 0.1445 0.1510 Uiso
C29 C 0.1863(2) 0.52730(12) 0.13497(16) 0.1119 Uani
H19 H 0.1627 0.5470 0.1369 0.1340 Uiso
C30 C 0.17815(13) 0.48320(9) 0.12754(12) 0.0741 Uani
H20 H 0.1492 0.4732 0.1244 0.0890 Uiso
C31 C 0.25855(7) 0.39039(7) 0.21644(7) 0.0349 Uani
C32 C 0.25659(6) 0.37038(6) 0.17383(7) 0.0330 Uani
C33 C 0.29475(7) 0.34653(7) 0.17070(7) 0.0351 Uani
C34 C 0.22709(8) 0.42024(7) 0.23712(8) 0.0424 Uani
C35 C 0.23988(10) 0.45965(9) 0.25540(11) 0.0630 Uani
H21 H 0.2697 0.4675 0.2556 0.0760 Uiso
C36 C 0.20902(14) 0.48751(12) 0.27334(14) 0.0920 Uani
H22 H 0.2180 0.5141 0.2867 0.1100 Uiso
C37 C 0.16663(14) 0.47747(15) 0.27210(15) 0.1017 Uani
H23 H 0.1459 0.4974 0.2837 0.1220 Uiso
C38 C 0.15311(11) 0.43831(13) 0.25406(14) 0.0816 Uani
H24 H 0.1232 0.4310 0.2537 0.0980 Uiso
C39 C 0.18339(9) 0.41007(10) 0.23661(9) 0.0571 Uani
H25 H 0.1742 0.3832 0.2240 0.0690 Uiso
C40 C 0.31093(7) 0.32022(8) 0.13196(7) 0.0397 Uani
C41 C 0.32848(9) 0.27957(9) 0.13891(9) 0.0560 Uani
H26 H 0.3298 0.2681 0.1690 0.0670 Uiso
C42 C 0.34417(12) 0.25535(11) 0.10293(12) 0.0790 Uani
H27 H 0.3565 0.2276 0.1082 0.0950 Uiso
C43 C 0.34168(14) 0.27201(14) 0.05894(12) 0.0880 Uani
H28 H 0.3526 0.2557 0.0340 0.1060 Uiso
C44 C 0.32372(13) 0.31154(13) 0.05152(10) 0.0831 Uani
H29 H 0.3218 0.3226 0.0213 0.1000 Uiso
C45 C 0.30807(10) 0.33616(10) 0.08792(9) 0.0576 Uani
H30 H 0.2955 0.3638 0.0825 0.0690 Uiso
N1E N -0.05361(5) 0.17138(5) -0.00085(5) 0.0317 Uani
N2E N -0.07906(5) 0.19721(5) 0.02593(6) 0.0325 Uani
C1E C -0.01622(6) 0.19261(6) -0.00893(6) 0.0304 Uani
C2E C -0.01698(6) 0.23337(6) 0.01250(6) 0.0297 Uani
C3E C -0.05744(6) 0.23443(6) 0.03458(6) 0.0291 Uani
C4E C -0.07781(6) 0.26507(6) 0.06693(7) 0.0311 Uani
C5E C -0.09127(7) 0.30635(7) 0.05450(8) 0.0405 Uani
H1E H -0.0854 0.3170 0.0247 0.0490 Uiso
C6E C -0.11327(8) 0.33195(7) 0.08555(9) 0.0470 Uani
H2E H -0.1221 0.3604 0.0771 0.0560 Uiso
C7E C -0.12253(7) 0.31660(8) 0.12862(8) 0.0445 Uani
H3E H -0.1384 0.3341 0.1494 0.0530 Uiso
C8E C -0.10888(8) 0.27597(7) 0.14151(7) 0.0410 Uani
H4E H -0.1149 0.2656 0.1714 0.0490 Uiso
C9E C -0.08649(7) 0.25023(7) 0.11108(7) 0.0359 Uani
H5E H -0.0769 0.2223 0.1202 0.0430 Uiso
C10E C 0.01959(7) 0.17183(7) -0.03414(7) 0.0365 Uani
C11E C 0.04466(8) 0.19517(9) -0.06529(8) 0.0483 Uani
H6E H 0.0377 0.2245 -0.0720 0.0580 Uiso
C12E C 0.07974(9) 0.17546(11) -0.08646(10) 0.0662 Uani
H7E H 0.0968 0.1915 -0.1076 0.0790 Uiso
C13E C 0.09014(10) 0.13297(11) -0.07718(11) 0.0705 Uani
H8E H 0.1142 0.1198 -0.0919 0.0840 Uiso
C14E C 0.06596(9) 0.10967(10) -0.04687(11) 0.0599 Uani
H9E H 0.0732 0.0803 -0.0406 0.0720 Uiso
C15E C 0.03072(8) 0.12895(8) -0.02515(8) 0.0442 Uani
H10E H 0.0141 0.1126 -0.0039 0.0530 Uiso
Cu1E Cu -0.076552(9) 0.119566(9) -0.021465(10) 0.0332 Uani
Cu2E Cu -0.128492(9) 0.176262(9) 0.055104(9) 0.0323 Uani
Cu3E Cu -0.149946(9) 0.074328(10) 0.038828(10) 0.0344 Uani
N3E N -0.17357(6) 0.15013(5) 0.08726(6) 0.0342 Uani
N4E N -0.17531(5) 0.10564(5) 0.08618(6) 0.0345 Uani
N5E N -0.29573(6) 0.12112(6) 0.23756(6) 0.0372 Uani
N6E N -0.31792(6) 0.14853(6) 0.20923(6) 0.0370 Uani
C16E C -0.20145(6) 0.16384(6) 0.11974(7) 0.0316 Uani
C17E C -0.22189(7) 0.12807(7) 0.13954(7) 0.0331 Uani
C18E C -0.20412(7) 0.09205(7) 0.11763(7) 0.0347 Uani
C19E C -0.20839(7) 0.20995(7) 0.13087(8) 0.0381 Uani
C20E C -0.21538(8) 0.24074(8) 0.09708(9) 0.0485 Uani
H11E H -0.2131 0.2328 0.0659 0.0580 Uiso
C21E C -0.22570(9) 0.28315(8) 0.10880(11) 0.0616 Uani
H12E H -0.2307 0.3040 0.0855 0.0740 Uiso
C22E C -0.22876(10) 0.29508(8) 0.15394(12) 0.0649 Uani
H13E H -0.2362 0.3240 0.1617 0.0780 Uiso
C23E C -0.22103(9) 0.26514(9) 0.18775(10) 0.0577 Uani
H14E H -0.2226 0.2735 0.2189 0.0690 Uiso
C24E C -0.21094(8) 0.22299(8) 0.17625(8) 0.0455 Uani
H15E H -0.2056 0.2024 0.1998 0.0550 Uiso
C25E C -0.21205(9) 0.04561(7) 0.12473(8) 0.0485 Uani
C26E C -0.25463(12) 0.03025(9) 0.12922(11) 0.0689 Uani
H16E H -0.2784 0.0498 0.1272 0.0830 Uiso
C27E C -0.26193(19) -0.01388(12) 0.13674(15) 0.1077 Uani
H17E H -0.2907 -0.0245 0.1400 0.1300 Uiso
C28E C -0.2271(2) -0.04206(11) 0.13945(17) 0.1262 Uani
H18E H -0.2320 -0.0721 0.1445 0.1510 Uiso
C29E C -0.1863(2) -0.02730(12) 0.13497(16) 0.1119 Uani
H19E H -0.1627 -0.0470 0.1369 0.1340 Uiso
C30E C -0.17815(13) 0.01680(9) 0.12754(12) 0.0741 Uani
H20E H -0.1492 0.0268 0.1244 0.0890 Uiso
C31E C -0.25855(7) 0.10961(7) 0.21644(7) 0.0349 Uani
C32E C -0.25659(6) 0.12962(6) 0.17383(7) 0.0330 Uani
C33E C -0.29475(7) 0.15347(7) 0.17070(7) 0.0351 Uani
C34E C -0.22709(8) 0.07976(7) 0.23712(8) 0.0424 Uani
C35E C -0.23988(10) 0.04035(9) 0.25540(11) 0.0630 Uani
H21E H -0.2697 0.0325 0.2556 0.0760 Uiso
C36E C -0.20902(14) 0.01249(12) 0.27334(14) 0.0920 Uani
H22E H -0.2180 -0.0141 0.2867 0.1100 Uiso
C37E C -0.16663(14) 0.02253(15) 0.27210(15) 0.1017 Uani
H23E H -0.1459 0.0026 0.2837 0.1220 Uiso
C38E C -0.15311(11) 0.06169(13) 0.25406(14) 0.0816 Uani
H24E H -0.1232 0.0690 0.2537 0.0980 Uiso
C39E C -0.18339(9) 0.08993(10) 0.23661(9) 0.0571 Uani
H25E H -0.1742 0.1168 0.2240 0.0690 Uiso
C40E C -0.31093(7) 0.17978(8) 0.13196(7) 0.0397 Uani
C41E C -0.32848(9) 0.22043(9) 0.13891(9) 0.0560 Uani
H26E H -0.3298 0.2319 0.1690 0.0670 Uiso
C42E C -0.34417(12) 0.24465(11) 0.10293(12) 0.0790 Uani
H27E H -0.3565 0.2724 0.1082 0.0950 Uiso
C43E C -0.34168(14) 0.22799(14) 0.05894(12) 0.0880 Uani
H28E H -0.3526 0.2443 0.0340 0.1060 Uiso
C44E C -0.32372(13) 0.18846(13) 0.05152(10) 0.0831 Uani
H29E H -0.3218 0.1774 0.0213 0.1000 Uiso
C45E C -0.30807(10) 0.16384(10) 0.08792(9) 0.0576 Uani
H30E H -0.2955 0.1362 0.0825 0.0690 Uiso
Cu1B Cu 0.369566(9) 0.326552(9) 0.228535(10) 0.0332 Uani
Cu1G Cu -0.369566(9) 0.173448(9) 0.228535(10) 0.0332 Uani
Cu3B Cu 0.324328(10) 0.399946(9) 0.288828(10) 0.0344 Uani
Cu3G Cu -0.324328(10) 0.100054(9) 0.288828(10) 0.0344 Uani
N5C N 0.12888(6) 0.45427(6) -0.01244(6) 0.0372 Uani
N5F N -0.12888(6) 0.04573(6) -0.01244(6) 0.0372 Uani
N6C N 0.10147(6) 0.43208(6) -0.04077(6) 0.0370 Uani
N6F N -0.10147(6) 0.06792(6) -0.04077(6) 0.0370 Uani
loop_
_atom_site_aniso_label
_atom_site_aniso_U_11
_atom_site_aniso_U_22
_atom_site_aniso_U_33
_atom_site_aniso_U_23
_atom_site_aniso_U_13
_atom_site_aniso_U_12
Cu1 0.03436(17) 0.03142(16) 0.03393(17) 0.01093(11) -0.00517(11) -0.00861(12)
Cu2 0.02978(16) 0.03399(17) 0.03306(17) 0.00414(11) -0.00887(11) -0.00667(12)
Cu3 0.03290(16) 0.03662(17) 0.03354(17) 0.01204(12) -0.00904(12) -0.00321(12)
N1 0.0324(8) 0.0327(8) 0.0301(8) 0.0057(7) -0.0045(7) -0.0064(7)
N2 0.0335(9) 0.0326(9) 0.0314(8) 0.0048(7) -0.0047(7) -0.0071(7)
N3 0.0351(9) 0.0333(9) 0.0343(9) 0.0026(7) -0.0080(7) -0.0027(7)
N4 0.0337(9) 0.0335(9) 0.0364(9) 0.0053(7) -0.0092(7) -0.0021(7)
N5 0.0398 0.0343 0.0374 -0.0083 -0.0116 0.0084
N6 0.036 0.037 0.038 -0.0063 -0.0112 0.0064
C1 0.0303(10) 0.0337(10) 0.0271(9) 0.0029(8) 0.0002(7) -0.0043(8)
C2 0.0306(9) 0.0303(9) 0.0283(9) -0.0011(8) 0.0021(7) -0.0036(8)
C3 0.0324(10) 0.0277(9) 0.0271(9) 0.0015(7) 0.0003(7) -0.0041(8)
C4 0.0285(9) 0.0319(10) 0.0330(10) 0.0025(8) 0.0008(8) -0.0052(8)
C5 0.0430(12) 0.0349(11) 0.0437(12) -0.0039(9) -0.0014(9) -0.0013(10)
C6 0.0474(13) 0.0324(11) 0.0613(15) 0.0025(10) -0.0026(11) 0.0042(10)
C7 0.0380(11) 0.0421(12) 0.0535(13) 0.0168(10) -0.0048(10) -0.0022(10)
C8 0.0468(12) 0.0419(12) 0.0342(11) 0.0068(9) -0.0076(9) -0.0063(10)
C9 0.0421(11) 0.0312(10) 0.0345(10) 0.0021(8) 0.0003(9) -0.0017(9)
C10 0.0335(11) 0.0410(12) 0.0350(10) 0.0098(9) -0.0017(8) -0.0046(9)
C11 0.0417(12) 0.0595(15) 0.0438(12) 0.0053(11) -0.0132(10) -0.0073(11)
C12 0.0536(16) 0.087(2) 0.0579(16) 0.0108(15) -0.0221(13) -0.0057(15)
C13 0.0494(15) 0.084(2) 0.078(2) 0.0261(17) -0.0187(14) 0.0030(15)
C14 0.0493(14) 0.0563(16) 0.0742(18) 0.0222(14) 0.0007(13) 0.0104(13)
C15 0.0414(12) 0.0432(12) 0.0480(13) 0.0097(10) 0.0009(10) -0.0010(10)
C16 0.0287(9) 0.0323(10) 0.0338(10) 0.0025(8) -0.0059(8) 0.0022(8)
C17 0.0305(10) 0.0346(10) 0.0343(10) 0.0000(8) -0.0073(8) 0.0012(8)
C18 0.0341(10) 0.0332(10) 0.0368(10) 0.0031(8) -0.0092(8) -0.0010(9)
C19 0.0337(11) 0.0329(10) 0.0477(12) 0.0023(9) -0.0095(9) -0.0034(9)
C20 0.0486(13) 0.0417(12) 0.0551(14) -0.0059(11) -0.0064(11) -0.0012(11)
C21 0.0600(16) 0.0388(13) 0.086(2) -0.0128(13) -0.0097(14) -0.0004(12)
C22 0.0581(16) 0.0336(13) 0.103(2) 0.0093(14) -0.0205(16) 0.0002(12)
C23 0.0553(15) 0.0475(14) 0.0704(17) 0.0200(13) -0.0189(13) -0.0080(12)
C24 0.0473(13) 0.0412(12) 0.0479(13) 0.0089(10) -0.0124(10) -0.0036(10)
C25 0.0674(16) 0.0339(11) 0.0443(13) 0.0037(9) -0.0192(11) -0.0006(11)
C26 0.086(2) 0.0492(15) 0.0716(18) 0.0107(13) -0.0299(16) -0.0258(15)
C27 0.159(4) 0.057(2) 0.107(3) 0.013(2) -0.057(3) -0.049(3)
C28 0.225(6) 0.0326(17) 0.121(4) -0.0011(19) -0.060(4) -0.018(3)
C29 0.178(5) 0.0438(18) 0.114(3) -0.0131(19) -0.034(3) 0.035(3)
C30 0.101(2) 0.0452(15) 0.076(2) -0.0041(14) -0.0233(18) 0.0217(16)
C31 0.0366 0.0301 0.0381 -0.0009 -0.0106 0.0032
C32 0.032 0.0305 0.0366 -0.0007 -0.0079 0.0029
C33 0.0369 0.0336 0.0348 -0.0016 -0.0101 0
C34 0.0469 0.0411 0.0393 -0.0022 -0.0101 0.0125
C35 0.0651 0.0492 0.0748 -0.02 -0.017 0.0162
C36 0.109 0.067 0.1 -0.0375 -0.02 0.038
C37 0.091 0.115 0.099 -0.031 0.005 0.063
C38 0.0599 0.096 0.089 -0.01 0.0076 0.0288
C39 0.0473 0.0651 0.059 -0.0025 -0.002 0.0111
C40 0.0351 0.0481 0.0359 -0.0057 -0.0061 0.0049
C41 0.0639 0.0539 0.0502 -0.0134 -0.0101 0.0176
C42 0.093 0.072 0.072 -0.0249 -0.0069 0.0337
C43 0.107 0.099 0.0579 -0.0269 0.0094 0.031
C44 0.107 0.103 0.0393 -0.0053 0.0066 0.013
C45 0.0664 0.0636 0.0429 -0.0001 -0.0014 0.0069
N1E 0.0324 0.0327 0.0301 -0.0057 0.0045 -0.0064
N2E 0.0335 0.0326 0.0314 -0.0048 0.0047 -0.0071
C1E 0.0303 0.0337 0.0271 -0.0029 -0.0002 -0.0043
C2E 0.0306 0.0303 0.0283 0.0011 -0.0021 -0.0036
C3E 0.0324 0.0277 0.0271 -0.0015 -0.0003 -0.0041
C4E 0.0285 0.0319 0.033 -0.0025 -0.0008 -0.0052
C5E 0.043 0.0349 0.0437 0.0039 0.0014 -0.0013
C6E 0.0474 0.0324 0.0613 -0.0025 0.0026 0.0042
C7E 0.038 0.0421 0.0535 -0.0168 0.0048 -0.0022
C8E 0.0468 0.0419 0.0342 -0.0068 0.0076 -0.0063
C9E 0.0421 0.0312 0.0345 -0.0021 -0.0003 -0.0017
C10E 0.0335 0.041 0.035 -0.0098 0.0017 -0.0046
C11E 0.0417 0.0595 0.0438 -0.0053 0.0132 -0.0073
C12E 0.0536 0.087 0.0579 -0.0108 0.0221 -0.0057
C13E 0.0494 0.084 0.078 -0.0261 0.0187 0.003
C14E 0.0493 0.0563 0.0742 -0.0222 -0.0007 0.0104
C15E 0.0414 0.0432 0.048 -0.0097 -0.0009 -0.001
Cu1E 0.03436 0.03142 0.03393 -0.01093 0.00517 -0.00861
Cu2E 0.02978 0.03399 0.03306 -0.00414 0.00887 -0.00667
Cu3E 0.0329 0.03662 0.03354 -0.01204 0.00904 -0.00321
N3E 0.0351 0.0333 0.0343 -0.0026 0.008 -0.0027
N4E 0.0337 0.0335 0.0364 -0.0053 0.0092 -0.0021
N5E 0.0398 0.0343 0.0374 0.0083 0.0116 0.0084
N6E 0.036 0.037 0.038 0.0063 0.0112 0.0064
C16E 0.0287 0.0323 0.0338 -0.0025 0.0059 0.0022
C17E 0.0305 0.0346 0.0343 0 0.0073 0.0012
C18E 0.0341 0.0332 0.0368 -0.0031 0.0092 -0.001
C19E 0.0337 0.0329 0.0477 -0.0023 0.0095 -0.0034
C20E 0.0486 0.0417 0.0551 0.0059 0.0064 -0.0012
C21E 0.06 0.0388 0.086 0.0128 0.0097 -0.0004
C22E 0.0581 0.0336 0.103 -0.0093 0.0205 0.0002
C23E 0.0553 0.0475 0.0704 -0.02 0.0189 -0.008
C24E 0.0473 0.0412 0.0479 -0.0089 0.0124 -0.0036
C25E 0.0674 0.0339 0.0443 -0.0037 0.0192 -0.0006
C26E 0.086 0.0492 0.0716 -0.0107 0.0299 -0.0258
C27E 0.159 0.057 0.107 -0.013 0.057 -0.049
C28E 0.225 0.0326 0.121 0.0011 0.06 -0.018
C29E 0.178 0.0438 0.114 0.0131 0.034 0.035
C30E 0.101 0.0452 0.076 0.0041 0.0233 0.0217
C31E 0.0366 0.0301 0.0381 0.0009 0.0106 0.0032
C32E 0.032 0.0305 0.0366 0.0007 0.0079 0.0029
C33E 0.0369 0.0336 0.0348 0.0016 0.0101 0
C34E 0.0469 0.0411 0.0393 0.0022 0.0101 0.0125
C35E 0.0651 0.0492 0.0748 0.02 0.017 0.0162
C36E 0.109 0.067 0.1 0.0375 0.02 0.038
C37E 0.091 0.115 0.099 0.031 -0.005 0.063
C38E 0.0599 0.096 0.089 0.01 -0.0076 0.0288
C39E 0.0473 0.0651 0.059 0.0025 0.002 0.0111
C40E 0.0351 0.0481 0.0359 0.0057 0.0061 0.0049
C41E 0.0639 0.0539 0.0502 0.0134 0.0101 0.0176
C42E 0.093 0.072 0.072 0.0249 0.0069 0.0337
C43E 0.107 0.099 0.0579 0.0269 -0.0094 0.031
C44E 0.107 0.103 0.0393 0.0053 -0.0066 0.013
C45E 0.0664 0.0636 0.0429 0.0001 0.0014 0.0069
Cu1B 0.03142 0.03436 0.03393 -0.00517 -0.01093 0.00861
Cu1G 0.03142 0.03436 0.03393 0.00517 0.01093 0.00861
Cu3B 0.03662 0.0329 0.03354 -0.00904 -0.01204 0.00321
Cu3G 0.03662 0.0329 0.03354 0.00904 0.01204 0.00321
N5C 0.0343 0.0398 0.0374 0.0116 -0.0083 -0.0084
N5F 0.0343 0.0398 0.0374 -0.0116 0.0083 -0.0084
N6C 0.037 0.036 0.038 0.0112 -0.0063 -0.0064
N6F 0.037 0.036 0.038 -0.0112 0.0063 -0.0064
loop_
_geom_bond_atom_site_label_1
_geom_bond_atom_site_label_2
_geom_bond_site_symmetry_1
_geom_bond_site_symmetry_2
Cu1 N1 1_555 1_555
Cu2 N2 1_555 1_555
Cu3 N4 1_555 1_555
N1 N2 1_555 1_555
N2 C3 1_555 1_555
N3 Cu2 1_555 1_555
N4 N3 1_555 1_555
N5 N6 1_555 1_555
N6 C33 1_555 1_555
C1 N1 1_555 1_555
C2 C1 1_555 1_555
C3 C2 1_555 1_555
C4 C3 1_555 1_555
C5 C4 1_555 1_555
H1 C5 1_555 1_555
C6 C5 1_555 1_555
H2 C6 1_555 1_555
C7 C6 1_555 1_555
H3 C7 1_555 1_555
C8 C7 1_555 1_555
H4 C8 1_555 1_555
C9 C4 1_555 1_555
H5 C9 1_555 1_555
C10 C1 1_555 1_555
C11 C10 1_555 1_555
H6 C11 1_555 1_555
C12 C11 1_555 1_555
H7 C12 1_555 1_555
C13 C12 1_555 1_555
H8 C13 1_555 1_555
C14 C13 1_555 1_555
H9 C14 1_555 1_555
C15 C10 1_555 1_555
H10 C15 1_555 1_555
C16 N3 1_555 1_555
C17 C16 1_555 1_555
C18 N4 1_555 1_555
C19 C16 1_555 1_555
C20 C19 1_555 1_555
H11 C20 1_555 1_555
C21 C20 1_555 1_555
H12 C21 1_555 1_555
C22 C21 1_555 1_555
H13 C22 1_555 1_555
C23 C22 1_555 1_555
H14 C23 1_555 1_555
C24 C19 1_555 1_555
H15 C24 1_555 1_555
C25 C18 1_555 1_555
C26 C25 1_555 1_555
H16 C26 1_555 1_555
C27 C26 1_555 1_555
H17 C27 1_555 1_555
C28 C27 1_555 1_555
H18 C28 1_555 1_555
C29 C28 1_555 1_555
H19 C29 1_555 1_555
C30 C25 1_555 1_555
H20 C30 1_555 1_555
C31 N5 1_555 1_555
C32 C17 1_555 1_555
C33 C32 1_555 1_555
C34 C31 1_555 1_555
C35 C34 1_555 1_555
H21 C35 1_555 1_555
C36 C35 1_555 1_555
H22 C36 1_555 1_555
C37 C36 1_555 1_555
H23 C37 1_555 1_555
C38 C37 1_555 1_555
H24 C38 1_555 1_555
C39 C34 1_555 1_555
H25 C39 1_555 1_555
C40 C33 1_555 1_555
C41 C40 1_555 1_555
H26 C41 1_555 1_555
C42 C41 1_555 1_555
H27 C42 1_555 1_555
C43 C42 1_555 1_555
H28 C43 1_555 1_555
C44 C43 1_555 1_555
H29 C44 1_555 1_555
C45 C40 1_555 1_555
H30 C45 1_555 1_555
N1E N2E 1_555 1_555
N2E C3E 1_555 1_555
C1E N1E 1_555 1_555
C2E C2 1_555 1_555
C3E C2E 1_555 1_555
C4E C3E 1_555 1_555
C5E C4E 1_555 1_555
H1E C5E 1_555 1_555
C6E C5E 1_555 1_555
H2E C6E 1_555 1_555
C7E C6E 1_555 1_555
H3E C7E 1_555 1_555
C8E C7E 1_555 1_555
H4E C8E 1_555 1_555
C9E C4E 1_555 1_555
H5E C9E 1_555 1_555
C10E C1E 1_555 1_555
C11E C10E 1_555 1_555
H6E C11E 1_555 1_555
C12E C11E 1_555 1_555
H7E C12E 1_555 1_555
C13E C12E 1_555 1_555
H8E C13E 1_555 1_555
C14E C13E 1_555 1_555
H9E C14E 1_555 1_555
C15E C10E 1_555 1_555
H10E C15E 1_555 1_555
Cu1E N1E 1_555 1_555
Cu2E N2E 1_555 1_555
Cu3E N4E 1_555 1_555
N3E Cu2E 1_555 1_555
N4E N3E 1_555 1_555
N5E N6E 1_555 1_555
N6E C33E 1_555 1_555
C16E N3E 1_555 1_555
C17E C16E 1_555 1_555
C18E N4E 1_555 1_555
C19E C16E 1_555 1_555
C20E C19E 1_555 1_555
H11E C20E 1_555 1_555
C21E C20E 1_555 1_555
H12E C21E 1_555 1_555
C22E C21E 1_555 1_555
H13E C22E 1_555 1_555
C23E C22E 1_555 1_555
H14E C23E 1_555 1_555
C24E C19E 1_555 1_555
H15E C24E 1_555 1_555
C25E C18E 1_555 1_555
C26E C25E 1_555 1_555
H16E C26E 1_555 1_555
C27E C26E 1_555 1_555
H17E C27E 1_555 1_555
C28E C27E 1_555 1_555
H18E C28E 1_555 1_555
C29E C28E 1_555 1_555
H19E C29E 1_555 1_555
C30E C25E 1_555 1_555
H20E C30E 1_555 1_555
C31E N5E 1_555 1_555
C32E C17E 1_555 1_555
C33E C32E 1_555 1_555
C34E C31E 1_555 1_555
C35E C34E 1_555 1_555
H21E C35E 1_555 1_555
C36E C35E 1_555 1_555
H22E C36E 1_555 1_555
C37E C36E 1_555 1_555
H23E C37E 1_555 1_555
C38E C37E 1_555 1_555
H24E C38E 1_555 1_555
C39E C34E 1_555 1_555
H25E C39E 1_555 1_555
C40E C33E 1_555 1_555
C41E C40E 1_555 1_555
H26E C41E 1_555 1_555
C42E C41E 1_555 1_555
H27E C42E 1_555 1_555
C43E C42E 1_555 1_555
H28E C43E 1_555 1_555
C44E C43E 1_555 1_555
H29E C44E 1_555 1_555
C45E C40E 1_555 1_555
H30E C45E 1_555 1_555
Cu1B N6 1_555 1_555
Cu1G N6E 1_555 1_555
Cu3B N5 1_555 1_555
Cu3G N5E 1_555 1_555
N5C Cu3 1_555 1_555
N5F Cu3E 1_555 1_555
N6C Cu1 1_555 1_555
N6F Cu1E 1_555 1_555
C8 C9 1_555 1_555
C14 C15 1_555 1_555
C17 C18 1_555 1_555
C23 C24 1_555 1_555
C29 C30 1_555 1_555
C31 C32 1_555 1_555
C38 C39 1_555 1_555
C44 C45 1_555 1_555
C1E C2E 1_555 1_555
C8E C9E 1_555 1_555
C14E C15E 1_555 1_555
C17E C18E 1_555 1_555
C23E C24E 1_555 1_555
C29E C30E 1_555 1_555
C31E C32E 1_555 1_555
C38E C39E 1_555 1_555
C44E C45E 1_555 1_555
N5C N6C 1_555 1_555
N5F N6F 1_555 1_555

#END
