
#######################################################################
#
#                 Cambridge Crystallographic Data Centre
#                                CCDC 
#
#######################################################################
#
# If this CIF has been generated from an entry in the Cambridge 
# Structural Database, then it will include bibliographic, chemical, 
# crystal, experimental, refinement or atomic coordinate data resulting 
# from the CCDC's data processing and validation procedures.
#
#######################################################################

data_FEVFOD
_chemical_formula_moiety         '(C90 H60 Ag6 N12)n'
_chemical_name_systematic        
catena-[tris(\m~4~-3,3',5,5'-tetraphenyl-1H,1'H-4,4'-bipyrazolato)-hexa-silver]
_symmetry_cell_setting           monoclinic
_symmetry_space_group_name_H-M   'P 21/c'
_symmetry_Int_Tables_number      14
_space_group_name_Hall           '-P 2ybc'
loop_
_symmetry_equiv_pos_site_id
_symmetry_equiv_pos_as_xyz
1 x,y,z
2 -x,1/2+y,1/2-z
3 -x,-y,-z
4 x,1/2-y,1/2+z
_cell_length_a                   16.3399(3)
_cell_length_b                   32.7506(4)
_cell_length_c                   16.2624(3)
_cell_angle_alpha                90
_cell_angle_beta                 107.382(2)
_cell_angle_gamma                90
_cell_volume                     8305.27
_exptl_crystal_colour            colorless
_exptl_crystal_description       prism
_cell_formula_units_Z            4
loop_
_atom_site_label
_atom_site_type_symbol
_atom_site_fract_x
_atom_site_fract_y
_atom_site_fract_z
Ag1 Ag 0.76495(3) 0.190472(14) 0.99727(3)
Ag2 Ag 0.65986(3) 0.285348(13) 0.94820(3)
Ag3 Ag 0.87015(3) 0.285006(14) 1.03841(3)
Ag4 Ag 0.30644(4) 0.066365(14) 0.61031(3)
Ag5 Ag 0.27137(4) 0.153248(14) 0.49140(3)
N1 N 0.6033(3) 0.23109(14) 0.8930(3)
N2 N 0.6389(3) 0.19320(14) 0.9156(3)
N3 N 0.7225(3) 0.33985(14) 0.9934(3)
N4 N 0.8075(3) 0.34043(14) 0.9982(3)
N5 N 0.8913(3) 0.19361(15) 1.0771(3)
N6 N 0.9295(3) 0.23131(15) 1.0937(3)
N7 N 0.3518(3) 0.15137(15) 0.6171(3)
N8 N 0.3407(4) 0.12224(14) 0.6731(3)
N9 N 0.7213(4) 0.51393(14) 0.9656(3)
N10 N 0.7669(3) 0.51447(14) 1.0512(3)
N11 N 1.1974(3) 0.12325(14) 1.3090(3)
N12 N 1.1905(3) 0.15260(14) 1.3668(3)
C1 C 0.5281(4) 0.22648(17) 0.8327(4)
C2 C 0.5138(4) 0.18479(17) 0.8133(4)
C3 C 0.5859(4) 0.16538(17) 0.8672(4)
C4 C 0.6067(4) 0.12121(18) 0.8743(4)
C5 C 0.6311(5) 0.1018(2) 0.9528(5)
H1 H 0.6382 0.1169 1.003
C6 C 0.6453(6) 0.0600(3) 0.9578(7)
H2 H 0.6587 0.0469 1.011
C7 C 0.6397(7) 0.0377(2) 0.8843(7)
H3 H 0.6511 0.0099 0.8878
C8 C 0.6170(6) 0.0571(2) 0.8061(6)
H4 H 0.6128 0.0423 0.7562
C9 C 0.6003(5) 0.0986(2) 0.8007(5)
H5 H 0.5847 0.1114 0.7473
C10 C 0.4734(4) 0.26232(17) 0.7967(4)
C11 C 0.3896(5) 0.2647(2) 0.7987(5)
H6 H 0.3662 0.2435 0.8227
C12 C 0.3405(5) 0.2986(3) 0.7650(5)
H7 H 0.2844 0.3003 0.7671
C13 C 0.3737(6) 0.3294(2) 0.7286(6)
H8 H 0.34 0.3519 0.7054
C14 C 0.4557(6) 0.3274(2) 0.7263(5)
H9 H 0.4778 0.3487 0.7016
C15 C 0.5071(5) 0.29417(19) 0.7600(4)
H10 H 0.5634 0.2931 0.7581
C16 C 0.4421(4) 0.16567(17) 0.7464(4)
C17 C 0.4121(4) 0.17751(18) 0.6598(4)
C18 C 0.3947(4) 0.13077(17) 0.7522(4)
C19 C 0.3926(4) 0.10743(19) 0.8289(4)
C20 C 0.3879(5) 0.1283(2) 0.9010(5)
H11 H 0.3879 0.1567 0.901
C21 C 0.3832(7) 0.1075(3) 0.9732(6)
H12 H 0.3795 0.122 1.0213
C22 C 0.3838(8) 0.0660(3) 0.9746(6)
H13 H 0.3798 0.052 1.023
C23 C 0.3905(8) 0.0447(3) 0.9039(7)
H14 H 0.3915 0.0163 0.9049
C24 C 0.3957(6) 0.0653(2) 0.8313(5)
H15 H 0.4013 0.0507 0.7841
C25 C 0.4376(4) 0.21190(18) 0.6156(4)
C26 C 0.3785(5) 0.2403(2) 0.5708(4)
H16 H 0.3211 0.2374 0.5679
C27 C 0.4040(6) 0.2731(2) 0.5300(5)
H17 H 0.3636 0.2922 0.5006
C28 C 0.4862(7) 0.2774(2) 0.5328(5)
H18 H 0.5021 0.2992 0.5041
C29 C 0.5482(6) 0.2500(3) 0.5778(5)
H19 H 0.6054 0.2537 0.5809
C30 C 0.5235(5) 0.2170(2) 0.6183(5)
H20 H 0.5643 0.1981 0.6475
C31 C 0.9464(4) 0.16633(17) 1.1264(4)
C32 C 1.0203(4) 0.18583(17) 1.1740(4)
C33 C 1.0069(4) 0.22706(18) 1.1521(4)
C34 C 0.9223(4) 0.12284(18) 1.1279(4)
C35 C 0.9343(5) 0.1029(2) 1.2068(5)
H21 H 0.9576 0.117 1.2581
C36 C 0.9119(7) 0.0622(3) 1.2091(7)
H22 H 0.9199 0.049 1.2616
C37 C 0.8778(8) 0.0415(3) 1.1334(8)
H23 H 0.8623 0.0143 1.135
C38 C 0.8661(7) 0.0600(3) 1.0566(7)
H24 H 0.8445 0.0452 1.0059
C39 C 0.8864(6) 0.1008(2) 1.0532(5)
H25 H 0.8758 0.1136 1.00000
C40 C 1.0946(4) 0.16715(17) 1.2395(4)
C41 C 1.1399(4) 0.13191(17) 1.2319(4)
C42 C 1.1385(4) 0.10873(18) 1.1544(4)
C43 C 1.1251(8) 0.0671(2) 1.1473(6)
H26 H 1.1149 0.0526 1.1925
C44 C 1.1270(10) 0.0465(3) 1.0724(8)
H27 H 1.1185 0.0184 1.0683
C45 C 1.1411(9) 0.0675(4) 1.0051(7)
H28 H 1.146 0.0537 0.9569
C46 C 1.1476(8) 0.1082(3) 1.0098(6)
H29 H 1.1524 0.123 0.9627
C47 C 1.1473(6) 0.1283(3) 1.0844(5)
H30 H 1.1534 0.1566 1.0865
C48 C 1.0619(4) 0.26328(18) 1.1834(4)
C49 C 1.0315(5) 0.2953(2) 1.2199(5)
H31 H 0.9759 0.2945 1.224
C50 C 1.0834(7) 0.3293(2) 1.2512(7)
H32 H 1.0627 0.3508 1.2768
C51 C 1.1659(6) 0.3311(3) 1.2439(7)
H33 H 1.2 0.354 1.2624
C52 C 1.1959(5) 0.2986(3) 1.2091(6)
H34 H 1.2519 0.2991 1.2062
C53 C 1.1451(5) 0.2649(2) 1.1779(5)
H35 H 1.1666 0.2433 1.1533
C54 C 0.8334(4) 0.37950(17) 1.0022(4)
C55 C 0.7652(4) 0.40509(17) 1.0022(4)
C56 C 0.6956(4) 0.37899(17) 0.9968(4)
C57 C 0.9219(4) 0.3905(2) 1.0028(4)
C58 C 1.0862(6) 0.4125(3) 1.0023(6)
H36 H 1.1415 0.4197 1.0029
C59 C 0.7614(4) 0.44990(17) 1.0042(4)
C60 C 0.6078(4) 0.38936(18) 0.9939(4)
C61 C 0.5380(5) 0.3721(3) 0.9353(6)
H37 H 0.5462 0.3521 0.8979
C62 C 0.4559(5) 0.3838(3) 0.9311(7)
H38 H 0.4091 0.3708 0.8932
C63 C 0.4437(6) 0.4144(3) 0.9827(7)
H39 H 0.3884 0.4231 0.9783
C64 C 0.5111(6) 0.4323(3) 1.0399(7)
H40 H 0.502 0.4529 1.0754
C65 C 0.5940(5) 0.4201(3) 1.0462(5)
H41 H 0.6404 0.4326 1.0857
C66 C 1.1284(4) 0.17908(18) 1.3252(4)
C67 C 1.1036(5) 0.21395(19) 1.3701(4)
C68 C 1.0194(5) 0.2190(2) 1.3700(5)
H42 H 0.9785 0.1998 1.3425
C69 C 0.9953(6) 0.2520(3) 1.4100(6)
H43 H 0.9382 0.2553 1.408
C70 C 1.0560(7) 0.2804(3) 1.4532(6)
H44 H 1.04 0.3024 1.4813
C71 C 1.1392(7) 0.2760(3) 1.4542(6)
H45 H 1.1797 0.2953 1.4824
C72 C 1.1644(5) 0.2426(2) 1.4130(5)
H46 H 1.2214 0.2397 1.4144
C73 C 0.7175(4) 0.47520(17) 0.9370(4)
C74 C 0.6686(5) 0.46352(18) 0.8482(4)
C75 C 0.5831(6) 0.4698(3) 0.8185(6)
H47 H 0.5543 0.4826 0.8529
C76 C 0.5374(8) 0.4565(4) 0.7334(8)
H48 H 0.4785 0.4606 0.7126
C77 C 0.5776(10) 0.4383(4) 0.6835(7)
H49 H 0.547 0.4297 0.6284
C78 C 0.6599(12) 0.4327(5) 0.7119(8)
H50 H 0.688 0.4202 0.6765
C79 C 0.7075(8) 0.4451(4) 0.7953(7)
H51 H 0.7663 0.4406 0.8144
C80 C 0.7913(4) 0.47588(17) 1.0750(4)
C81 C 0.8399(5) 0.46559(19) 1.1650(5)
C82 C 0.9291(9) 0.4429(4) 1.3317(8)
H52 H 0.9584 0.4353 1.3878
C83 C 0.9250(8) 0.4526(4) 1.1817(8)
H53 H 0.9513 0.4507 1.1384
C84 C 0.9682(10) 0.4427(5) 1.2679(10)
H54 H 1.0259 0.4358 1.2823
C85 C 0.8448(13) 0.4549(6) 1.3089(8)
H55 H 0.8166 0.4548 1.3508
C86 C 0.7997(8) 0.4672(4) 1.2257(7)
H56 H 0.7432 0.4762 1.2126
C87 C 0.9359(6) 0.4268(3) 0.9631(7)
H57 H 0.8895 0.4433 0.9354
C88 C 1.0183(7) 0.4385(3) 0.9645(8)
H58 H 1.0276 0.4631 0.9405
C89 C 1.0732(7) 0.3776(4) 1.0376(11)
H59 H 1.1194 0.3607 1.063
C90 C 0.9925(6) 0.3663(3) 1.0372(8)
H60 H 0.9852 0.3412 1.0611
Ag6 Ag 0.78037(3) 0.566404(14) 1.12771(3)
Ag4A Ag 0.69356(4) 0.566365(14) 0.88969(3)
Ag5_2 Ag 1.27137(4) 0.153248(14) 1.49140(3)
N9A N 0.2787(4) 0.01393(14) 0.5344(3)
N11A N 0.8026(3) 0.62325(14) 1.1910(3)
N12_2 N 0.1905(3) 0.15260(14) 0.3668(3)
Ag6A Ag 1.21963(3) 0.066404(14) 1.37229(3)
C91? C 0.9080(19) 0.4854(10) 1.220(2)
H61? H 0.9273 0.5082 1.1968
C92? C 0.952(2) 0.4764(12) 1.304(2)
H62? H 0.9953 0.493 1.3378
C93? C 0.863(3) 0.4212(15) 1.298(3)
H63? H 0.8487 0.399 1.3264
C94? C 0.813(2) 0.4329(11) 1.213(2)
H64? H 0.761 0.4195 1.1872
C95? C 0.958(5) 0.424(2) 1.047(4)
H65? H 0.9265 0.4401 1.0734
C96? C 1.041(5) 0.435(2) 1.052(4)
H66? H 1.0672 0.4562 1.0871
C97? C 1.047(4) 0.3747(16) 0.972(3)
H67? H 1.0784 0.3545 0.9549
C98? C 0.964(3) 0.3677(15) 0.969(3)
H68? H 0.937 0.3447 0.9396
loop_
_geom_bond_atom_site_label_1
_geom_bond_atom_site_label_2
_geom_bond_site_symmetry_1
_geom_bond_site_symmetry_2
Ag1 N2 1_555 1_555
Ag2 N1 1_555 1_555
Ag3 N4 1_555 1_555
Ag4 N8 1_555 1_555
Ag5 N7 1_555 1_555
N1 N2 1_555 1_555
N2 C3 1_555 1_555
N3 Ag2 1_555 1_555
N4 N3 1_555 1_555
N5 Ag1 1_555 1_555
N6 Ag3 1_555 1_555
N7 N8 1_555 1_555
N8 C18 1_555 1_555
N9 N10 1_555 1_555
N10 C80 1_555 1_555
N11 N12 1_555 1_555
N12 C66 1_555 1_555
C1 N1 1_555 1_555
C2 C1 1_555 1_555
C3 C2 1_555 1_555
C4 C3 1_555 1_555
C5 C4 1_555 1_555
H1 C5 1_555 1_555
C6 C5 1_555 1_555
H2 C6 1_555 1_555
C7 C6 1_555 1_555
H3 C7 1_555 1_555
C8 C7 1_555 1_555
H4 C8 1_555 1_555
C9 C4 1_555 1_555
H5 C9 1_555 1_555
C10 C1 1_555 1_555
C11 C10 1_555 1_555
H6 C11 1_555 1_555
C12 C11 1_555 1_555
H7 C12 1_555 1_555
C13 C12 1_555 1_555
H8 C13 1_555 1_555
C14 C13 1_555 1_555
H9 C14 1_555 1_555
C15 C10 1_555 1_555
H10 C15 1_555 1_555
C16 C2 1_555 1_555
C17 N7 1_555 1_555
C18 C16 1_555 1_555
C19 C18 1_555 1_555
C20 C19 1_555 1_555
H11 C20 1_555 1_555
C21 C20 1_555 1_555
H12 C21 1_555 1_555
C22 C21 1_555 1_555
H13 C22 1_555 1_555
C23 C22 1_555 1_555
H14 C23 1_555 1_555
C24 C19 1_555 1_555
H15 C24 1_555 1_555
C25 C17 1_555 1_555
C26 C25 1_555 1_555
H16 C26 1_555 1_555
C27 C26 1_555 1_555
H17 C27 1_555 1_555
C28 C27 1_555 1_555
H18 C28 1_555 1_555
C29 C28 1_555 1_555
H19 C29 1_555 1_555
C30 C25 1_555 1_555
H20 C30 1_555 1_555
C31 N5 1_555 1_555
C32 C31 1_555 1_555
C33 N6 1_555 1_555
C34 C31 1_555 1_555
C35 C34 1_555 1_555
H21 C35 1_555 1_555
C36 C35 1_555 1_555
H22 C36 1_555 1_555
C37 C36 1_555 1_555
H23 C37 1_555 1_555
C38 C37 1_555 1_555
H24 C38 1_555 1_555
C39 C34 1_555 1_555
H25 C39 1_555 1_555
C40 C32 1_555 1_555
C41 N11 1_555 1_555
C42 C41 1_555 1_555
C43 C42 1_555 1_555
H26 C43 1_555 1_555
C44 C43 1_555 1_555
H27 C44 1_555 1_555
C45 C44 1_555 1_555
H28 C45 1_555 1_555
C46 C45 1_555 1_555
H29 C46 1_555 1_555
C47 C42 1_555 1_555
H30 C47 1_555 1_555
C48 C33 1_555 1_555
C49 C48 1_555 1_555
H31 C49 1_555 1_555
C50 C49 1_555 1_555
H32 C50 1_555 1_555
C51 C50 1_555 1_555
H33 C51 1_555 1_555
C52 C51 1_555 1_555
H34 C52 1_555 1_555
C53 C48 1_555 1_555
H35 C53 1_555 1_555
C54 N4 1_555 1_555
C55 C54 1_555 1_555
C56 N3 1_555 1_555
C57 C54 1_555 1_555
C58 H36 1_555 1_555
C59 C55 1_555 1_555
C60 C56 1_555 1_555
C61 C60 1_555 1_555
H37 C61 1_555 1_555
C62 C61 1_555 1_555
H38 C62 1_555 1_555
C63 C62 1_555 1_555
H39 C63 1_555 1_555
C64 C63 1_555 1_555
H40 C64 1_555 1_555
C65 C60 1_555 1_555
H41 C65 1_555 1_555
C66 C40 1_555 1_555
C67 C66 1_555 1_555
C68 C67 1_555 1_555
H42 C68 1_555 1_555
C69 C68 1_555 1_555
H43 C69 1_555 1_555
C70 C69 1_555 1_555
H44 C70 1_555 1_555
C71 C70 1_555 1_555
H45 C71 1_555 1_555
C72 C67 1_555 1_555
H46 C72 1_555 1_555
C73 N9 1_555 1_555
C74 C73 1_555 1_555
C75 C74 1_555 1_555
H47 C75 1_555 1_555
C76 C75 1_555 1_555
H48 C76 1_555 1_555
C77 C76 1_555 1_555
H49 C77 1_555 1_555
C78 C77 1_555 1_555
H50 C78 1_555 1_555
C79 C74 1_555 1_555
H51 C79 1_555 1_555
C80 C59 1_555 1_555
C81 C80 1_555 1_555
C82 H52 1_555 1_555
C83 C81 1_555 1_555
H53 C83 1_555 1_555
C84 C82 1_555 1_555
H54 C84 1_555 1_555
C85 C82 1_555 1_555
H55 C85 1_555 1_555
C86 C81 1_555 1_555
H56 C86 1_555 1_555
C87 C57 1_555 1_555
H57 C87 1_555 1_555
C88 C58 1_555 1_555
H58 C88 1_555 1_555
C89 C58 1_555 1_555
H59 C89 1_555 1_555
C90 C57 1_555 1_555
H60 C90 1_555 1_555
Ag6 N10 1_555 1_555
Ag4A N9 1_555 1_555
Ag5_2 N12 1_555 1_555
N9A Ag4 1_555 1_555
N11A Ag6 1_555 1_555
N12_2 Ag5 1_555 1_555
Ag6A N11 1_555 1_555
N5 N6 1_555 1_555
C8 C9 1_555 1_555
C14 C15 1_555 1_555
C16 C17 1_555 1_555
C23 C24 1_555 1_555
C29 C30 1_555 1_555
C32 C33 1_555 1_555
C38 C39 1_555 1_555
C40 C41 1_555 1_555
C46 C47 1_555 1_555
C52 C53 1_555 1_555
C55 C56 1_555 1_555
C59 C73 1_555 1_555
C64 C65 1_555 1_555
C71 C72 1_555 1_555
C78 C79 1_555 1_555
C83 C84 1_555 1_555
C85 C86 1_555 1_555
C87 C88 1_555 1_555
C89 C90 1_555 1_555

#END
