
#######################################################################
#
#                 Cambridge Crystallographic Data Centre
#                                CCDC 
#
#######################################################################
#
# If this CIF has been generated from an entry in the Cambridge 
# Structural Database, then it will include bibliographic, chemical, 
# crystal, experimental, refinement or atomic coordinate data resulting 
# from the CCDC's data processing and validation procedures.
#
#######################################################################

data_UTULUR
_chemical_name_common            MIL-117
_chemical_formula_moiety         '(C40 H18 In6 O38)n,14n(H2 O1)'
_chemical_name_systematic        
'catena-[(\m~8~-Benzene-1,2,4,5-tetracarboxylato)-bis(\m~6~-benzene-1,2,4,5-tetracarboxylato)-(\m~4~-benzene-1,2,4,5-tetracarboxylic acid)-hexakis(\m~2~-hydroxo)-hexa-indium(iii) tetradecahydrate]'
_symmetry_cell_setting           orthorhombic
_symmetry_space_group_name_H-M   'P n m m'
_symmetry_Int_Tables_number      59
_space_group_name_Hall           '-P 2c 2bc'
loop_
_symmetry_equiv_pos_site_id
_symmetry_equiv_pos_as_xyz
1 x,y,z
2 x,1/2-y,1/2-z
3 -x,-y,1/2+z
4 -x,1/2+y,-z
5 -x,-y,-z
6 -x,1/2+y,1/2+z
7 x,y,1/2-z
8 x,1/2-y,z
_cell_length_a                   8.2390(8)
_cell_length_b                   22.251(2)
_cell_length_c                   37.791(4)
_cell_angle_alpha                90
_cell_angle_beta                 90
_cell_angle_gamma                90
_cell_volume                     6928.07
_exptl_crystal_description       'thin plate'
_cell_formula_units_Z            4
loop_
_atom_site_label
_atom_site_type_symbol
_atom_site_fract_x
_atom_site_fract_y
_atom_site_fract_z
In1 In 0.90306(9) 0.57485(3) 0.10769(2)
In2 In 1.16901(9) 0.42783(4) 0.10517(2)
In3 In 1.53459(10) 0.49973(4) 0.142240(19)
O1 O 1.3571(10) 0.4971(4) 0.1836(2)
O2 O 1.3637(9) 0.4887(4) 0.1009(2)
O3 O 0.7056(10) 0.5147(4) 0.1024(2)
O4 O 0.7134(10) 0.4951(4) 0.1836(2)
O5 O 1.0321(10) 0.5013(4) 0.0849(2)
O6 O 0.3461(11) 0.3609(4) 0.1210(3)
O7 O 0.5731(11) 0.4042(3) 0.1398(2)
O8 O 1.0894(11) 0.6332(4) 0.1263(2)
O9 O 0.9772(11) 0.3674(4) 0.1197(3)
O10 O 1.1410(11) 0.4492(4) 0.1610(2)
O11 O 0.9281(11) 0.5460(4) 0.1624(2)
O12 O 1.7203(11) 0.6393(4) 0.1271(3)
O13 O 1.4930(10) 0.5946(4) 0.1446(2)
O14 O 0.8345(13) 0.6182(5) -0.0553(3)
O15 O 0.9071(16) 0.6356(5) 0.0632(3)
C1 C 0.9507(15) 0.5011(6) 0.2183(3)
C2 C 1.1209(14) 0.4896(5) 0.2179(3)
C3 C 1.1980(19) 0.4844(7) 0.2500
H1 H 1.3091 0.4770 0.2500
C4 C 0.8694(18) 0.5072(8) 0.2500
H2 H 0.7587 0.5154 0.2500
C5 C 0.8580(14) 0.5146(5) 0.1847(3)
C6 C 1.2107(15) 0.4772(6) 0.1844(3)
C7 C 0.5867(15) 0.3052(5) 0.1213(3)
C8 C 0.7522(13) 0.3053(5) 0.1121(3)
C9 C 0.830(2) 0.2500 0.1080(5)
H3 H 0.9400 0.2500 0.1022
C10 C 0.511(2) 0.2500 0.1255(5)
H4 H 0.4018 0.2500 0.1315
C11 C 0.8420(15) 0.3612(5) 0.1025(4)
C12 C 0.4934(14) 0.3619(5) 0.1275(3)
C13 C 0.8039(17) 0.6957(6) 0.0183(3)
C14 C 0.7511(19) 0.6957(6) -0.0176(3)
C15 C 0.825(2) 0.6373(7) 0.0379(4)
C16 C 0.837(3) 0.7500 0.0357(5)
H5 H 0.8800 0.7500 0.0585
C17 C 0.728(3) 0.7500 -0.0338(5)
H6 H 0.6939 0.7500 -0.0573
C18 C 0.729(2) 0.6378(7) -0.0386(4)
C19 C 1.3153(16) 0.6951(5) 0.1189(4)
C20 C 1.2223(15) 0.6392(5) 0.1094(3)
C21 C 1.235(2) 0.7500 0.1148(5)
H7 H 1.1256 0.7500 0.1091
C22 C 1.5738(16) 0.6374(6) 0.1329(3)
C23 C 1.5637(19) 0.7500 0.1304(5)
H8 H 1.6750 0.7500 0.1345
C24 C 1.4815(14) 0.6949(5) 0.1274(3)
O16 O 0.7920(11) 0.3941(4) 0.0793(3)
O17 O 0.746(2) 0.5917(5) 0.0271(4)
O18 O 0.572(2) 0.6235(7) -0.0430(4)
O19 O 1.2704(11) 0.6061(4) 0.0856(3)
In1G In 0.90306(9) 0.92515(3) 0.10769(2)
In1_2 In 1.90306(9) 0.57485(3) 0.10769(2)
In1F In 0.90306(9) 0.57485(3) 0.39231(2)
In1G_2 In 1.90306(9) 0.92515(3) 0.10769(2)
In2F In 1.16901(9) 0.42783(4) 0.39483(2)
In2_2 In 0.16901(9) 0.42783(4) 0.10517(2)
In2D In 0.83099(9) 0.57217(4) -0.10517(2)
In2G In 0.16901(9) 0.07217(4) 0.10517(2)
In2G_2 In 1.16901(9) 0.07217(4) 0.10517(2)
In2C In 0.83099(9) 0.92783(4) -0.10517(2)
In2G_3 In 1.16901(9) 1.07217(4) 0.10517(2)
In3F In 1.53459(10) 0.49973(4) 0.357760(19)
In3_2 In 0.53459(10) 0.49973(4) 0.142240(19)
In3F_2 In 0.53459(10) 0.49973(4) 0.357760(19)
In3G In 0.53459(10) 0.00027(4) 0.142240(19)
In3G_2 In 1.53459(10) 1.00027(4) 0.142240(19)
O1F O 1.3571(10) 0.4971(4) 0.3164(2)
O2F O 1.3637(9) 0.4887(4) 0.3991(2)
O3_2 O 1.7056(10) 0.5147(4) 0.1024(2)
O3G O 0.7056(10) 0.9853(4) 0.1024(2)
O3F O 1.7056(10) 0.5147(4) 0.3976(2)
O4F O 0.7134(10) 0.4951(4) 0.3164(2)
O4_2 O 1.7134(10) 0.4951(4) 0.1836(2)
O4F_2 O 1.7134(10) 0.4951(4) 0.3164(2)
O5G O 1.0321(10) 0.9987(4) 0.0849(2)
O5F O 1.0321(10) 0.5013(4) 0.4151(2)
O6G O 0.3461(11) 0.1391(4) 0.1210(3)
O6_2 O 1.3461(11) 0.3609(4) 0.1210(3)
O6F O 1.3461(11) 0.3609(4) 0.3790(3)
O7G O 0.5731(11) 0.0958(3) 0.1398(2)
O7_2 O 1.5731(11) 0.4042(3) 0.1398(2)
O7F O 1.5731(11) 0.4042(3) 0.3602(2)
O8G O 1.0894(11) 0.8668(4) 0.1263(2)
O9G O 0.9772(11) 0.1326(4) 0.1197(3)
O9F O 0.9772(11) 0.3674(4) 0.3803(3)
O10F O 1.1410(11) 0.4492(4) 0.3390(2)
O11F O 0.9281(11) 0.5460(4) 0.3376(2)
O11G O 0.9281(11) 0.9540(4) 0.1624(2)
O12G O 1.7203(11) 0.8607(4) 0.1271(3)
O12_2 O 0.7203(11) 0.6393(4) 0.1271(3)
O12G_2 O 0.7203(11) 0.8607(4) 0.1271(3)
O13G O 1.4930(10) 0.9054(4) 0.1446(2)
O13F O 1.4930(10) 0.5946(4) 0.3554(2)
O14G O 0.8345(13) 0.8818(5) -0.0553(3)
O14D O 1.1655(13) 0.3818(5) 0.0553(3)
O14B O 1.1655(13) 0.3818(5) 0.4447(3)
O15G O 0.9071(16) 0.8644(5) 0.0632(3)
C1F C 0.9507(15) 0.5011(6) 0.2817(3)
C2F C 1.1209(14) 0.4896(5) 0.2821(3)
C5F C 0.8580(14) 0.5146(5) 0.3153(3)
C6F C 1.2107(15) 0.4772(6) 0.3156(3)
C7G C 0.5867(15) 0.1948(5) 0.1213(3)
C8G C 0.7522(13) 0.1947(5) 0.1121(3)
C11G C 0.8420(15) 0.1388(5) 0.1025(4)
C12G C 0.4934(14) 0.1381(5) 0.1275(3)
C13G C 0.8039(17) 0.8043(6) 0.0183(3)
C14G C 0.7511(19) 0.8043(6) -0.0176(3)
C15G C 0.825(2) 0.8627(7) 0.0379(4)
C18G C 0.729(2) 0.8622(7) -0.0386(4)
C19G C 1.3153(16) 0.8049(5) 0.1189(4)
C20G C 1.2223(15) 0.8608(5) 0.1094(3)
C22G C 1.5738(16) 0.8626(6) 0.1329(3)
C24G C 1.4815(14) 0.8051(5) 0.1274(3)
O16G O 0.7920(11) 0.1059(4) 0.0793(3)
O17G O 0.746(2) 0.9083(5) 0.0271(4)
O18G O 0.572(2) 0.8765(7) -0.0430(4)
O19G O 1.2704(11) 0.8939(4) 0.0856(3)
O20 O -0.3281(13) 0.3853(5) 0.0280(3)
O21 O 1.410(3) 0.6094(12) 0.0233(7)
O22 O 0.5700(16) 0.4867(6) 0.0349(3)
O23 O -0.097(4) 0.4171(16) 0.0097(9)
O24 O 0.460(4) 0.4498(16) -0.0002(8)
O25 O -0.252(4) 0.3028(15) 0.0235(9)
loop_
_geom_bond_atom_site_label_1
_geom_bond_atom_site_label_2
_geom_bond_site_symmetry_1
_geom_bond_site_symmetry_2
In1 O3 1_555 1_555
In2 O2 1_555 1_555
In3 O1 1_555 1_555
O1 C6 1_555 1_555
O2 In3 1_555 1_555
O3 In3_2 1_555 1_555
O4 C5 1_555 1_555
O5 In1 1_555 1_555
O6 C12 1_555 1_555
O7 C12 1_555 1_555
O8 In1 1_555 1_555
O9 In2 1_555 1_555
O10 In2 1_555 1_555
O11 In1 1_555 1_555
O12 C22 1_555 1_555
O13 In3 1_555 1_555
O14 C18 1_555 1_555
O15 In1 1_555 1_555
C1 C2 1_555 1_555
C2 C3 1_555 1_555
C3 H1 1_555 1_555
C4 C1 1_555 1_555
H2 C4 1_555 1_555
C5 O11 1_555 1_555
C6 O10 1_555 1_555
C7 C8 1_555 1_555
C8 C9 1_555 1_555
C9 H3 1_555 1_555
C10 C7 1_555 1_555
H4 C10 1_555 1_555
C11 O9 1_555 1_555
C12 C7 1_555 1_555
C13 C14 1_555 1_555
C14 C17 1_555 1_555
C15 O15 1_555 1_555
C16 C13 1_555 1_555
H5 C16 1_555 1_555
C17 H6 1_555 1_555
C18 C14 1_555 1_555
C19 C20 1_555 1_555
C20 O8 1_555 1_555
C21 C19 1_555 1_555
H7 C21 1_555 1_555
C22 O13 1_555 1_555
C23 H8 1_555 1_555
C24 C19 1_555 1_555
O16 C11 1_555 1_555
O17 C15 1_555 1_555
O18 C18 1_555 1_555
O19 C20 1_555 1_555
In1G O3G 1_555 1_555
In1_2 O12 1_555 1_555
In1F O5F 1_555 1_555
In1G_2 O12G 1_555 1_555
In2F O2F 1_555 1_555
In2_2 O6 1_555 1_555
In2D O14 1_555 1_555
In2G O6G 1_555 1_555
In2G_2 O9G 1_555 1_555
In2C O14G 1_555 1_555
In2G_3 O5G 1_555 1_555
In3F O1F 1_555 1_555
In3_2 O4 1_555 1_555
In3F_2 O4F 1_555 1_555
In3G O7G 1_555 1_555
In3G_2 O13G 1_555 1_555
O1F C6F 1_555 1_555
O2F In3F 1_555 1_555
O3_2 In3 1_555 1_555
O3F In3F 1_555 1_555
O4F C5F 1_555 1_555
O4_2 In3 1_555 1_555
O4F_2 In3F 1_555 1_555
O5G In1G 1_555 1_555
O5F In2F 1_555 1_555
O6G C12G 1_555 1_555
O6_2 In2 1_555 1_555
O6F In2F 1_555 1_555
O7G C12G 1_555 1_555
O7_2 In3 1_555 1_555
O7F In3F 1_555 1_555
O8G In1G 1_555 1_555
O9G C11G 1_555 1_555
O9F In2F 1_555 1_555
O10F In2F 1_555 1_555
O11F In1F 1_555 1_555
O11G In1G 1_555 1_555
O12G C22G 1_555 1_555
O12_2 In1 1_555 1_555
O12G_2 In1G 1_555 1_555
O13G C22G 1_555 1_555
O13F In3F 1_555 1_555
O14G C18G 1_555 1_555
O14D In2 1_555 1_555
O14B In2F 1_555 1_555
O15G In1G 1_555 1_555
C1F C4 1_555 1_555
C2F C3 1_555 1_555
C5F O11F 1_555 1_555
C6F O10F 1_555 1_555
C7G C10 1_555 1_555
C8G C9 1_555 1_555
C11G C8G 1_555 1_555
C12G C7G 1_555 1_555
C13G C16 1_555 1_555
C14G C17 1_555 1_555
C15G O15G 1_555 1_555
C18G C14G 1_555 1_555
C19G C21 1_555 1_555
C20G O8G 1_555 1_555
C22G C24G 1_555 1_555
C24G C23 1_555 1_555
O16G C11G 1_555 1_555
O17G C15G 1_555 1_555
O18G C18G 1_555 1_555
O19G C20G 1_555 1_555
In2 O5 1_555 1_555
O7 In3_2 1_555 1_555
C1 C5 1_555 1_555
C2 C6 1_555 1_555
C8 C11 1_555 1_555
C13 C15 1_555 1_555
C22 C24 1_555 1_555
C23 C24 1_555 1_555
In1_2 O3_2 1_555 1_555
C1F C2F 1_555 1_555
C1F C5F 1_555 1_555
C2F C6F 1_555 1_555
C7G C8G 1_555 1_555
C13G C14G 1_555 1_555
C13G C15G 1_555 1_555
C19G C20G 1_555 1_555
C19G C24G 1_555 1_555

#END
