
#######################################################################
#
#                 Cambridge Crystallographic Data Centre
#                                CCDC 
#
#######################################################################
#
# If this CIF has been generated from an entry in the Cambridge 
# Structural Database, then it will include bibliographic, chemical, 
# crystal, experimental, refinement or atomic coordinate data resulting 
# from the CCDC's data processing and validation procedures.
#
#######################################################################

data_QIWCUW
_chemical_formula_moiety         '(C42 H26 N8 O8 Zn2)n,2n(C3 H7 N1 O1)'
_chemical_name_systematic        
"catena-[(\m~8~-4,4',4'',4'''-(ethane-1,1,2,2-tetrayltetrakis(1H-pyrazole-1,4-diyl))tetrabenzoato)-di-zinc(ii) N,N-dimethylformamide solvate]"
_symmetry_cell_setting           monoclinic
_symmetry_space_group_name_H-M   'C 2/c'
_symmetry_Int_Tables_number      15
_space_group_name_Hall           '-C 2yc'
loop_
_symmetry_equiv_pos_site_id
_symmetry_equiv_pos_as_xyz
1 x,y,z
2 -x,y,1/2-z
3 1/2+x,1/2+y,z
4 1/2-x,1/2+y,1/2-z
5 -x,-y,-z
6 x,-y,1/2+z
7 1/2-x,1/2-y,-z
8 1/2+x,1/2-y,1/2+z
_cell_length_a                   23.269(5)
_cell_length_b                   10.602(2)
_cell_length_c                   24.340(5)
_cell_angle_alpha                90
_cell_angle_beta                 111.28(3)
_cell_angle_gamma                90
_cell_volume                     5595.22
_exptl_crystal_colour            colorless
_exptl_crystal_description       rod
_cell_formula_units_Z            4
loop_
_atom_site_label
_atom_site_type_symbol
_atom_site_fract_x
_atom_site_fract_y
_atom_site_fract_z
Zn1 Zn 0.24100(2) 0.42591(5) 0.51009(2)
O1 O 0.23090(16) 0.6401(3) 0.08343(14)
O2 O -0.17304(14) 0.6733(3) 0.54720(14)
N1 N 0.17080(16) 0.6991(3) 0.49040(15)
O3 O 0.29853(17) 0.4832(3) 0.11224(14)
N2 N 0.17673(18) 0.5831(3) 0.51648(16)
C1 C 0.2644(2) 0.5648(4) 0.1227(2)
N3 N 0.25075(18) 0.5439(4) 0.44354(15)
C2 C -0.1485(2) 0.7670(4) 0.5316(2)
C3 C 0.2610(3) 0.5735(4) 0.1828(2)
C4 C 0.1280(2) 0.5738(4) 0.5325(2)
H1 H 0.1191 0.5024 0.5516
C5 C 0.2484(2) 0.5946(4) 0.35281(19)
C6 C 0.2613(2) 0.5006(4) 0.39720(19)
H2 H 0.2757 0.4181 0.3940
C7 C 0.2533(3) 0.5854(4) 0.2941(2)
C8 C 0.2135(3) 0.6567(5) 0.2472(2)
H3 H 0.1835 0.7098 0.2535
C9 C 0.1210(2) 0.7601(5) 0.4912(2)
H4 H 0.1085 0.8424 0.4762
C10 C 0.3003(3) 0.5020(5) 0.2291(2)
H5 H 0.3300 0.4484 0.2226
C11 C 0.0911(2) 0.6838(5) 0.5173(2)
C12 C -0.0613(3) 0.8345(6) 0.5020(3)
H6 H -0.0844 0.9074 0.4845
C13 C 0.0085(3) 0.6253(5) 0.5547(2)
H7 H 0.0322 0.5542 0.5737
C14 C 0.2965(2) 0.5083(5) 0.2845(2)
H8 H 0.3236 0.4595 0.3160
C15 C -0.0492(2) 0.6457(5) 0.5579(2)
H9 H -0.0649 0.5872 0.5785
C16 C -0.0840(2) 0.7496(5) 0.5316(2)
C17 C 0.0312(2) 0.7082(5) 0.5241(2)
C18 C 0.2173(3) 0.6504(5) 0.1923(2)
H10 H 0.1900 0.6988 0.1608
C19 C -0.0041(3) 0.8129(6) 0.4977(3)
H11 H 0.0112 0.8707 0.4765
O4 O -0.17448(15) 0.8712(3) 0.51484(15)
N4 N 0.22998(17) 0.6638(3) 0.42950(15)
C20 C 0.21968(19) 0.7441(4) 0.47313(17)
H12 H 0.2081 0.8299 0.4555
C21 C 0.2286(2) 0.6980(4) 0.37576(18)
H13 H 0.2165 0.7776 0.3572
O1F O 0.26910(16) 0.8599(3) 0.91657(14)
O2F O 0.67304(14) 0.8267(3) 0.45280(14)
N1F N 0.32920(16) 0.8009(3) 0.50960(15)
O3F O 0.20147(17) 1.0168(3) 0.88776(14)
N2F N 0.32327(18) 0.9169(3) 0.48352(16)
C1F C 0.2356(2) 0.9352(4) 0.8773(2)
N3F N 0.24925(18) 0.9561(4) 0.55646(15)
C2F C 0.6485(2) 0.7330(4) 0.4684(2)
C3F C 0.2390(3) 0.9265(4) 0.8172(2)
C4F C 0.3720(2) 0.9262(4) 0.4675(2)
H1F H 0.3809 0.9976 0.4484
C5F C 0.2516(2) 0.9054(4) 0.64719(19)
C6F C 0.2387(2) 0.9994(4) 0.60280(19)
H2F H 0.2243 1.0819 0.6060
C7F C 0.2467(3) 0.9146(4) 0.7059(2)
C8F C 0.2865(3) 0.8433(5) 0.7528(2)
H3F H 0.3165 0.7902 0.7465
C9F C 0.3790(2) 0.7399(5) 0.5088(2)
H4F H 0.3915 0.6576 0.5238
C10F C 0.1997(3) 0.9980(5) 0.7709(2)
H5F H 0.1700 1.0516 0.7774
C11F C 0.4089(2) 0.8162(5) 0.4827(2)
C12F C 0.5613(3) 0.6655(6) 0.4980(3)
H6F H 0.5844 0.5926 0.5155
C13F C 0.4915(3) 0.8747(5) 0.4453(2)
H7F H 0.4678 0.9458 0.4263
C14F C 0.2035(2) 0.9917(5) 0.7155(2)
H8F H 0.1764 1.0405 0.6840
C15F C 0.5492(2) 0.8543(5) 0.4421(2)
H9F H 0.5649 0.9128 0.4215
C16F C 0.5840(2) 0.7504(5) 0.4684(2)
C17F C 0.4688(2) 0.7918(5) 0.4759(2)
C18F C 0.2827(3) 0.8496(5) 0.8077(2)
H10F H 0.3100 0.8012 0.8392
C19F C 0.5041(3) 0.6871(6) 0.5023(3)
H11F H 0.4888 0.6293 0.5235
O4F O 0.67448(15) 0.6288(3) 0.48516(15)
N4F N 0.27002(17) 0.8362(3) 0.57050(15)
C20F C 0.28032(19) 0.7559(4) 0.52687(17)
H12F H 0.2919 0.6701 0.5445
C21F C 0.2714(2) 0.8020(4) 0.62424(18)
H13F H 0.2835 0.7224 0.6428
Zn1D Zn -0.24100(2) 0.57409(5) 0.48991(2)
Zn1B Zn -0.25900(2) 0.92591(5) 0.51009(2)
Zn1B_2 Zn 0.74100(2) 0.92591(5) 0.51009(2)
Zn1C Zn 0.25900(2) 0.92591(5) 0.98991(2)
Zn1D_2 Zn 0.75900(2) 0.57409(5) 0.48991(2)
Zn1E Zn 0.24100(2) 0.57409(5) 0.01009(2)
Zn1F Zn 0.25900(2) 1.07409(5) 0.48991(2)
O1A O -0.23090(16) 0.6401(3) 0.41657(14)
O1E O 0.23090(16) 0.3599(3) 0.58343(14)
O2D O 0.17304(14) 0.3267(3) 0.45280(14)
O3A O -0.29853(17) 0.4832(3) 0.38776(14)
O3E O 0.29853(17) 0.5168(3) 0.61224(14)
N2D N -0.17673(18) 0.4169(3) 0.48352(16)
N3D N -0.25075(18) 0.4561(4) 0.55646(15)
O4B O 0.32552(15) 0.3712(3) 0.51484(15)
O4F_2 O -0.32552(15) 0.6288(3) 0.48516(15)
loop_
_geom_bond_atom_site_label_1
_geom_bond_atom_site_label_2
_geom_bond_site_symmetry_1
_geom_bond_site_symmetry_2
Zn1 N2 1_555 1_555
O1 C1 1_555 1_555
O2 C2 1_555 1_555
N1 N2 1_555 1_555
O3 C1 1_555 1_555
N2 C4 1_555 1_555
C1 C3 1_555 1_555
N3 Zn1 1_555 1_555
C2 C16 1_555 1_555
C3 C10 1_555 1_555
C4 H1 1_555 1_555
C5 C6 1_555 1_555
C6 N3 1_555 1_555
H2 C6 1_555 1_555
C7 C5 1_555 1_555
C8 C7 1_555 1_555
H3 C8 1_555 1_555
C9 N1 1_555 1_555
H4 C9 1_555 1_555
C10 H5 1_555 1_555
C11 C4 1_555 1_555
C12 H6 1_555 1_555
C13 H7 1_555 1_555
C14 C7 1_555 1_555
H8 C14 1_555 1_555
C15 C13 1_555 1_555
H9 C15 1_555 1_555
C16 C12 1_555 1_555
C17 C11 1_555 1_555
C18 C3 1_555 1_555
H10 C18 1_555 1_555
C19 C12 1_555 1_555
H11 C19 1_555 1_555
O4 C2 1_555 1_555
N4 N3 1_555 1_555
C20 N1 1_555 1_555
H12 C20 1_555 1_555
C21 C5 1_555 1_555
H13 C21 1_555 1_555
O1F C1F 1_555 1_555
O2F C2F 1_555 1_555
N1F N2F 1_555 1_555
O3F C1F 1_555 1_555
N2F C4F 1_555 1_555
C1F C3F 1_555 1_555
N3F C6F 1_555 1_555
C2F C16F 1_555 1_555
C3F C10F 1_555 1_555
C4F H1F 1_555 1_555
C5F C6F 1_555 1_555
C6F H2F 1_555 1_555
C7F C5F 1_555 1_555
C8F C7F 1_555 1_555
H3F C8F 1_555 1_555
C9F N1F 1_555 1_555
H4F C9F 1_555 1_555
C10F H5F 1_555 1_555
C11F C4F 1_555 1_555
C12F H6F 1_555 1_555
C13F H7F 1_555 1_555
C14F C7F 1_555 1_555
H8F C14F 1_555 1_555
C15F C13F 1_555 1_555
H9F C15F 1_555 1_555
C16F C12F 1_555 1_555
C17F C11F 1_555 1_555
C18F C3F 1_555 1_555
H10F C18F 1_555 1_555
C19F C12F 1_555 1_555
H11F C19F 1_555 1_555
O4F C2F 1_555 1_555
N4F N3F 1_555 1_555
C20F C20 1_555 1_555
H12F C20F 1_555 1_555
C21F C5F 1_555 1_555
H13F C21F 1_555 1_555
Zn1D O2 1_555 1_555
Zn1B O4 1_555 1_555
Zn1B_2 O2F 1_555 1_555
Zn1C O1F 1_555 1_555
Zn1D_2 O4F 1_555 1_555
Zn1E O1 1_555 1_555
Zn1F N2F 1_555 1_555
O1A Zn1D 1_555 1_555
O1E Zn1 1_555 1_555
O2D Zn1 1_555 1_555
O3A Zn1D 1_555 1_555
O3E Zn1 1_555 1_555
N2D Zn1D 1_555 1_555
N3D Zn1D 1_555 1_555
O4B Zn1 1_555 1_555
O4F_2 Zn1D 1_555 1_555
O3 Zn1E 1_555 1_555
C8 C18 1_555 1_555
C9 C11 1_555 1_555
C10 C14 1_555 1_555
C13 C17 1_555 1_555
C15 C16 1_555 1_555
C17 C19 1_555 1_555
N4 C20 1_555 1_555
N4 C21 1_555 1_555
N1F C20F 1_555 1_555
O3F Zn1C 1_555 1_555
N3F Zn1F 1_555 1_555
C8F C18F 1_555 1_555
C9F C11F 1_555 1_555
C10F C14F 1_555 1_555
C13F C17F 1_555 1_555
C15F C16F 1_555 1_555
C17F C19F 1_555 1_555
N4F C20F 1_555 1_555
N4F C21F 1_555 1_555

#END
