
#######################################################################
#
#                 Cambridge Crystallographic Data Centre
#                                CCDC 
#
#######################################################################
#
# If this CIF has been generated from an entry in the Cambridge 
# Structural Database, then it will include bibliographic, chemical, 
# crystal, experimental, refinement or atomic coordinate data resulting 
# from the CCDC's data processing and validation procedures.
#
#######################################################################

data_QIWDAD
_chemical_formula_moiety         '(C42 H26 Cd2 N8 O8)n,3.5n(C3 H7 N1 O1)'
_chemical_name_systematic        
"catena-((\m~8~- 4,4',4'',4'''-(Ethane-1,1,2,2-tetrayltetrakis(1H-pyrazole-1,4-diyl))tetrabenzoato)-di-cadmium dimethylformamide solvate)"
_symmetry_cell_setting           monoclinic
_symmetry_space_group_name_H-M   'C 2/c'
_symmetry_Int_Tables_number      15
_space_group_name_Hall           '-C 2yc'
loop_
_symmetry_equiv_pos_site_id
_symmetry_equiv_pos_as_xyz
1 x,y,z
2 -x,y,1/2-z
3 1/2+x,1/2+y,z
4 1/2-x,1/2+y,1/2-z
5 -x,-y,-z
6 x,-y,1/2+z
7 1/2-x,1/2-y,-z
8 1/2+x,1/2-y,1/2+z
_cell_length_a                   23.324(3)
_cell_length_b                   10.2514(6)
_cell_length_c                   25.426(2)
_cell_angle_alpha                90
_cell_angle_beta                 116.190(15)
_cell_angle_gamma                90
_cell_volume                     5455.31
_exptl_crystal_colour            colorless
_exptl_crystal_description       rod
_cell_formula_units_Z            4
loop_
_atom_site_label
_atom_site_type_symbol
_atom_site_fract_x
_atom_site_fract_y
_atom_site_fract_z
Cd1 Cd 0.24596(2) 1.08663(4) 0.527390(17)
C1 C 0.2164(3) 0.7571(5) 0.4731(2)
H1 H 0.2034 0.6688 0.4551
N1 N 0.1761(2) 0.9174(4) 0.5204(2)
O1 O 0.2924(2) 0.9902(4) 0.12940(16)
C2 C 0.2549(3) 0.9137(6) 0.1371(3)
C3 C 0.2509(3) 0.9151(6) 0.1945(3)
O2 O -0.17951(19) 0.7606(4) 0.53669(16)
N2 N 0.1693(2) 0.7987(4) 0.49242(19)
C4 C 0.1274(3) 0.9206(6) 0.5341(3)
H2 H 0.1194 0.9912 0.5542
O3 O -0.1477(2) 0.5572(4) 0.5414(2)
N3 N 0.2378(2) 0.9692(4) 0.4426(2)
O4 O 0.2200(2) 0.8339(4) 0.09840(17)
C5 C -0.1400(3) 0.6782(6) 0.5372(2)
C6 C -0.0795(3) 0.7181(6) 0.5325(3)
C7 C 0.0062(3) 0.8623(6) 0.5490(3)
H3 H 0.0278 0.9416 0.5652
C8 C 0.1192(3) 0.7339(6) 0.4901(3)
H4 H 0.1057 0.6498 0.4735
C9 C -0.0489(3) 0.8323(6) 0.5543(3)
H5 H -0.0652 0.8915 0.5731
C10 C 0.0898(3) 0.8106(6) 0.5161(3)
C11 C 0.0300(3) 0.7812(6) 0.5214(3)
C12 C -0.0605(5) 0.6416(11) 0.4979(6)
H6 H -0.0835 0.5647 0.4799
C13 C -0.0087(5) 0.6780(9) 0.4903(5)
H7 H 0.0014 0.6317 0.4630
C14 C 0.2365(3) 0.9117(6) 0.3559(3)
C15 C 0.2418(4) 0.9155(6) 0.3004(3)
C16 C 0.2199(3) 0.8049(6) 0.3787(2)
H8 H 0.2103 0.7204 0.3617
C17 C 0.2470(3) 1.0106(6) 0.3972(2)
H9 H 0.2593 1.0970 0.3933
C18 C 0.2048(4) 0.8423(6) 0.2012(3)
H10 H 0.1761 0.7910 0.1694
C19 C 0.1997(4) 0.8425(7) 0.2526(3)
H11 H 0.1672 0.7924 0.2559
C20 C 0.2867(4) 0.9891(7) 0.2933(3)
H12 H 0.3157 1.0406 0.3249
C21 C 0.2903(4) 0.9893(7) 0.2401(3)
H13 H 0.3211 1.0429 0.2357
N4 N 0.2198(2) 0.8417(5) 0.42947(19)
C1F C 0.2836(3) 0.7429(5) 0.5269(2)
H1F H 0.2966 0.8312 0.5449
N1F N 0.3239(2) 0.5826(4) 0.4796(2)
O1F O 0.2076(2) 0.5098(4) 0.87060(16)
C2F C 0.2451(3) 0.5863(6) 0.8629(3)
C3F C 0.2491(3) 0.5849(6) 0.8055(3)
O2F O 0.67951(19) 0.7394(4) 0.46331(16)
N2F N 0.3307(2) 0.7013(4) 0.50758(19)
C4F C 0.3726(3) 0.5794(6) 0.4659(3)
H2F H 0.3806 0.5088 0.4458
O3F O 0.6477(2) 0.9428(4) 0.4586(2)
N3F N 0.2622(2) 0.5308(4) 0.5574(2)
O4F O 0.2800(2) 0.6661(4) 0.90160(17)
C5F C 0.6400(3) 0.8218(6) 0.4628(2)
C6F C 0.5795(3) 0.7819(6) 0.4675(3)
C7F C 0.4938(3) 0.6377(6) 0.4510(3)
H3F H 0.4722 0.5584 0.4348
C8F C 0.3808(3) 0.7661(6) 0.5099(3)
H4F H 0.3943 0.8502 0.5265
C9F C 0.5489(3) 0.6677(6) 0.4457(3)
H5F H 0.5652 0.6085 0.4269
C10F C 0.4102(3) 0.6894(6) 0.4839(3)
C11F C 0.4700(3) 0.7188(6) 0.4786(3)
C12F C 0.5605(5) 0.8584(11) 0.5021(6)
H6F H 0.5835 0.9353 0.5201
C13F C 0.5087(5) 0.8220(9) 0.5097(5)
H7F H 0.4986 0.8683 0.5370
C14F C 0.2635(3) 0.5883(6) 0.6441(3)
C15F C 0.2582(4) 0.5845(6) 0.6996(3)
C16F C 0.2801(3) 0.6951(6) 0.6213(2)
H8F H 0.2897 0.7796 0.6383
C17F C 0.2530(3) 0.4894(6) 0.6028(2)
H9F H 0.2407 0.4030 0.6067
C18F C 0.2952(4) 0.6577(6) 0.7988(3)
H10F H 0.3239 0.7090 0.8306
C19F C 0.3003(4) 0.6575(7) 0.7474(3)
H11F H 0.3328 0.7076 0.7441
C20F C 0.2133(4) 0.5109(7) 0.7067(3)
H12F H 0.1843 0.4594 0.6751
C21F C 0.2097(4) 0.5107(7) 0.7599(3)
H13F H 0.1789 0.4571 0.7643
N4F N 0.2802(2) 0.6583(5) 0.57053(19)
Cd1D Cd -0.24596(2) 0.91337(4) 0.472610(17)
Cd1B Cd -0.25404(2) 0.58663(4) 0.527390(17)
Cd1B_2 Cd 0.74596(2) 0.58663(4) 0.527390(17)
Cd1C Cd 0.25404(2) 0.58663(4) 0.972610(17)
Cd1D_2 Cd 0.75404(2) 0.91337(4) 0.472610(17)
Cd1E Cd 0.24596(2) 0.91337(4) 0.027390(17)
Cd1F Cd 0.25404(2) 0.41337(4) 0.472610(17)
N1D N -0.1761(2) 1.0826(4) 0.4796(2)
O1A O -0.2924(2) 0.9902(4) 0.37060(16)
O1E O 0.2924(2) 1.0098(4) 0.62940(16)
O2B O 0.32049(19) 1.2606(4) 0.53669(16)
O2D O 0.17951(19) 1.2394(4) 0.46331(16)
O2F_2 O -0.32049(19) 0.7394(4) 0.46331(16)
O3B O 0.3523(2) 1.0572(4) 0.5414(2)
O3F_2 O -0.3523(2) 0.9428(4) 0.4586(2)
N3D N -0.2378(2) 1.0308(4) 0.5574(2)
O4A O -0.2200(2) 0.8339(4) 0.40160(17)
O4E O 0.2200(2) 1.1661(4) 0.59840(17)
loop_
_geom_bond_atom_site_label_1
_geom_bond_atom_site_label_2
_geom_bond_site_symmetry_1
_geom_bond_site_symmetry_2
Cd1 N1 1_555 1_555
C1 H1 1_555 1_555
N1 N2 1_555 1_555
O1 C2 1_555 1_555
C2 C3 1_555 1_555
C3 C18 1_555 1_555
O2 C5 1_555 1_555
N2 C1 1_555 1_555
C4 N1 1_555 1_555
H2 C4 1_555 1_555
O3 C5 1_555 1_555
N3 Cd1 1_555 1_555
O4 C2 1_555 1_555
C5 C6 1_555 1_555
C6 C9 1_555 1_555
C7 H3 1_555 1_555
C8 N2 1_555 1_555
H4 C8 1_555 1_555
C9 C7 1_555 1_555
H5 C9 1_555 1_555
C10 C4 1_555 1_555
C11 C7 1_555 1_555
C12 C6 1_555 1_555
H6 C12 1_555 1_555
C13 C11 1_555 1_555
H7 C13 1_555 1_555
C14 C15 1_555 1_555
C15 C19 1_555 1_555
C16 C14 1_555 1_555
H8 C16 1_555 1_555
C17 N3 1_555 1_555
H9 C17 1_555 1_555
C18 H10 1_555 1_555
C19 C18 1_555 1_555
H11 C19 1_555 1_555
C20 C15 1_555 1_555
H12 C20 1_555 1_555
C21 C3 1_555 1_555
H13 C21 1_555 1_555
N4 C1 1_555 1_555
C1F C1 1_555 1_555
H1F C1F 1_555 1_555
N1F N2F 1_555 1_555
O1F C2F 1_555 1_555
C2F C3F 1_555 1_555
C3F C18F 1_555 1_555
O2F C5F 1_555 1_555
N2F C1F 1_555 1_555
C4F N1F 1_555 1_555
H2F C4F 1_555 1_555
O3F C5F 1_555 1_555
N3F C17F 1_555 1_555
O4F C2F 1_555 1_555
C5F C6F 1_555 1_555
C6F C9F 1_555 1_555
C7F H3F 1_555 1_555
C8F N2F 1_555 1_555
H4F C8F 1_555 1_555
C9F C7F 1_555 1_555
H5F C9F 1_555 1_555
C10F C4F 1_555 1_555
C11F C7F 1_555 1_555
C12F C6F 1_555 1_555
H6F C12F 1_555 1_555
C13F C11F 1_555 1_555
H7F C13F 1_555 1_555
C14F C15F 1_555 1_555
C15F C19F 1_555 1_555
C16F C14F 1_555 1_555
H8F C16F 1_555 1_555
C17F C14F 1_555 1_555
H9F C17F 1_555 1_555
C18F H10F 1_555 1_555
C19F C18F 1_555 1_555
H11F C19F 1_555 1_555
C20F C15F 1_555 1_555
H12F C20F 1_555 1_555
C21F C3F 1_555 1_555
H13F C21F 1_555 1_555
N4F C1F 1_555 1_555
Cd1D O2 1_555 1_555
Cd1B O2 1_555 1_555
Cd1B_2 O2F 1_555 1_555
Cd1C O1F 1_555 1_555
Cd1D_2 O2F 1_555 1_555
Cd1E O1 1_555 1_555
Cd1F N1F 1_555 1_555
N1D Cd1D 1_555 1_555
O1A Cd1D 1_555 1_555
O1E Cd1 1_555 1_555
O2B Cd1 1_555 1_555
O2D Cd1 1_555 1_555
O2F_2 Cd1D 1_555 1_555
O3B Cd1 1_555 1_555
O3F_2 Cd1D 1_555 1_555
N3D Cd1D 1_555 1_555
O4A Cd1D 1_555 1_555
O4E Cd1 1_555 1_555
O3 Cd1B 1_555 1_555
N3 N4 1_555 1_555
O4 Cd1E 1_555 1_555
C8 C10 1_555 1_555
C10 C11 1_555 1_555
C12 C13 1_555 1_555
C14 C17 1_555 1_555
C16 N4 1_555 1_555
C20 C21 1_555 1_555
O3F Cd1D_2 1_555 1_555
N3F N4F 1_555 1_555
N3F Cd1F 1_555 1_555
O4F Cd1C 1_555 1_555
C8F C10F 1_555 1_555
C10F C11F 1_555 1_555
C12F C13F 1_555 1_555
C16F N4F 1_555 1_555
C20F C21F 1_555 1_555
Cd1B O2F_2 1_555 1_555

#END
