
#######################################################################
#
#                 Cambridge Crystallographic Data Centre
#                                CCDC 
#
#######################################################################
#
# If this CIF has been generated from an entry in the Cambridge 
# Structural Database, then it will include bibliographic, chemical, 
# crystal, experimental, refinement or atomic coordinate data resulting 
# from the CCDC's data processing and validation procedures.
#
#######################################################################

data_FOQNUW
_chemical_formula_moiety         '(C28 H14 Cu3 N4 O18)n,2n(C3 H8 O1)'
_chemical_name_systematic        
"catena-((\m~6~-2,2'-Dinitrobiphenyl-4,4'-dicarboxylato)-(\m~4~-2,2'-dinitrobiphenyl-4,4'-dicarboxylato)-bis(\m~3~-hydroxo)-tri-copper isopropanol solvate)"
_symmetry_cell_setting           monoclinic
_symmetry_space_group_name_H-M   'P 21/c'
_symmetry_Int_Tables_number      14
_space_group_name_Hall           '-P 2ybc'
loop_
_symmetry_equiv_pos_site_id
_symmetry_equiv_pos_as_xyz
1 x,y,z
2 -x,1/2+y,1/2-z
3 -x,-y,-z
4 x,1/2-y,1/2+z
_cell_length_a                   15.286(3)
_cell_length_b                   32.626(7)
_cell_length_c                   10.053(2)
_cell_angle_alpha                90
_cell_angle_beta                 107.200(3)
_cell_angle_gamma                90
_cell_volume                     4789.42
_exptl_crystal_colour            'light green'
_exptl_crystal_description       Block
_cell_formula_units_Z            4
loop_
_atom_site_label
_atom_site_type_symbol
_atom_site_fract_x
_atom_site_fract_y
_atom_site_fract_z
Cu1 Cu 0.40849(5) 0.71624(2) 0.26962(7)
Cu2 Cu 0.48204(4) 0.71743(2) 0.01209(8)
Cu3 Cu 0.33414(4) 0.774765(19) 0.03323(7)
O1 O 0.3709(2) 0.71792(10) 0.0689(4)
H1 H 0.3307 0.7004 0.0288
O2 O 0.4564(3) 0.65713(12) 0.2603(5)
O3 O 0.5183(3) 0.66253(12) 0.0816(4)
O4 O 0.2833(3) 0.72763(13) 0.2818(4)
O5 O 0.2253(3) 0.76676(13) 0.0923(4)
O6 O 0.4448(2) 0.72434(11) 0.4679(4)
H2 H 0.4850 0.7073 0.5119
O7 O -0.0349(8) 0.8479(3) 0.1168(17)
O8 O -0.1569(5) 0.8083(4) 0.0918(14)
O9 O -0.0144(3) 0.8117(2) 0.4699(7)
O10 O -0.1222(4) 0.8421(2) 0.5164(8)
O11 O 0.7598(9) 0.5091(4) 0.2074(15)
O12 O 0.7484(9) 0.5609(4) 0.0820(17)
O13 O 0.7323(9) 0.5131(4) 0.4836(17)
O14 O 0.7203(12) 0.4698(5) 0.6356(11)
O15 O -0.4120(3) 0.77811(13) 0.4495(5)
O16 O -0.4657(2) 0.73909(13) 0.2595(4)
O17 O 0.6074(4) 0.31922(15) 0.2372(5)
O18 O 0.6748(3) 0.33306(12) 0.4588(5)
C1 C 0.4985(4) 0.64355(18) 0.1788(7)
C2 C 0.5271(5) 0.59985(19) 0.1961(7)
C3 C 0.4815(6) 0.5721(2) 0.2567(9)
H3 H 0.4308 0.5806 0.2826
C4 C 0.5103(6) 0.5328(2) 0.2783(10)
H4 H 0.4792 0.5151 0.3209
C5 C 0.5832(6) 0.5180(2) 0.2401(9)
C6 C 0.6267(7) 0.5459(3) 0.1764(12)
C7 C 0.5995(5) 0.5856(2) 0.1539(8)
H5 H 0.6299 0.6033 0.1099
C8 C 0.6099(6) 0.4737(2) 0.2655(9)
C9 C 0.6521(8) 0.4576(3) 0.3913(12)
C10 C 0.6654(6) 0.4158(2) 0.4145(9)
H6 H 0.6969 0.4063 0.5030
C11 C 0.6326(5) 0.38851(19) 0.3084(8)
C12 C 0.5856(7) 0.4041(2) 0.1814(9)
H7 H 0.5602 0.3863 0.1078
C13 C 0.5751(7) 0.4458(2) 0.1605(10)
H8 H 0.5435 0.4554 0.0723
C14 C 0.6394(5) 0.34370(19) 0.3343(7)
C15 C 0.2191(4) 0.74732(18) 0.1966(6)
C16 C 0.1279(4) 0.7484(2) 0.2231(6)
C17 C 0.0711(4) 0.7810(2) 0.1712(7)
H9 H 0.0902 0.8018 0.1233
C18 C -0.0147(4) 0.7825(2) 0.1905(9)
C19 C -0.0428(4) 0.7528(2) 0.2724(7)
C20 C 0.0188(4) 0.7197(2) 0.3212(7)
H10 H 0.0029 0.6989 0.3730
C21 C 0.0999(4) 0.7180(2) 0.2936(7)
H11 H 0.1376 0.6954 0.3236
C22 C -0.1335(4) 0.7538(2) 0.3023(7)
C23 C -0.1931(4) 0.72271(19) 0.2530(7)
H12 H -0.1743 0.7002 0.2116
C24 C -0.2822(4) 0.7237(2) 0.2629(7)
H13 H -0.3238 0.7034 0.2206
C25 C -0.3086(4) 0.7549(2) 0.3353(6)
C26 C -0.2439(4) 0.7845(2) 0.3985(7)
H14 H -0.2580 0.8044 0.4553
C27 C -0.1589(5) 0.7844(2) 0.3766(6)
C28 C -0.4029(4) 0.75761(18) 0.3487(6)
N1 N 0.7103(6) 0.5346(2) 0.1314(9)
N2 N -0.0748(4) 0.8161(2) 0.1271(7)
N3 N -0.0952(3) 0.8153(2) 0.4551(7)
N4 N 0.6921(6) 0.4840(2) 0.5186(8)
Cu1_2 Cu -0.59151(5) 0.71624(2) 0.26962(7)
Cu2_2 Cu -0.51796(4) 0.71743(2) 0.01209(8)
Cu2B Cu 0.51796(4) 0.28257(2) -0.01209(8)
Cu2C Cu -0.51796(4) 0.78257(2) 0.51209(8)
Cu2C_2 Cu 0.48204(4) 0.78257(2) 0.51209(8)
Cu3A Cu 0.66586(4) 0.274765(19) 0.46677(7)
Cu3C Cu 0.33414(4) 0.725235(19) 0.53323(7)
O4C O 0.2833(3) 0.77237(13) -0.2182(4)
O6C O 0.4448(2) 0.77566(11) -0.0321(4)
O15C O 0.5880(3) 0.72189(13) -0.0505(5)
O16_2 O 0.5343(2) 0.73909(13) 0.2595(4)
O17A O 0.3926(4) 0.81922(15) 0.2628(5)
O17B O 0.3926(4) 0.68078(15) -0.2372(5)
O18A O 0.3252(3) 0.83306(12) 0.0412(5)
O25 O 0.5609(8) 0.6713(4) 0.6196(15)
H15 H 0.5268 0.6674 0.6716
C29 C 0.6310(13) 0.6183(6) 0.7589(17)
H16 H 0.5818 0.6004 0.7623
H17 H 0.6336 0.6412 0.8201
H18 H 0.6879 0.6036 0.7879
C30 C 0.6150(11) 0.6336(5) 0.6127(17)
H19 H 0.5653 0.6152 0.5634
C31 C 0.6839(11) 0.6241(6) 0.536(2)
H20 H 0.6695 0.6396 0.4512
H21 H 0.6821 0.5953 0.5150
H22 H 0.7442 0.6313 0.5935
O26 O 0.2477(8) 0.6639(3) -0.0442(13)
H23 H 0.2803 0.6566 -0.0953
C32 C 0.1596(13) 0.6057(5) -0.1378(17)
H24 H 0.1814 0.6158 -0.2120
H25 H 0.0963 0.6129 -0.1556
H26 H 0.1659 0.5764 -0.1323
C33 C 0.2092(13) 0.6239(5) 0.1441(15)
H27 H 0.2545 0.6420 0.2010
H28 H 0.2201 0.5965 0.1804
H29 H 0.1494 0.6326 0.1445
C34 C 0.2151(13) 0.6246(4) -0.0016(14)
H30 H 0.2714 0.6085 0.0129
O19? O -0.0548(8) 0.8381(3) 0.0424(11)
O20? O -0.1294(7) 0.8332(4) 0.1756(13)
O21? O 0.7314(11) 0.4993(3) 0.121(2)
O22? O 0.6910(15) 0.5430(6) 0.0072(11)
O23? O 0.6943(12) 0.5207(3) 0.5035(19)
O24? O 0.6689(10) 0.4725(5) 0.6192(12)
loop_
_geom_bond_atom_site_label_1
_geom_bond_atom_site_label_2
_geom_bond_site_symmetry_1
_geom_bond_site_symmetry_2
Cu1 O1 1_555 1_555
Cu2 O1 1_555 1_555
Cu3 O1 1_555 1_555
O1 H1 1_555 1_555
O2 Cu1 1_555 1_555
O3 Cu2 1_555 1_555
O4 Cu1 1_555 1_555
O5 Cu3 1_555 1_555
O6 Cu1 1_555 1_555
H2 O6 1_555 1_555
O7 N2 1_555 1_555
O8 N2 1_555 1_555
O9 N3 1_555 1_555
O10 N3 1_555 1_555
O11 N1 1_555 1_555
O12 N1 1_555 1_555
O13 N4 1_555 1_555
O14 N4 1_555 1_555
O15 C28 1_555 1_555
O16 C28 1_555 1_555
O17 C14 1_555 1_555
O18 C14 1_555 1_555
C1 O2 1_555 1_555
C2 C1 1_555 1_555
C3 C2 1_555 1_555
H3 C3 1_555 1_555
C4 C3 1_555 1_555
H4 C4 1_555 1_555
C5 C4 1_555 1_555
C6 C5 1_555 1_555
C7 C2 1_555 1_555
H5 C7 1_555 1_555
C8 C5 1_555 1_555
C9 C8 1_555 1_555
C10 C9 1_555 1_555
H6 C10 1_555 1_555
C11 C10 1_555 1_555
C12 C11 1_555 1_555
H7 C12 1_555 1_555
C13 C8 1_555 1_555
H8 C13 1_555 1_555
C14 C11 1_555 1_555
C15 O4 1_555 1_555
C16 C15 1_555 1_555
C17 C16 1_555 1_555
H9 C17 1_555 1_555
C18 C17 1_555 1_555
C19 C18 1_555 1_555
C20 C19 1_555 1_555
H10 C20 1_555 1_555
C21 C16 1_555 1_555
H11 C21 1_555 1_555
C22 C19 1_555 1_555
C23 C22 1_555 1_555
H12 C23 1_555 1_555
C24 C23 1_555 1_555
H13 C24 1_555 1_555
C25 C24 1_555 1_555
C26 C25 1_555 1_555
H14 C26 1_555 1_555
C27 C22 1_555 1_555
C28 C25 1_555 1_555
N1 C6 1_555 1_555
N2 C18 1_555 1_555
N3 C27 1_555 1_555
N4 C9 1_555 1_555
O25 H15 1_555 1_555
C29 H16 1_555 1_555
H17 C29 1_555 1_555
H18 C29 1_555 1_555
C30 O25 1_555 1_555
H19 C30 1_555 1_555
C31 C30 1_555 1_555
H20 C31 1_555 1_555
H21 C31 1_555 1_555
H22 C31 1_555 1_555
O26 H23 1_555 1_555
C32 H24 1_555 1_555
H25 C32 1_555 1_555
H26 C32 1_555 1_555
C33 H27 1_555 1_555
H28 C33 1_555 1_555
H29 C33 1_555 1_555
C34 O26 1_555 1_555
H30 C34 1_555 1_555
Cu1_2 O16 1_555 1_555
Cu2_2 O16 1_555 1_555
Cu2B O17 1_555 1_555
Cu2C O15 1_555 1_555
Cu2C_2 O6 1_555 1_555
Cu3A O17 1_555 1_555
Cu3C O4 1_555 1_555
O4C Cu3 1_555 1_555
O6C Cu2 1_555 1_555
O15C Cu2 1_555 1_555
O16_2 Cu1 1_555 1_555
O17A Cu3 1_555 1_555
O17B Cu2 1_555 1_555
O18A Cu3 1_555 1_555
Cu2 O16_2 1_555 1_555
Cu3 O6C 1_555 1_555
O3 C1 1_555 1_555
O5 C15 1_555 1_555
O6 Cu3C 1_555 1_555
O18 Cu3A 1_555 1_555
C6 C7 1_555 1_555
C12 C13 1_555 1_555
C20 C21 1_555 1_555
C26 C27 1_555 1_555
C29 C30 1_555 1_555
C32 C34 1_555 1_555
C33 C34 1_555 1_555
Cu2C_2 O17A 1_555 1_555

#END
