
#######################################################################
#
#                 Cambridge Crystallographic Data Centre
#                                CCDC 
#
#######################################################################
#
# If this CIF has been generated from an entry in the Cambridge 
# Structural Database, then it will include bibliographic, chemical, 
# crystal, experimental, refinement or atomic coordinate data resulting 
# from the CCDC's data processing and validation procedures.
#
#######################################################################

data_FOQNOQ01
_chemical_formula_moiety         '(C28 H14 Cu3 N4 O18)n,2n(C3 H6 O1)'
_chemical_name_systematic        
"catena-((\m~6~-2,2'-Dinitrobiphenyl-4,4'-dicarboxylato)-(\m~4~-2,2'-dinitrobiphenyl-4,4'-dicarboxylato)-bis(\m~3~-hydroxo)-tri-copper acetone solvate)"
_symmetry_cell_setting           monoclinic
_symmetry_space_group_name_H-M   'P 21/c'
_symmetry_Int_Tables_number      14
_space_group_name_Hall           '-P 2ybc'
loop_
_symmetry_equiv_pos_site_id
_symmetry_equiv_pos_as_xyz
1 x,y,z
2 -x,1/2+y,1/2-z
3 -x,-y,-z
4 x,1/2-y,1/2+z
_cell_length_a                   15.3086(19)
_cell_length_b                   32.447(4)
_cell_length_c                   10.0075(13)
_cell_angle_alpha                90
_cell_angle_beta                 107.563(2)
_cell_angle_gamma                90
_cell_volume                     4739.19
_exptl_crystal_colour            'light green'
_exptl_crystal_description       Block
_cell_formula_units_Z            4
loop_
_atom_site_label
_atom_site_type_symbol
_atom_site_fract_x
_atom_site_fract_y
_atom_site_fract_z
Cu1 Cu 0.65659(3) 0.726758(12) 0.00097(4)
Cu2 Cu 0.51068(3) 0.785676(13) 0.02646(4)
Cu3 Cu 0.58266(3) 0.783827(13) -0.23571(4)
O1 O 0.62112(15) 0.78450(7) -0.0321(2)
H1 H 0.6621 0.8021 0.0069
O2 O 0.53200(19) 0.84272(8) -0.2362(3)
O3 O 0.46823(17) 0.83957(7) -0.0605(3)
O4 O 0.70981(15) 0.77399(8) -0.2453(2)
O5 O 0.76668(16) 0.73468(8) -0.0541(3)
O6 O 0.54649(15) 0.72613(7) 0.0659(2)
H2 H 0.5055 0.7095 0.0198
O7 O 1.14449(13) 0.6880(2) -0.0493(8)
O8 O 1.03119(13) 0.65389(6) -0.0360(3)
O9 O 1.00831(13) 0.68867(18) -0.4525(7)
O10 O 1.1105(2) 0.65776(12) -0.4958(4)
O11 O 0.2442(4) 1.00207(18) -0.1645(8)
O12 O 0.25590(11) 0.94981(7) -0.0426(3)
O13 O 0.3362(2) 1.0249(3) -0.6206(3)
O14 O 0.2948(3) 0.98030(4) -0.5091(7)
O15 O 1.40441(16) 0.71830(8) -0.4117(3)
O16 O 1.45852(15) 0.75920(8) -0.2233(2)
O17 O 0.3986(2) 1.18468(8) -0.2559(3)
O18 O 0.33674(18) 1.16844(7) -0.4808(3)
C1 C 0.4892(3) 0.85727(11) -0.1589(4)
C2 C 0.4591(3) 0.90112(12) -0.1862(4)
C3 C 0.4999(4) 0.92620(14) -0.2612(6)
H3 H 0.5446 0.9156 -0.2970
C4 C 0.4745(4) 0.96697(15) -0.2834(6)
H4 H 0.5063 0.9838 -0.3278
C5 C 0.4039(3) 0.98393(13) -0.2424(5)
C6 C 0.3662(4) 0.95834(14) -0.1655(6)
C7 C 0.3916(3) 0.91781(13) -0.1365(5)
H5 H 0.3637 0.9018 -0.0840
C8 C 0.3830(4) 1.02849(13) -0.2691(5)
C9 C 0.3426(4) 1.04471(15) -0.4017(6)
C10 C 0.3360(4) 1.08632(14) -0.4279(5)
H6 H 0.3082 1.0958 -0.5185
C11 C 0.3701(3) 1.11392(12) -0.3220(4)
C12 C 0.4092(4) 1.09864(15) -0.1900(5)
H7 H 0.4319 1.1168 -0.1157
C13 C 0.4154(5) 1.05667(15) -0.1654(6)
H8 H 0.4427 1.0474 -0.0745
C14 C 0.3690(3) 1.15924(12) -0.3513(4)
C15 C 0.7735(2) 0.75367(11) -0.1607(4)
C16 C 0.8635(2) 0.75126(13) -0.1869(4)
C17 C 0.9195(3) 0.71809(14) -0.1348(4)
H9 H 0.9005 0.6977 -0.0844
C18 C 1.0041(3) 0.71521(16) -0.1575(5)
C19 C 1.0355(3) 0.74446(16) -0.2340(4)
C20 C 0.9780(3) 0.77843(15) -0.2813(4)
H10 H 0.9973 0.7994 -0.3290
C21 C 0.8936(2) 0.78167(14) -0.2592(4)
H11 H 0.8567 0.8045 -0.2930
C22 C 1.1248(3) 0.74261(16) -0.2637(4)
C23 C 1.1875(3) 0.77354(16) -0.2115(5)
H12 H 1.1704 0.7956 -0.1656
C24 C 1.2761(3) 0.77318(14) -0.2247(4)
H13 H 1.3174 0.7941 -0.1858
C25 C 1.3010(2) 0.74120(13) -0.2963(4)
C26 C 1.2378(3) 0.71079(14) -0.3565(4)
H14 H 1.2538 0.6898 -0.4079
C27 C 1.1521(3) 0.71150(15) -0.3408(4)
C28 C 1.3960(2) 0.73949(11) -0.3107(4)
N1 N 0.2915(2) 0.97287(11) -0.10581(16)
N2 N 1.06230(13) 0.68118(8) -0.0938(3)
N3 N 1.08790(14) 0.67917(9) -0.4138(4)
N4 N 0.30807(19) 1.01687(5) -0.5238(3)
Cu1A Cu 0.34341(3) 1.226758(12) -0.50097(4)
Cu1C Cu 0.65659(3) 0.773242(12) -0.49903(4)
Cu2_2 Cu 1.51068(3) 0.785676(13) 0.02646(4)
Cu2B Cu 0.48932(3) 1.214324(13) -0.02646(4)
Cu2C Cu 1.51068(3) 0.714324(13) -0.47354(4)
Cu3_2 Cu 1.58266(3) 0.783827(13) -0.23571(4)
Cu3C Cu 0.58266(3) 0.716173(13) 0.26429(4)
O4C O 0.70981(15) 0.72601(8) 0.2547(2)
O6C O 0.54649(15) 0.77387(7) -0.4341(2)
O15C O 0.40441(16) 0.78170(8) 0.0883(3)
O16_2 O 0.45852(15) 0.75920(8) -0.2233(2)
O17A O 0.6014(2) 0.68468(8) -0.2441(3)
O17B O 0.6014(2) 0.81532(8) 0.2559(3)
O18A O 0.66326(18) 0.66844(7) -0.0192(3)
O25 O 0.7550(3) 0.83994(13) 0.0844(6)
C29 C 0.7729(7) 0.8798(3) -0.1042(7)
H15 H 0.7295 0.8603 -0.1590
H16 H 0.8293 0.8776 -0.1272
H17 H 0.7488 0.9071 -0.1242
C30 C 0.7907(5) 0.87056(19) 0.0507(6)
C31 C 0.8545(6) 0.8950(3) 0.1699(9)
H18 H 0.8556 0.8828 0.2578
H19 H 0.8331 0.9229 0.1665
H20 H 0.9152 0.8948 0.1609
O26 O 0.4321(3) 0.66656(16) -0.0902(7)
C32 C 0.3709(8) 0.6114(3) -0.2197(10)
H21 H 0.4166 0.6196 -0.2624
H22 H 0.3115 0.6124 -0.2882
H23 H 0.3833 0.5838 -0.1844
C33 C 0.3732(3) 0.6407(2) -0.0989(7)
C34 C 0.3058(4) 0.6320(4) -0.0183(8)
H24 H 0.3124 0.6526 0.0531
H25 H 0.3179 0.6053 0.0243
H26 H 0.2445 0.6328 -0.0813
O19? O 1.1020(2) 0.65911(13) -0.1555(5)
O20? O 1.0097(4) 0.6770(3) -0.4085(8)
O21? O 1.1233(3) 0.64673(8) -0.4239(8)
O22? O 0.3146(9) 0.9677(2) 0.01979(14)
O23? O 0.2865(9) 1.0299(3) -0.6434(5)
O24? O 0.26326(11) 0.98888(6) -0.4957(4)
loop_
_geom_bond_atom_site_label_1
_geom_bond_atom_site_label_2
_geom_bond_site_symmetry_1
_geom_bond_site_symmetry_2
Cu1 O1 1_555 1_555
Cu2 O1 1_555 1_555
Cu3 O1 1_555 1_555
O1 H1 1_555 1_555
O2 Cu3 1_555 1_555
O3 Cu2 1_555 1_555
O4 Cu3 1_555 1_555
O5 Cu1 1_555 1_555
O6 Cu1 1_555 1_555
H2 O6 1_555 1_555
O7 N2 1_555 1_555
O8 N2 1_555 1_555
O9 N3 1_555 1_555
O10 N3 1_555 1_555
O11 N1 1_555 1_555
O12 N1 1_555 1_555
O13 N4 1_555 1_555
O14 N4 1_555 1_555
O15 C28 1_555 1_555
O16 C28 1_555 1_555
O17 C14 1_555 1_555
O18 C14 1_555 1_555
C1 O2 1_555 1_555
C2 C1 1_555 1_555
C3 C2 1_555 1_555
H3 C3 1_555 1_555
C4 C3 1_555 1_555
H4 C4 1_555 1_555
C5 C4 1_555 1_555
C6 C5 1_555 1_555
C7 C2 1_555 1_555
H5 C7 1_555 1_555
C8 C5 1_555 1_555
C9 C8 1_555 1_555
C10 C9 1_555 1_555
H6 C10 1_555 1_555
C11 C10 1_555 1_555
C12 C11 1_555 1_555
H7 C12 1_555 1_555
C13 C8 1_555 1_555
H8 C13 1_555 1_555
C14 C11 1_555 1_555
C15 O4 1_555 1_555
C16 C15 1_555 1_555
C17 C16 1_555 1_555
H9 C17 1_555 1_555
C18 C17 1_555 1_555
C19 C18 1_555 1_555
C20 C19 1_555 1_555
H10 C20 1_555 1_555
C21 C16 1_555 1_555
H11 C21 1_555 1_555
C22 C19 1_555 1_555
C23 C22 1_555 1_555
H12 C23 1_555 1_555
C24 C23 1_555 1_555
H13 C24 1_555 1_555
C25 C24 1_555 1_555
C26 C25 1_555 1_555
H14 C26 1_555 1_555
C27 C22 1_555 1_555
C28 C25 1_555 1_555
N1 C6 1_555 1_555
N2 C18 1_555 1_555
N3 C27 1_555 1_555
N4 C9 1_555 1_555
O25 C30 1_555 1_555
C29 H15 1_555 1_555
H16 C29 1_555 1_555
H17 C29 1_555 1_555
C30 C29 1_555 1_555
C31 C30 1_555 1_555
H18 C31 1_555 1_555
H19 C31 1_555 1_555
H20 C31 1_555 1_555
O26 C33 1_555 1_555
C32 H21 1_555 1_555
H22 C32 1_555 1_555
H23 C32 1_555 1_555
C33 C32 1_555 1_555
C34 C33 1_555 1_555
H24 C34 1_555 1_555
H25 C34 1_555 1_555
H26 C34 1_555 1_555
Cu1A O17 1_555 1_555
Cu1C O4 1_555 1_555
Cu2_2 O16 1_555 1_555
Cu2B O17 1_555 1_555
Cu2C O15 1_555 1_555
Cu3_2 O16 1_555 1_555
Cu3C O6 1_555 1_555
O4C Cu1 1_555 1_555
O6C Cu3 1_555 1_555
O15C Cu2 1_555 1_555
O16_2 Cu2 1_555 1_555
O17A Cu1 1_555 1_555
O17B Cu2 1_555 1_555
O18A Cu1 1_555 1_555
Cu2 O6 1_555 1_555
Cu3 O16_2 1_555 1_555
O3 C1 1_555 1_555
O5 C15 1_555 1_555
O18 Cu1A 1_555 1_555
C6 C7 1_555 1_555
C12 C13 1_555 1_555
C20 C21 1_555 1_555
C26 C27 1_555 1_555
Cu1C O6C 1_555 1_555
Cu3C O4C 1_555 1_555

#END
