
#######################################################################
#
#                 Cambridge Crystallographic Data Centre
#                                CCDC 
#
#######################################################################
#
# If this CIF has been generated from an entry in the Cambridge 
# Structural Database, then it will include bibliographic, chemical, 
# crystal, experimental, refinement or atomic coordinate data resulting 
# from the CCDC's data processing and validation procedures.
#
#######################################################################

data_FOQNOQ
_chemical_formula_moiety         '(C28 H14 Cu3 N4 O18)n,2n(C3 H6 O1)'
_chemical_name_systematic        
"catena-((\m~6~-2,2'-Dinitrobiphenyl-4,4'-dicarboxylato)-(\m~4~-2,2'-dinitrobiphenyl-4,4'-dicarboxylato)-bis(\m~3~-hydroxo)-tri-copper acetone solvate)"
_symmetry_cell_setting           monoclinic
_symmetry_space_group_name_H-M   'P 21/c'
_symmetry_Int_Tables_number      14
_space_group_name_Hall           '-P 2ybc'
loop_
_symmetry_equiv_pos_site_id
_symmetry_equiv_pos_as_xyz
1 x,y,z
2 -x,1/2+y,1/2-z
3 -x,-y,-z
4 x,1/2-y,1/2+z
_cell_length_a                   15.331(9)
_cell_length_b                   32.500(19)
_cell_length_c                   10.050(6)
_cell_angle_alpha                90
_cell_angle_beta                 107.451(8)
_cell_angle_gamma                90
_cell_volume                     4777.01
_exptl_crystal_description       Block
_cell_formula_units_Z            4
loop_
_atom_site_label
_atom_site_type_symbol
_atom_site_fract_x
_atom_site_fract_y
_atom_site_fract_z
Cu1 Cu 0.41706(3) 0.716177(14) 0.73480(4)
Cu2 Cu 0.48896(3) 0.714368(14) 0.47274(5)
Cu3 Cu 0.34304(3) 0.773262(14) 0.49804(5)
O1 O 0.37873(16) 0.71549(7) 0.5310(2)
H1 H 0.3316 0.6953 0.4864
O2 O 0.4682(2) 0.65718(9) 0.7356(3)
O3 O 0.53138(19) 0.66040(8) 0.5590(3)
O4 O 0.28992(18) 0.72606(9) 0.7447(3)
O5 O 0.23321(17) 0.76516(9) 0.5526(3)
O6 O 0.45313(16) 0.72600(7) 0.9334(2)
H2 H 0.5002 0.7068 0.9862
O7 O -0.0339(4) 0.84460(19) 0.5316(8)
O8 O -0.1457(4) 0.8116(2) 0.5458(8)
O9 O -0.0077(3) 0.81626(17) 0.9331(6)
O10 O -0.1175(3) 0.84809(18) 0.9689(7)
O11 O 0.7742(9) 0.5051(4) 0.7174(14)
O12 O 0.6902(9) 0.5353(4) 0.4734(14)
O13 O 0.7269(4) 0.51624(19) 0.9980(7)
O14 O 0.6777(5) 0.4723(2) 1.1387(8)
O15 O -0.40460(17) 0.78182(8) 0.9111(3)
O16 O -0.45846(17) 0.74079(8) 0.7225(3)
O17 O 0.6019(2) 0.31531(9) 0.7566(3)
O18 O 0.6642(2) 0.33136(8) 0.9820(3)
C1 C 0.5111(3) 0.64287(12) 0.6587(4)
C2 C 0.5416(3) 0.59885(12) 0.6853(4)
C3 C 0.5007(4) 0.57399(15) 0.7610(6)
H3 H 0.4562 0.5847 0.7967
C4 C 0.5261(4) 0.53305(16) 0.7836(6)
H4 H 0.4952 0.5164 0.8298
C5 C 0.5956(4) 0.51613(15) 0.7400(5)
C6 C 0.6329(4) 0.54145(15) 0.6652(6)
C7 C 0.6078(3) 0.58192(14) 0.6359(5)
H5 H 0.6356 0.5977 0.5828
C8 C 0.6172(4) 0.47156(14) 0.7686(5)
C9 C 0.6580(5) 0.45538(15) 0.9009(6)
C10 C 0.6640(4) 0.41353(15) 0.9284(6)
H6 H 0.6913 0.4040 1.0186
C11 C 0.6296(3) 0.38620(13) 0.8217(5)
C12 C 0.5913(5) 0.40146(15) 0.6899(6)
H7 H 0.5695 0.3833 0.6158
C13 C 0.5844(5) 0.44351(16) 0.6655(6)
H8 H 0.5564 0.4528 0.5753
C14 C 0.6317(3) 0.34080(12) 0.8522(4)
C15 C 0.2261(3) 0.74637(13) 0.6589(4)
C16 C 0.1361(3) 0.74888(14) 0.6855(4)
C17 C 0.0790(3) 0.78216(16) 0.6331(5)
H9 H 0.0973 0.8024 0.5818
C18 C -0.0034(3) 0.78515(17) 0.6569(5)
C19 C -0.0357(3) 0.75626(18) 0.7331(5)
C20 C 0.0212(3) 0.72226(16) 0.7805(5)
H10 H 0.0018 0.7015 0.8287
C21 C 0.1061(3) 0.71862(15) 0.7574(5)
H11 H 0.1426 0.6957 0.7906
C22 C -0.1257(3) 0.75767(17) 0.7625(5)
C23 C -0.1875(3) 0.72680(18) 0.7110(5)
H12 H -0.1698 0.7048 0.6658
C24 C -0.2756(3) 0.72701(16) 0.7233(4)
H13 H -0.3165 0.7061 0.6839
C25 C -0.3013(3) 0.75867(14) 0.7947(4)
C26 C -0.2388(3) 0.78924(15) 0.8564(4)
H14 H -0.2550 0.8102 0.9075
C27 C -0.1525(3) 0.78816(16) 0.8409(5)
C28 C -0.3965(2) 0.76052(12) 0.8091(4)
N1 N 0.7079(6) 0.5272(2) 0.6128(9)
N2 N -0.0621(4) 0.82003(19) 0.5919(6)
N3 N -0.0882(3) 0.82016(16) 0.9118(6)
N4 N 0.6905(5) 0.4834(2) 1.0224(7)
Cu1_2 Cu -0.58294(3) 0.716177(14) 0.73480(4)
Cu2_2 Cu -0.51104(3) 0.714368(14) 0.47274(5)
Cu2B Cu 0.51104(3) 0.285632(14) 0.52726(5)
Cu2C Cu -0.51104(3) 0.785632(14) 0.97274(5)
Cu2C_2 Cu 0.48896(3) 0.785632(14) 0.97274(5)
Cu3A Cu 0.65696(3) 0.273262(14) 1.00196(5)
Cu3C Cu 0.34304(3) 0.726738(14) 0.99804(5)
O4C O 0.28992(18) 0.77394(9) 0.2447(3)
O6C O 0.45313(16) 0.77400(7) 0.4334(2)
O15C O 0.59540(17) 0.71818(8) 0.4111(3)
O16_2 O 0.54154(17) 0.74079(8) 0.7225(3)
O17A O 0.3981(2) 0.81531(9) 0.7434(3)
O17B O 0.3981(2) 0.68469(9) 0.2434(3)
O18A O 0.3358(2) 0.83136(8) 0.5180(3)
O23 O 0.2445(3) 0.65963(16) 0.4182(7)
C29 C 0.2270(8) 0.6187(4) 0.6006(14)
H15 H 0.2703 0.6378 0.6573
H16 H 0.2514 0.5913 0.6167
H17 H 0.1709 0.6201 0.6244
C30 C 0.2089(6) 0.6297(3) 0.4484(9)
C31 C 0.1450(7) 0.6039(3) 0.3361(14)
H18 H 0.1430 0.6146 0.2463
H19 H 0.0848 0.6047 0.3466
H20 H 0.1664 0.5760 0.3440
O24 O 0.5695(4) 0.66650(17) 1.0864(6)
C32 C 0.6355(10) 0.6111(4) 1.2153(17)
H21 H 0.5908 0.6160 1.2629
H22 H 0.6957 0.6142 1.2796
H23 H 0.6286 0.5836 1.1785
C33 C 0.6226(5) 0.6408(2) 1.1000(9)
C34 C 0.6873(9) 0.6324(4) 1.0223(14)
H24 H 0.6798 0.6526 0.9498
H25 H 0.6760 0.6055 0.9817
H26 H 0.7485 0.6338 1.0844
O19? O -0.0970(8) 0.8447(4) 0.6681(13)
O20? O 0.7445(7) 0.4948(3) 0.6350(11)
O21? O 0.7580(9) 0.5526(4) 0.5704(16)
O22? O 0.7651(11) 0.4712(7) 1.105(2)
loop_
_geom_bond_atom_site_label_1
_geom_bond_atom_site_label_2
_geom_bond_site_symmetry_1
_geom_bond_site_symmetry_2
Cu1 O1 1_555 1_555
Cu2 O1 1_555 1_555
Cu3 O1 1_555 1_555
O1 H1 1_555 1_555
O2 Cu1 1_555 1_555
O3 Cu2 1_555 1_555
O4 Cu1 1_555 1_555
O5 Cu3 1_555 1_555
O6 Cu1 1_555 1_555
H2 O6 1_555 1_555
O7 N2 1_555 1_555
O8 N2 1_555 1_555
O9 N3 1_555 1_555
O10 N3 1_555 1_555
O11 N1 1_555 1_555
O12 N1 1_555 1_555
O13 N4 1_555 1_555
O14 N4 1_555 1_555
O15 C28 1_555 1_555
O16 C28 1_555 1_555
O17 C14 1_555 1_555
O18 C14 1_555 1_555
C1 O2 1_555 1_555
C2 C1 1_555 1_555
C3 C2 1_555 1_555
H3 C3 1_555 1_555
C4 C3 1_555 1_555
H4 C4 1_555 1_555
C5 C4 1_555 1_555
C6 C5 1_555 1_555
C7 C2 1_555 1_555
H5 C7 1_555 1_555
C8 C5 1_555 1_555
C9 C8 1_555 1_555
C10 C9 1_555 1_555
H6 C10 1_555 1_555
C11 C10 1_555 1_555
C12 C11 1_555 1_555
H7 C12 1_555 1_555
C13 C8 1_555 1_555
H8 C13 1_555 1_555
C14 C11 1_555 1_555
C15 O4 1_555 1_555
C16 C15 1_555 1_555
C17 C16 1_555 1_555
H9 C17 1_555 1_555
C18 C17 1_555 1_555
C19 C18 1_555 1_555
C20 C19 1_555 1_555
H10 C20 1_555 1_555
C21 C16 1_555 1_555
H11 C21 1_555 1_555
C22 C19 1_555 1_555
C23 C22 1_555 1_555
H12 C23 1_555 1_555
C24 C23 1_555 1_555
H13 C24 1_555 1_555
C25 C24 1_555 1_555
C26 C25 1_555 1_555
H14 C26 1_555 1_555
C27 C22 1_555 1_555
C28 C25 1_555 1_555
N1 C6 1_555 1_555
N2 C18 1_555 1_555
N3 C27 1_555 1_555
N4 C9 1_555 1_555
O23 C30 1_555 1_555
C29 H15 1_555 1_555
H16 C29 1_555 1_555
H17 C29 1_555 1_555
C30 C29 1_555 1_555
C31 C30 1_555 1_555
H18 C31 1_555 1_555
H19 C31 1_555 1_555
H20 C31 1_555 1_555
O24 C33 1_555 1_555
C32 H21 1_555 1_555
H22 C32 1_555 1_555
H23 C32 1_555 1_555
C33 C32 1_555 1_555
C34 C33 1_555 1_555
H24 C34 1_555 1_555
H25 C34 1_555 1_555
H26 C34 1_555 1_555
Cu1_2 O16 1_555 1_555
Cu2_2 O16 1_555 1_555
Cu2B O17 1_555 1_555
Cu2C O15 1_555 1_555
Cu2C_2 O6 1_555 1_555
Cu3A O17 1_555 1_555
Cu3C O4 1_555 1_555
O4C Cu3 1_555 1_555
O6C Cu2 1_555 1_555
O15C Cu2 1_555 1_555
O16_2 Cu1 1_555 1_555
O17A Cu3 1_555 1_555
O17B Cu2 1_555 1_555
O18A Cu3 1_555 1_555
Cu2 O16_2 1_555 1_555
Cu3 O6C 1_555 1_555
O3 C1 1_555 1_555
O5 C15 1_555 1_555
O6 Cu3C 1_555 1_555
O18 Cu3A 1_555 1_555
C6 C7 1_555 1_555
C12 C13 1_555 1_555
C20 C21 1_555 1_555
C26 C27 1_555 1_555
Cu2C_2 O17A 1_555 1_555

#END
