
#######################################################################
#
#                 Cambridge Crystallographic Data Centre
#                                CCDC 
#
#######################################################################
#
# If this CIF has been generated from an entry in the Cambridge 
# Structural Database, then it will include bibliographic, chemical, 
# crystal, experimental, refinement or atomic coordinate data resulting 
# from the CCDC's data processing and validation procedures.
#
#######################################################################

data_FOQNOQ02
_chemical_formula_moiety         '(C28 H14 Cu3 N4 O18)n,2n(C3 H6 O1)'
_chemical_name_systematic        
"catena-((\m~6~-2,2'-Dinitrobiphenyl-4,4'-dicarboxylato)-(\m~4~-2,2'-dinitrobiphenyl-4,4'-dicarboxylato)-bis(\m~3~-hydroxo)-tri-copper acetone solvate)"
_symmetry_cell_setting           monoclinic
_symmetry_space_group_name_H-M   'P 21/c'
_symmetry_Int_Tables_number      14
_space_group_name_Hall           '-P 2ybc'
loop_
_symmetry_equiv_pos_site_id
_symmetry_equiv_pos_as_xyz
1 x,y,z
2 -x,1/2+y,1/2-z
3 -x,-y,-z
4 x,1/2-y,1/2+z
_cell_length_a                   15.317(4)
_cell_length_b                   32.467(9)
_cell_length_c                   10.015(3)
_cell_angle_alpha                90
_cell_angle_beta                 107.510(3)
_cell_angle_gamma                90
_cell_volume                     4749.66
_exptl_crystal_colour            'light green'
_exptl_crystal_description       Block
_cell_formula_units_Z            4
loop_
_atom_site_label
_atom_site_type_symbol
_atom_site_fract_x
_atom_site_fract_y
_atom_site_fract_z
Cu1 Cu 0.65443(4) 0.726722(18) 0.00032(6)
Cu2 Cu 0.50863(4) 0.785652(18) 0.02590(6)
Cu3 Cu 0.58059(4) 0.783819(18) -0.23623(6)
O1 O 0.6186(2) 0.78446(9) -0.0335(3)
H1 H 0.6596 0.8020 0.0053
O2 O 0.5295(3) 0.84270(11) -0.2368(4)
O3 O 0.4658(3) 0.83957(10) -0.0608(4)
O4 O 0.7082(2) 0.77411(11) -0.2460(4)
O5 O 0.7646(2) 0.73478(11) -0.0548(4)
O6 O 0.5448(2) 0.72619(10) 0.0658(3)
H2 H 0.5039 0.7096 0.0198
O7 O 1.0958(8) 0.6579(4) -0.1570(12)
O8 O 1.0277(5) 0.6544(2) -0.0393(10)
O9 O 1.1094(9) 0.6566(4) -0.4946(13)
O10 O 1.0045(4) 0.6844(2) -0.4363(7)
O11 O 0.3134(14) 0.9681(7) 0.0111(15)
O12 O 0.2338(10) 0.9970(4) -0.1931(15)
O13 O 0.3309(11) 1.0271(4) -0.6278(12)
O14 O 0.2902(11) 0.9810(3) -0.5129(19)
O15 O 1.4022(2) 0.71842(11) -0.4124(4)
O16 O 1.4561(2) 0.75955(11) -0.2244(4)
O17 O 0.4002(3) 1.18477(11) -0.2558(4)
O18 O 0.3380(3) 1.16861(10) -0.4801(4)
C1 C 0.4867(4) 0.85720(16) -0.1595(6)
C2 C 0.4574(4) 0.90124(16) -0.1862(6)
C3 C 0.4981(6) 0.9263(2) -0.2616(8)
H3 H 0.5424 0.9155 -0.2980
C4 C 0.4735(6) 0.9669(2) -0.2829(9)
H4 H 0.5052 0.9836 -0.3277
C5 C 0.4041(5) 0.98384(19) -0.2408(7)
C6 C 0.3647(6) 0.9589(2) -0.1639(8)
C7 C 0.3901(5) 0.91796(19) -0.1361(7)
H5 H 0.3621 0.9018 -0.0841
C8 C 0.3830(5) 1.02898(19) -0.2675(7)
C9 C 0.3443(6) 1.04497(19) -0.4005(8)
C10 C 0.3364(5) 1.08666(19) -0.4271(8)
H6 H 0.3077 1.0962 -0.5171
C11 C 0.3713(4) 1.11384(17) -0.3197(6)
C12 C 0.4095(6) 1.0986(2) -0.1910(7)
H7 H 0.4329 1.1167 -0.1168
C13 C 0.4149(6) 1.0565(2) -0.1654(8)
H8 H 0.4415 1.0472 -0.0744
C14 C 0.3703(4) 1.15934(16) -0.3502(6)
C15 C 0.7713(3) 0.75340(16) -0.1613(5)
C16 C 0.8601(4) 0.75134(17) -0.1877(5)
C17 C 0.9173(4) 0.7177(2) -0.1349(6)
H9 H 0.8983 0.6972 -0.0852
C18 C 1.0016(4) 0.7151(2) -0.1568(7)
C19 C 1.0330(4) 0.7444(2) -0.2347(6)
C20 C 0.9763(4) 0.7779(2) -0.2820(6)
H10 H 0.9958 0.7985 -0.3306
C21 C 0.8919(4) 0.78187(19) -0.2601(6)
H11 H 0.8561 0.8050 -0.2935
C22 C 1.1232(4) 0.7427(2) -0.2647(6)
C23 C 1.1860(4) 0.7735(2) -0.2115(7)
H12 H 1.1688 0.7955 -0.1655
C24 C 1.2735(4) 0.7729(2) -0.2238(6)
H13 H 1.3150 0.7936 -0.1837
C25 C 1.2985(4) 0.74106(17) -0.2965(5)
C26 C 1.2358(4) 0.71104(19) -0.3571(6)
H14 H 1.2522 0.6901 -0.4084
C27 C 1.1502(4) 0.7115(2) -0.3431(6)
C28 C 1.3936(3) 0.73946(15) -0.3112(5)
N1 N 0.2874(7) 0.9735(3) -0.1166(11)
N2 N 1.0602(4) 0.6815(2) -0.0937(7)
N3 N 1.0859(4) 0.6795(2) -0.4143(7)
N4 N 0.3087(6) 1.0170(2) -0.5250(9)
Cu1A Cu 0.34557(4) 1.226722(18) -0.50032(6)
Cu1C Cu 0.65443(4) 0.773278(18) -0.49968(6)
Cu2_2 Cu 1.50863(4) 0.785652(18) 0.02590(6)
Cu2B Cu 0.49137(4) 1.214348(18) -0.02590(6)
Cu2C Cu 1.50863(4) 0.714348(18) -0.47410(6)
Cu3_2 Cu 1.58059(4) 0.783819(18) -0.23623(6)
Cu3C Cu 0.58059(4) 0.716181(18) 0.26377(6)
O4C O 0.7082(2) 0.72589(11) 0.2540(4)
O6C O 0.5448(2) 0.77381(10) -0.4342(3)
O15C O 0.4022(2) 0.78158(11) 0.0876(4)
O16_2 O 0.4561(2) 0.75955(11) -0.2244(4)
O17A O 0.5998(3) 0.68477(11) -0.2442(4)
O17B O 0.5998(3) 0.81523(11) 0.2558(4)
O18A O 0.6620(3) 0.66861(10) -0.0199(4)
O19 O 0.7539(5) 0.8398(2) 0.0839(8)
C29 C 0.7687(9) 0.8811(4) -0.1083(12)
H15 H 0.7267 0.8616 -0.1653
H16 H 0.8250 0.8806 -0.1319
H17 H 0.7426 0.9082 -0.1245
C30 C 0.7878(8) 0.8698(4) 0.0466(11)
C31 C 0.8508(8) 0.8960(4) 0.1641(13)
H18 H 0.8528 0.8845 0.2532
H19 H 0.8277 0.9236 0.1578
H20 H 0.9114 0.8963 0.1547
O20 O 0.4298(6) 0.6672(3) -0.0896(10)
C32 C 0.3710(10) 0.6129(4) -0.2290(14)
H21 H 0.4142 0.6231 -0.2733
H22 H 0.3107 0.6131 -0.2950
H23 H 0.3872 0.5852 -0.1972
C33 C 0.3724(8) 0.6404(4) -0.1035(14)
C34 C 0.3060(9) 0.6277(4) -0.0249(15)
H24 H 0.3110 0.6465 0.0512
H25 H 0.3203 0.6004 0.0113
H26 H 0.2446 0.6284 -0.0874
O21? O 1.1425(5) 0.6879(4) -0.0495(12)
O22? O 1.1198(11) 0.6459(4) -0.425(2)
O23? O 0.2508(14) 0.9495(5) -0.055(2)
O24? O 0.2584(11) 1.0083(3) -0.1233(17)
O25? O 0.2632(12) 1.0322(5) -0.6347(15)
O26? O 0.2620(11) 0.9905(4) -0.495(2)
loop_
_geom_bond_atom_site_label_1
_geom_bond_atom_site_label_2
_geom_bond_site_symmetry_1
_geom_bond_site_symmetry_2
Cu1 O1 1_555 1_555
Cu2 O1 1_555 1_555
Cu3 O1 1_555 1_555
O1 H1 1_555 1_555
O2 Cu3 1_555 1_555
O3 Cu2 1_555 1_555
O4 Cu3 1_555 1_555
O5 Cu1 1_555 1_555
O6 Cu1 1_555 1_555
H2 O6 1_555 1_555
O7 N2 1_555 1_555
O8 N2 1_555 1_555
O9 N3 1_555 1_555
O10 N3 1_555 1_555
O11 N1 1_555 1_555
O12 N1 1_555 1_555
O13 N4 1_555 1_555
O14 N4 1_555 1_555
O15 C28 1_555 1_555
O16 C28 1_555 1_555
O17 C14 1_555 1_555
O18 C14 1_555 1_555
C1 O2 1_555 1_555
C2 C1 1_555 1_555
C3 C2 1_555 1_555
H3 C3 1_555 1_555
C4 C3 1_555 1_555
H4 C4 1_555 1_555
C5 C4 1_555 1_555
C6 C5 1_555 1_555
C7 C2 1_555 1_555
H5 C7 1_555 1_555
C8 C5 1_555 1_555
C9 C8 1_555 1_555
C10 C9 1_555 1_555
H6 C10 1_555 1_555
C11 C10 1_555 1_555
C12 C11 1_555 1_555
H7 C12 1_555 1_555
C13 C8 1_555 1_555
H8 C13 1_555 1_555
C14 C11 1_555 1_555
C15 O4 1_555 1_555
C16 C15 1_555 1_555
C17 C16 1_555 1_555
H9 C17 1_555 1_555
C18 C17 1_555 1_555
C19 C18 1_555 1_555
C20 C19 1_555 1_555
H10 C20 1_555 1_555
C21 C16 1_555 1_555
H11 C21 1_555 1_555
C22 C19 1_555 1_555
C23 C22 1_555 1_555
H12 C23 1_555 1_555
C24 C23 1_555 1_555
H13 C24 1_555 1_555
C25 C24 1_555 1_555
C26 C25 1_555 1_555
H14 C26 1_555 1_555
C27 C22 1_555 1_555
C28 C25 1_555 1_555
N1 C6 1_555 1_555
N2 C18 1_555 1_555
N3 C27 1_555 1_555
N4 C9 1_555 1_555
O19 C30 1_555 1_555
C29 H15 1_555 1_555
H16 C29 1_555 1_555
H17 C29 1_555 1_555
C30 C29 1_555 1_555
C31 C30 1_555 1_555
H18 C31 1_555 1_555
H19 C31 1_555 1_555
H20 C31 1_555 1_555
O20 C33 1_555 1_555
C32 H21 1_555 1_555
H22 C32 1_555 1_555
H23 C32 1_555 1_555
C33 C32 1_555 1_555
C34 C33 1_555 1_555
H24 C34 1_555 1_555
H25 C34 1_555 1_555
H26 C34 1_555 1_555
Cu1A O17 1_555 1_555
Cu1C O4 1_555 1_555
Cu2_2 O16 1_555 1_555
Cu2B O17 1_555 1_555
Cu2C O15 1_555 1_555
Cu3_2 O16 1_555 1_555
Cu3C O6 1_555 1_555
O4C Cu1 1_555 1_555
O6C Cu3 1_555 1_555
O15C Cu2 1_555 1_555
O16_2 Cu2 1_555 1_555
O17A Cu1 1_555 1_555
O17B Cu2 1_555 1_555
O18A Cu1 1_555 1_555
Cu2 O6 1_555 1_555
Cu3 O16_2 1_555 1_555
O3 C1 1_555 1_555
O5 C15 1_555 1_555
O18 Cu1A 1_555 1_555
C6 C7 1_555 1_555
C12 C13 1_555 1_555
C20 C21 1_555 1_555
C26 C27 1_555 1_555
Cu1C O6C 1_555 1_555
Cu3C O4C 1_555 1_555

#END
