
#######################################################################
#
#                 Cambridge Crystallographic Data Centre
#                                CCDC 
#
#######################################################################
#
# If this CIF has been generated from an entry in the Cambridge 
# Structural Database, then it will include bibliographic, chemical, 
# crystal, experimental, refinement or atomic coordinate data resulting 
# from the CCDC's data processing and validation procedures.
#
#######################################################################

data_FOQNUW02
_chemical_formula_moiety         '(C28 H14 Cu3 N4 O18)n,2n(C3 H8 O1)'
_chemical_name_systematic        
"catena-((\m~6~-2,2'-Dinitrobiphenyl-4,4'-dicarboxylato)-(\m~4~-2,2'-dinitrobiphenyl-4,4'-dicarboxylato)-bis(\m~3~-hydroxo)-tri-copper isopropanol solvate)"
_symmetry_cell_setting           monoclinic
_symmetry_space_group_name_H-M   'P 21/c'
_symmetry_Int_Tables_number      14
_space_group_name_Hall           '-P 2ybc'
loop_
_symmetry_equiv_pos_site_id
_symmetry_equiv_pos_as_xyz
1 x,y,z
2 -x,1/2+y,1/2-z
3 -x,-y,-z
4 x,1/2-y,1/2+z
_cell_length_a                   15.319(2)
_cell_length_b                   32.720(4)
_cell_length_c                   10.0665(13)
_cell_angle_alpha                90
_cell_angle_beta                 107.137(2)
_cell_angle_gamma                90
_cell_volume                     4821.69
_exptl_crystal_colour            'light green'
_exptl_crystal_description       Block
_cell_formula_units_Z            4
loop_
_atom_site_label
_atom_site_type_symbol
_atom_site_fract_x
_atom_site_fract_y
_atom_site_fract_z
Cu1 Cu 0.33453(4) 0.774658(19) 0.03314(7)
Cu2 Cu 0.48231(4) 0.71722(2) 0.01178(8)
Cu3 Cu 0.40889(4) 0.71625(2) 0.26955(7)
O1 O 0.3711(2) 0.71775(11) 0.0679(4)
H1 H 0.3309 0.7003 0.0279
O2 O 0.4577(3) 0.65707(12) 0.2619(5)
O3 O 0.5185(3) 0.66249(12) 0.0819(4)
O4 O 0.2834(2) 0.72735(12) 0.2814(4)
O5 O 0.2259(3) 0.76656(13) 0.0917(4)
O6 O 0.4448(2) 0.72465(11) 0.4670(4)
H2 H 0.4850 0.7077 0.5109
O7 O -0.0328(10) 0.8481(3) 0.124(2)
O8 O -0.1557(5) 0.8091(3) 0.0954(12)
O9 O -0.0131(3) 0.8110(2) 0.4690(8)
O10 O -0.1222(5) 0.8426(2) 0.5153(8)
O11 O 0.7574(10) 0.5066(5) 0.2021(17)
O12 O 0.6925(16) 0.5425(7) 0.0109(14)
O13 O 0.7298(11) 0.5126(4) 0.4839(19)
O14 O 0.7242(14) 0.4690(6) 0.6319(12)
O15 O -0.4118(3) 0.77849(12) 0.4481(5)
O16 O -0.4656(2) 0.73946(13) 0.2601(4)
O17 O 0.6076(4) 0.31939(14) 0.2366(5)
O18 O 0.6740(3) 0.33276(12) 0.4583(5)
C1 C 0.4985(4) 0.64337(17) 0.1796(6)
C2 C 0.5282(5) 0.59961(19) 0.1986(7)
C3 C 0.4834(6) 0.5725(2) 0.2606(9)
H3 H 0.4348 0.5812 0.2909
C4 C 0.5111(6) 0.5323(2) 0.2774(10)
H4 H 0.4780 0.5142 0.3148
C5 C 0.5854(6) 0.5176(2) 0.2417(9)
C6 C 0.6277(6) 0.5452(2) 0.1776(10)
C7 C 0.5995(5) 0.5855(2) 0.1543(9)
H5 H 0.6289 0.6030 0.1085
C8 C 0.6094(6) 0.4736(2) 0.2645(9)
C9 C 0.6533(7) 0.4571(2) 0.3954(10)
C10 C 0.6644(6) 0.4154(2) 0.4160(9)
H6 H 0.6945 0.4055 0.5041
C11 C 0.6319(5) 0.38883(19) 0.3089(7)
C12 C 0.5865(7) 0.4046(2) 0.1809(9)
H7 H 0.5636 0.3869 0.1065
C13 C 0.5740(7) 0.4460(2) 0.1597(9)
H8 H 0.5408 0.4555 0.0724
C14 C 0.6379(4) 0.34328(19) 0.3320(7)
C15 C 0.2192(4) 0.74749(18) 0.1961(6)
C16 C 0.1287(4) 0.7483(2) 0.2237(6)
C17 C 0.0701(4) 0.7806(2) 0.1710(7)
H9 H 0.0876 0.8013 0.1207
C18 C -0.0140(4) 0.7819(2) 0.1937(8)
C19 C -0.0426(4) 0.7527(2) 0.2718(7)
C20 C 0.0180(4) 0.7196(2) 0.3211(7)
H10 H 0.0015 0.6990 0.3725
C21 C 0.1014(4) 0.7175(2) 0.2943(7)
H11 H 0.1391 0.6950 0.3244
C22 C -0.1328(4) 0.7534(2) 0.3017(7)
C23 C -0.1934(4) 0.7228(2) 0.2510(6)
H12 H -0.1754 0.7007 0.2075
C24 C -0.2826(4) 0.7238(2) 0.2625(7)
H13 H -0.3241 0.7034 0.2213
C25 C -0.3082(4) 0.75513(19) 0.3354(6)
C26 C -0.2454(4) 0.7846(2) 0.3984(7)
H14 H -0.2604 0.8046 0.4535
C27 C -0.1585(5) 0.7841(2) 0.3785(7)
C28 C -0.4031(3) 0.75765(17) 0.3480(6)
N1 N 0.7091(9) 0.5333(3) 0.1333(14)
N2 N -0.0731(4) 0.8161(2) 0.1318(8)
N3 N -0.0952(3) 0.8152(2) 0.4537(7)
N4 N 0.6895(7) 0.4839(3) 0.5172(10)
Cu1A Cu 0.66547(4) 0.274658(19) 0.46686(7)
Cu1C Cu 0.33453(4) 0.725342(19) 0.53314(7)
Cu2_2 Cu -0.51769(4) 0.71722(2) 0.01178(8)
Cu2B Cu 0.51769(4) 0.28278(2) -0.01178(8)
Cu2C Cu -0.51769(4) 0.78278(2) 0.51178(8)
Cu2C_2 Cu 0.48231(4) 0.78278(2) 0.51178(8)
Cu3_2 Cu -0.59111(4) 0.71625(2) 0.26955(7)
O4C O 0.2834(2) 0.77265(12) -0.2186(4)
O6C O 0.4448(2) 0.77535(11) -0.0330(4)
O15C O 0.5882(3) 0.72151(12) -0.0519(5)
O16_2 O 0.5344(2) 0.73946(13) 0.2601(4)
O17A O 0.3924(4) 0.81939(14) 0.2634(5)
O17B O 0.3924(4) 0.68061(14) -0.2366(5)
O18A O 0.3260(3) 0.83276(12) 0.0417(5)
O25 O 0.2453(9) 0.6644(3) -0.0464(12)
H15 H 0.2733 0.6638 -0.1077
C29 C 0.2028(14) 0.6236(5) 0.1292(13)
H16 H 0.2516 0.6356 0.2017
H17 H 0.1922 0.5962 0.1547
H18 H 0.1483 0.6395 0.1163
C30 C 0.2295(8) 0.6229(3) -0.0087(13)
H19 H 0.2850 0.6065 0.0037
C31 C 0.1494(13) 0.6041(5) -0.1263(15)
H20 H 0.1659 0.6032 -0.2112
H21 H 0.0957 0.6206 -0.1395
H22 H 0.1373 0.5769 -0.1007
O26 O 0.5650(9) 0.6700(4) 0.6065(14)
H23 H 0.5308 0.6717 0.6592
C32 C 0.6388(14) 0.6150(5) 0.7629(17)
H24 H 0.5910 0.6150 0.8066
H25 H 0.6863 0.6334 0.8112
H26 H 0.6634 0.5879 0.7660
C33 C 0.5998(9) 0.6288(3) 0.6095(14)
H27 H 0.5505 0.6103 0.5602
C34 C 0.6769(14) 0.6283(6) 0.539(2)
H28 H 0.6531 0.6375 0.4444
H29 H 0.7001 0.6011 0.5397
H30 H 0.7254 0.6462 0.5882
O19? O -0.0548(9) 0.8382(4) 0.0448(13)
O20? O -0.1210(10) 0.8353(5) 0.1892(16)
O21? O 0.7279(13) 0.4980(4) 0.115(2)
O22? O 0.7504(13) 0.5598(5) 0.091(2)
O23? O 0.6914(13) 0.5210(3) 0.505(2)
O24? O 0.6729(12) 0.4720(5) 0.6222(14)
loop_
_geom_bond_atom_site_label_1
_geom_bond_atom_site_label_2
_geom_bond_site_symmetry_1
_geom_bond_site_symmetry_2
Cu1 O1 1_555 1_555
Cu2 O1 1_555 1_555
Cu3 O1 1_555 1_555
O1 H1 1_555 1_555
O2 Cu3 1_555 1_555
O3 Cu2 1_555 1_555
O4 Cu3 1_555 1_555
O5 Cu1 1_555 1_555
O6 Cu3 1_555 1_555
H2 O6 1_555 1_555
O7 N2 1_555 1_555
O8 N2 1_555 1_555
O9 N3 1_555 1_555
O10 N3 1_555 1_555
O11 N1 1_555 1_555
O12 N1 1_555 1_555
O13 N4 1_555 1_555
O14 N4 1_555 1_555
O15 C28 1_555 1_555
O16 C28 1_555 1_555
O17 C14 1_555 1_555
O18 C14 1_555 1_555
C1 O2 1_555 1_555
C2 C1 1_555 1_555
C3 C2 1_555 1_555
H3 C3 1_555 1_555
C4 C3 1_555 1_555
H4 C4 1_555 1_555
C5 C4 1_555 1_555
C6 C5 1_555 1_555
C7 C2 1_555 1_555
H5 C7 1_555 1_555
C8 C5 1_555 1_555
C9 C8 1_555 1_555
C10 C9 1_555 1_555
H6 C10 1_555 1_555
C11 C10 1_555 1_555
C12 C11 1_555 1_555
H7 C12 1_555 1_555
C13 C8 1_555 1_555
H8 C13 1_555 1_555
C14 C11 1_555 1_555
C15 O4 1_555 1_555
C16 C15 1_555 1_555
C17 C16 1_555 1_555
H9 C17 1_555 1_555
C18 C17 1_555 1_555
C19 C18 1_555 1_555
C20 C19 1_555 1_555
H10 C20 1_555 1_555
C21 C16 1_555 1_555
H11 C21 1_555 1_555
C22 C19 1_555 1_555
C23 C22 1_555 1_555
H12 C23 1_555 1_555
C24 C23 1_555 1_555
H13 C24 1_555 1_555
C25 C24 1_555 1_555
C26 C25 1_555 1_555
H14 C26 1_555 1_555
C27 C22 1_555 1_555
C28 C25 1_555 1_555
N1 C6 1_555 1_555
N2 C18 1_555 1_555
N3 C27 1_555 1_555
N4 C9 1_555 1_555
O25 H15 1_555 1_555
C29 H16 1_555 1_555
H17 C29 1_555 1_555
H18 C29 1_555 1_555
C30 O25 1_555 1_555
H19 C30 1_555 1_555
C31 C30 1_555 1_555
H20 C31 1_555 1_555
H21 C31 1_555 1_555
H22 C31 1_555 1_555
O26 H23 1_555 1_555
C32 H24 1_555 1_555
H25 C32 1_555 1_555
H26 C32 1_555 1_555
C33 O26 1_555 1_555
H27 C33 1_555 1_555
C34 C33 1_555 1_555
H28 C34 1_555 1_555
H29 C34 1_555 1_555
H30 C34 1_555 1_555
Cu1A O17 1_555 1_555
Cu1C O4 1_555 1_555
Cu2_2 O16 1_555 1_555
Cu2B O17 1_555 1_555
Cu2C O15 1_555 1_555
Cu2C_2 O6 1_555 1_555
Cu3_2 O16 1_555 1_555
O4C Cu1 1_555 1_555
O6C Cu1 1_555 1_555
O15C Cu2 1_555 1_555
O16_2 Cu2 1_555 1_555
O17A Cu1 1_555 1_555
O17B Cu2 1_555 1_555
O18A Cu1 1_555 1_555
Cu2 O6C 1_555 1_555
Cu3 O16_2 1_555 1_555
O3 C1 1_555 1_555
O5 C15 1_555 1_555
O6 Cu1C 1_555 1_555
O18 Cu1A 1_555 1_555
C6 C7 1_555 1_555
C12 C13 1_555 1_555
C20 C21 1_555 1_555
C26 C27 1_555 1_555
C29 C30 1_555 1_555
C32 C33 1_555 1_555
Cu2C_2 O17A 1_555 1_555

#END
