
#######################################################################
#
#                 Cambridge Crystallographic Data Centre
#                                CCDC 
#
#######################################################################
#
# If this CIF has been generated from an entry in the Cambridge 
# Structural Database, then it will include bibliographic, chemical, 
# crystal, experimental, refinement or atomic coordinate data resulting 
# from the CCDC's data processing and validation procedures.
#
#######################################################################

data_FOQPAE02
_chemical_formula_moiety         '(C28 H14 Cu3 N4 O18)n,2n(C4 H10 O1)'
_chemical_name_systematic        
"catena-((\m~6~-2,2'-Dinitrobiphenyl-4,4'-dicarboxylato)-(\m~4~-2,2'-dinitrobiphenyl-4,4'-dicarboxylato)-bis(\m~3~-hydroxo)-tri-copper butan-2-ol solvate)"
_symmetry_cell_setting           monoclinic
_symmetry_space_group_name_H-M   'P 21/c'
_symmetry_Int_Tables_number      14
_space_group_name_Hall           '-P 2ybc'
loop_
_symmetry_equiv_pos_site_id
_symmetry_equiv_pos_as_xyz
1 x,y,z
2 -x,1/2+y,1/2-z
3 -x,-y,-z
4 x,1/2-y,1/2+z
_cell_length_a                   15.3332(15)
_cell_length_b                   32.852(3)
_cell_length_c                   10.1075(10)
_cell_angle_alpha                90
_cell_angle_beta                 106.5650(10)
_cell_angle_gamma                90
_cell_volume                     4880.1
_exptl_crystal_colour            'light green'
_exptl_crystal_description       Block
_cell_formula_units_Z            4
loop_
_atom_site_label
_atom_site_type_symbol
_atom_site_fract_x
_atom_site_fract_y
_atom_site_fract_z
Cu1 Cu 0.57981(5) 0.21666(2) 0.22383(8)
Cu2 Cu 0.50667(5) 0.21733(2) 0.48218(9)
Cu3 Cu 0.65344(5) 0.27473(2) 0.45904(8)
O1 O 0.6172(3) 0.21805(12) 0.4237(4)
H1 H 0.6573 0.2006 0.4628
O2 O 0.5319(3) 0.15800(13) 0.2335(5)
O3 O 0.4715(3) 0.16262(13) 0.4134(5)
O4 O 0.7049(3) 0.22826(15) 0.2105(5)
O5 O 0.7619(3) 0.26697(15) 0.3987(5)
O6 O 0.5437(3) 0.27520(12) 0.5267(4)
H2 H 0.5036 0.2921 0.4839
O7 O 1.0466(12) 0.3345(5) 0.4569(15)
O8 O 1.0968(11) 0.3369(4) 0.2912(15)
O9 O 1.0034(6) 0.3045(5) 0.0009(18)
O10 O 1.1174(10) 0.3457(3) 0.0047(15)
O11 O 0.2742(13) -0.0036(5) 0.387(2)
O12 O 0.2770(16) 0.0509(7) 0.475(2)
O13 O 0.2941(15) 0.0184(3) 0.008(2)
O14 O 0.2941(14) -0.0303(6) -0.1284(13)
O15 O 1.4012(3) 0.27866(14) 0.0478(5)
O16 O 1.4540(3) 0.23979(14) 0.2346(5)
O17 O 0.4013(4) -0.18022(16) 0.2702(6)
O18 O 0.3370(3) -0.16749(14) 0.0473(5)
C1 C 0.4924(5) 0.1438(2) 0.3167(8)
C2 C 0.4652(5) 0.1000(2) 0.2989(8)
C3 C 0.5110(7) 0.0737(2) 0.2367(10)
H3 H 0.5581 0.0835 0.2044
C4 C 0.4879(7) 0.0326(3) 0.2214(11)
H4 H 0.5220 0.0150 0.1836
C5 C 0.4143(6) 0.0173(2) 0.2617(9)
C6 C 0.3699(6) 0.0445(2) 0.3252(11)
C7 C 0.3951(6) 0.0849(2) 0.3460(10)
H5 H 0.3649 0.1020 0.3917
C8 C 0.3933(6) -0.0268(2) 0.2402(10)
C9 C 0.3514(7) -0.0436(2) 0.1128(10)
C10 C 0.3427(7) -0.0850(2) 0.0888(10)
H6 H 0.3136 -0.0950 0.0012
C11 C 0.3779(5) -0.1113(2) 0.1971(9)
C12 C 0.4210(7) -0.0953(2) 0.3243(10)
H7 H 0.4453 -0.1127 0.3980
C13 C 0.4291(8) -0.0539(3) 0.3448(11)
H8 H 0.4596 -0.0440 0.4319
C14 C 0.3732(5) -0.1567(2) 0.1753(9)
C15 C 0.7683(4) 0.24786(19) 0.2959(7)
C16 C 0.8588(4) 0.2483(2) 0.2681(7)
C17 C 0.9169(6) 0.2806(3) 0.3217(9)
H9 H 0.8996 0.3009 0.3732
C18 C 1.0003(5) 0.2819(3) 0.2969(8)
C19 C 1.0306(5) 0.2521(3) 0.2194(8)
C20 C 0.9727(4) 0.2193(3) 0.1750(8)
H10 H 0.9918 0.1977 0.1307
C21 C 0.8864(5) 0.2180(2) 0.1951(8)
H11 H 0.8474 0.1965 0.1591
C22 C 1.1207(5) 0.2535(3) 0.1907(8)
C23 C 1.1845(5) 0.2230(3) 0.2453(9)
H12 H 1.1672 0.2012 0.2911
C24 C 1.2709(5) 0.2239(2) 0.2339(8)
H13 H 1.3121 0.2037 0.2753
C25 C 1.2976(4) 0.2551(2) 0.1603(7)
C26 C 1.2334(4) 0.2844(2) 0.0959(8)
H14 H 1.2490 0.3047 0.0428
C27 C 1.1468(5) 0.2831(2) 0.1112(8)
C28 C 1.3935(4) 0.25801(19) 0.1493(7)
N1 N 0.3142(12) 0.0287(5) 0.4111(19)
N2 N 1.0610(5) 0.3157(3) 0.3609(9)
N3 N 1.0835(4) 0.3148(2) 0.0360(8)
N4 N 0.3114(8) -0.0170(3) -0.0108(11)
Cu1_2 Cu 1.57981(5) 0.21666(2) 0.22383(8)
Cu1C Cu 0.57981(5) 0.28334(2) 0.72383(8)
Cu2_2 Cu 1.50667(5) 0.21733(2) 0.48218(9)
Cu2B Cu 0.49333(5) -0.21733(2) 0.51782(9)
Cu2C Cu 1.50667(5) 0.28267(2) -0.01782(9)
Cu3A Cu 0.34656(5) -0.22527(2) 0.04096(8)
Cu3C Cu 0.65344(5) 0.22527(2) -0.04096(8)
O4C O 0.7049(3) 0.27174(15) 0.7105(5)
O6C O 0.5437(3) 0.22480(12) 0.0267(4)
O15C O 0.4012(3) 0.22134(14) 0.5478(5)
O16_2 O 0.4540(3) 0.23979(14) 0.2346(5)
O17A O 0.5987(4) 0.31978(16) 0.2298(6)
O17B O 0.5987(4) 0.18022(16) 0.7298(6)
O18A O 0.6630(3) 0.33251(14) 0.4527(5)
O27 O 0.7359(11) 0.1637(5) 0.5477(16)
H15 H 0.709(11) 0.158(3) 0.608(16)
C29 C 0.8445(14) 0.1090(6) 0.6394(18)
H16 H 0.8213 0.1088 0.7181
H17 H 0.8970 0.1263 0.6578
H18 H 0.8611 0.0819 0.6211
C30 C 0.7702(10) 0.1253(4) 0.5121(14)
H19 H 0.7204 0.1056 0.4845
C31 C 0.8118(12) 0.1323(6) 0.3913(16)
H20 H 0.8172 0.1612 0.3767
H21 H 0.8721 0.1204 0.4135
C32 C 0.7502(16) 0.1125(7) 0.2587(16)
H22 H 0.7791 0.1145 0.1862
H23 H 0.6927 0.1264 0.2313
H24 H 0.7405 0.0844 0.2761
O28 O 0.4255(13) 0.3262(5) 0.3829(19)
H25 H 0.41(2) 0.317(4) 0.301(5)
C33 C 0.3091(16) 0.3630(7) 0.455(2)
H26 H 0.3322 0.3547 0.5493
H27 H 0.2659 0.3434 0.4049
H28 H 0.2800 0.3891 0.4505
C34 C 0.3886(12) 0.3663(5) 0.3896(15)
H29 H 0.4360 0.3841 0.4461
C35 C 0.3530(17) 0.3839(5) 0.2424(15)
H30 H 0.2923 0.3736 0.1989
H31 H 0.3923 0.3752 0.1876
C36 C 0.3507(19) 0.4310(5) 0.247(2)
H32 H 0.3259 0.4414 0.1553
H33 H 0.4113 0.4412 0.2851
H34 H 0.3133 0.4395 0.3038
O19? O 1.0254(12) 0.3459(4) 0.3929(19)
O20? O 1.1423(7) 0.3071(5) 0.3995(17)
O21? O 1.0044(6) 0.3143(5) 0.0377(18)
O22? O 1.1058(10) 0.3364(4) -0.0475(13)
O23? O 0.2409(13) 0.0026(5) 0.296(2)
O24? O 0.2258(15) 0.0587(6) 0.366(3)
O25? O 0.2649(13) 0.0096(5) 0.021(2)
O26? O 0.3387(13) -0.0266(7) -0.1091(16)
N5? N 0.2793(11) 0.0340(5) 0.344(2)
loop_
_geom_bond_atom_site_label_1
_geom_bond_atom_site_label_2
_geom_bond_site_symmetry_1
_geom_bond_site_symmetry_2
Cu1 O1 1_555 1_555
Cu2 O1 1_555 1_555
Cu3 O1 1_555 1_555
O1 H1 1_555 1_555
O2 Cu1 1_555 1_555
O3 Cu2 1_555 1_555
O4 Cu1 1_555 1_555
O5 Cu3 1_555 1_555
O6 Cu2 1_555 1_555
H2 O6 1_555 1_555
O7 N2 1_555 1_555
O8 N2 1_555 1_555
O9 N3 1_555 1_555
O10 N3 1_555 1_555
O11 N1 1_555 1_555
O12 N1 1_555 1_555
O13 N4 1_555 1_555
O14 N4 1_555 1_555
O15 C28 1_555 1_555
O16 C28 1_555 1_555
O17 C14 1_555 1_555
O18 C14 1_555 1_555
C1 O2 1_555 1_555
C2 C1 1_555 1_555
C3 C2 1_555 1_555
H3 C3 1_555 1_555
C4 C3 1_555 1_555
H4 C4 1_555 1_555
C5 C4 1_555 1_555
C6 C5 1_555 1_555
C7 C2 1_555 1_555
H5 C7 1_555 1_555
C8 C5 1_555 1_555
C9 C8 1_555 1_555
C10 C9 1_555 1_555
H6 C10 1_555 1_555
C11 C10 1_555 1_555
C12 C11 1_555 1_555
H7 C12 1_555 1_555
C13 C8 1_555 1_555
H8 C13 1_555 1_555
C14 C11 1_555 1_555
C15 O4 1_555 1_555
C16 C15 1_555 1_555
C17 C16 1_555 1_555
H9 C17 1_555 1_555
C18 C17 1_555 1_555
C19 C18 1_555 1_555
C20 C19 1_555 1_555
H10 C20 1_555 1_555
C21 C16 1_555 1_555
H11 C21 1_555 1_555
C22 C19 1_555 1_555
C23 C22 1_555 1_555
H12 C23 1_555 1_555
C24 C23 1_555 1_555
H13 C24 1_555 1_555
C25 C24 1_555 1_555
C26 C25 1_555 1_555
H14 C26 1_555 1_555
C27 C22 1_555 1_555
C28 C25 1_555 1_555
N1 C6 1_555 1_555
N2 C18 1_555 1_555
N3 C27 1_555 1_555
N4 C9 1_555 1_555
O27 H15 1_555 1_555
C29 H16 1_555 1_555
H17 C29 1_555 1_555
H18 C29 1_555 1_555
C30 O27 1_555 1_555
H19 C30 1_555 1_555
C31 C30 1_555 1_555
H20 C31 1_555 1_555
H21 C31 1_555 1_555
C32 C31 1_555 1_555
H22 C32 1_555 1_555
H23 C32 1_555 1_555
H24 C32 1_555 1_555
O28 H25 1_555 1_555
C33 H26 1_555 1_555
H27 C33 1_555 1_555
H28 C33 1_555 1_555
C34 O28 1_555 1_555
H29 C34 1_555 1_555
C35 C34 1_555 1_555
H30 C35 1_555 1_555
H31 C35 1_555 1_555
C36 C35 1_555 1_555
H32 C36 1_555 1_555
H33 C36 1_555 1_555
H34 C36 1_555 1_555
Cu1_2 O16 1_555 1_555
Cu1C O6 1_555 1_555
Cu2_2 O16 1_555 1_555
Cu2B O17 1_555 1_555
Cu2C O15 1_555 1_555
Cu3A O17 1_555 1_555
Cu3C O4 1_555 1_555
O4C Cu3 1_555 1_555
O6C Cu1 1_555 1_555
O15C Cu2 1_555 1_555
O16_2 Cu1 1_555 1_555
O17A Cu3 1_555 1_555
O17B Cu2 1_555 1_555
O18A Cu3 1_555 1_555
Cu2 O16_2 1_555 1_555
Cu3 O6 1_555 1_555
O3 C1 1_555 1_555
O5 C15 1_555 1_555
O18 Cu3A 1_555 1_555
C6 C7 1_555 1_555
C12 C13 1_555 1_555
C20 C21 1_555 1_555
C26 C27 1_555 1_555
C29 C30 1_555 1_555
C33 C34 1_555 1_555
Cu1C O4C 1_555 1_555
Cu3C O6C 1_555 1_555

#END
