
#######################################################################
#
#                 Cambridge Crystallographic Data Centre
#                                CCDC 
#
#######################################################################
#
# If this CIF has been generated from an entry in the Cambridge 
# Structural Database, then it will include bibliographic, chemical, 
# crystal, experimental, refinement or atomic coordinate data resulting 
# from the CCDC's data processing and validation procedures.
#
#######################################################################

data_FOQPAE01
_chemical_formula_moiety         '(C28 H14 Cu3 N4 O18)n,2n(C4 H10 O1)'
_chemical_name_systematic        
"catena-((\m~6~-2,2'-Dinitrobiphenyl-4,4'-dicarboxylato)-(\m~4~-2,2'-dinitrobiphenyl-4,4'-dicarboxylato)-bis(\m~3~-hydroxo)-tri-copper butan-2-ol solvate)"
_symmetry_cell_setting           monoclinic
_symmetry_space_group_name_H-M   'P 21/c'
_symmetry_Int_Tables_number      14
_space_group_name_Hall           '-P 2ybc'
loop_
_symmetry_equiv_pos_site_id
_symmetry_equiv_pos_as_xyz
1 x,y,z
2 -x,1/2+y,1/2-z
3 -x,-y,-z
4 x,1/2-y,1/2+z
_cell_length_a                   15.3370(18)
_cell_length_b                   32.832(4)
_cell_length_c                   10.1057(12)
_cell_angle_alpha                90
_cell_angle_beta                 106.549(2)
_cell_angle_gamma                90
_cell_volume                     4877.88
_exptl_crystal_colour            'light green'
_exptl_crystal_description       Block
_cell_formula_units_Z            4
loop_
_atom_site_label
_atom_site_type_symbol
_atom_site_fract_x
_atom_site_fract_y
_atom_site_fract_z
Cu1 Cu 0.58029(4) 0.216635(19) 0.22464(7)
Cu2 Cu 0.50722(4) 0.217262(19) 0.48308(7)
Cu3 Cu 0.65408(4) 0.274672(18) 0.45990(7)
O1 O 0.6177(2) 0.21803(10) 0.4248(4)
H1 H 0.6577 0.2006 0.4639
O2 O 0.5324(3) 0.15784(12) 0.2347(4)
O3 O 0.4720(3) 0.16264(11) 0.4141(4)
O4 O 0.7051(2) 0.22832(13) 0.2109(4)
O5 O 0.7626(2) 0.26671(12) 0.4001(4)
O6 O 0.5443(2) 0.27519(10) 0.5272(4)
H2 H 0.5042 0.2921 0.4844
O7 O 1.0479(7) 0.3345(3) 0.4601(9)
O8 O 1.0983(6) 0.3366(3) 0.2941(10)
O9 O 1.0035(3) 0.3048(3) -0.0006(12)
O10 O 1.1190(6) 0.3456(2) 0.0049(11)
O11 O 0.2754(8) -0.0040(3) 0.3932(18)
O12 O 0.2758(7) 0.0518(4) 0.4728(14)
O13 O 0.2942(9) 0.01869(19) 0.0053(16)
O14 O 0.2948(11) -0.0300(4) -0.1281(7)
O15 O 1.4018(3) 0.27874(12) 0.0487(4)
O16 O 1.4543(2) 0.23979(12) 0.2354(4)
O17 O 0.4011(3) -0.18018(14) 0.2701(5)
O18 O 0.3360(3) -0.16751(12) 0.0463(4)
C1 C 0.4923(4) 0.14391(18) 0.3179(6)
C2 C 0.4655(4) 0.09983(17) 0.2993(6)
C3 C 0.5113(5) 0.0736(2) 0.2381(8)
H3 H 0.5585 0.0833 0.2061
C4 C 0.4882(6) 0.0325(2) 0.2227(10)
H4 H 0.5226 0.0149 0.1859
C5 C 0.4137(5) 0.01730(19) 0.2619(8)
C6 C 0.3698(5) 0.0447(2) 0.3252(8)
C7 C 0.3951(5) 0.08483(19) 0.3467(8)
H5 H 0.3652 0.1019 0.3928
C8 C 0.3932(5) -0.0269(2) 0.2400(8)
C9 C 0.3515(6) -0.0434(2) 0.1132(9)
C10 C 0.3421(5) -0.0851(2) 0.0883(8)
H6 H 0.3127 -0.0950 0.0007
C11 C 0.3774(5) -0.11131(18) 0.1963(7)
C12 C 0.4212(6) -0.0953(2) 0.3242(8)
H7 H 0.4462 -0.1127 0.3976
C13 C 0.4285(6) -0.0542(2) 0.3446(9)
H8 H 0.4584 -0.0444 0.4321
C14 C 0.3724(4) -0.15672(18) 0.1737(7)
C15 C 0.7694(4) 0.24775(17) 0.2966(6)
C16 C 0.8592(4) 0.24832(19) 0.2689(6)
C17 C 0.9173(5) 0.2805(2) 0.3223(7)
H9 H 0.8998 0.3007 0.3740
C18 C 1.0011(4) 0.2823(2) 0.2979(7)
C19 C 1.0305(4) 0.2521(2) 0.2203(7)
C20 C 0.9728(4) 0.2194(2) 0.1754(7)
H10 H 0.9919 0.1980 0.1301
C21 C 0.8873(4) 0.2177(2) 0.1960(7)
H11 H 0.8488 0.1960 0.1608
C22 C 1.1210(4) 0.2534(2) 0.1903(7)
C23 C 1.1847(4) 0.2230(2) 0.2466(7)
H12 H 1.1676 0.2015 0.2936
C24 C 1.2716(4) 0.2240(2) 0.2348(6)
H13 H 1.3129 0.2038 0.2764
C25 C 1.2981(4) 0.2551(2) 0.1606(6)
C26 C 1.2341(4) 0.2843(2) 0.0979(6)
H14 H 1.2501 0.3050 0.0463
C27 C 1.1473(4) 0.28298(19) 0.1112(6)
C28 C 1.3936(3) 0.25803(16) 0.1493(6)
N1 N 0.3125(8) 0.0291(3) 0.4097(14)
N2 N 1.0616(3) 0.3157(2) 0.3633(7)
N3 N 1.0838(3) 0.31499(16) 0.0362(6)
N4 N 0.3111(6) -0.01697(18) -0.0103(7)
Cu1_2 Cu 1.58029(4) 0.216635(19) 0.22464(7)
Cu1C Cu 0.58029(4) 0.283365(19) 0.72464(7)
Cu2_2 Cu 1.50722(4) 0.217262(19) 0.48308(7)
Cu2B Cu 0.49278(4) -0.217262(19) 0.51692(7)
Cu2C Cu 1.50722(4) 0.282738(19) -0.01692(7)
Cu3A Cu 0.34592(4) -0.225328(18) 0.04010(7)
Cu3C Cu 0.65408(4) 0.225328(18) -0.04010(7)
O4C O 0.7051(2) 0.27168(13) 0.7109(4)
O6C O 0.5443(2) 0.22481(10) 0.0272(4)
O15C O 0.4018(3) 0.22126(12) 0.5487(4)
O16_2 O 0.4543(2) 0.23979(12) 0.2354(4)
O17A O 0.5989(3) 0.31982(14) 0.2299(5)
O17B O 0.5989(3) 0.18018(14) 0.7299(5)
O18A O 0.6640(3) 0.33249(12) 0.4537(4)
O27 O 0.73687(19) 0.16368(13) 0.5464(5)
H15 H 0.6978(4) 0.1588(9) 0.5895(10)
C29 C 0.8429(5) 0.1082(2) 0.6394(5)
H16 H 0.8190 0.1081 0.7175
H17 H 0.8959 0.1253 0.6588
H18 H 0.8590 0.0810 0.6212
C30 C 0.7698(4) 0.12489(18) 0.5114(5)
H19 H 0.7192 0.1056 0.4834
C31 C 0.8124(4) 0.1312(3) 0.3914(4)
H20 H 0.8236 0.1599 0.3815
H21 H 0.8701 0.1169 0.4113
C32 C 0.7473(9) 0.1148(5) 0.2556(8)
H22 H 0.7761 0.1167 0.1830
H23 H 0.6923 0.1306 0.2317
H24 H 0.7329 0.0868 0.2678
O28 O 0.4260(4) 0.32648(13) 0.3862(3)
H25 H 0.4095(12) 0.3179(2) 0.3035(5)
C33 C 0.3094(3) 0.3637(2) 0.4563(5)
H26 H 0.3321 0.3553 0.5509
H27 H 0.2659 0.3441 0.4063
H28 H 0.2807 0.3898 0.4520
C34 C 0.3890(4) 0.36662(15) 0.3915(5)
H29 H 0.4364 0.3846 0.4476
C35 C 0.3538(6) 0.38389(14) 0.2437(5)
H30 H 0.2927 0.3740 0.2011
H31 H 0.3925 0.3745 0.1888
C36 C 0.3536(15) 0.43104(16) 0.2470(15)
H32 H 0.3288 0.4413 0.1550
H33 H 0.4147 0.4408 0.2840
H34 H 0.3171 0.4403 0.3041
O19? O 1.0255(6) 0.3457(2) 0.3957(13)
O20? O 1.1428(4) 0.3069(4) 0.4012(14)
O21? O 1.0052(3) 0.3145(4) 0.0410(11)
O22? O 1.1055(6) 0.3367(3) -0.0474(8)
O23? O 0.2425(8) 0.0024(2) 0.3021(15)
O24? O 0.2247(6) 0.0595(4) 0.3631(18)
O25? O 0.2651(6) 0.0097(3) 0.0221(14)
O26? O 0.3385(6) -0.0264(4) -0.1087(8)
N5? N 0.2789(7) 0.0347(3) 0.3434(16)
loop_
_geom_bond_atom_site_label_1
_geom_bond_atom_site_label_2
_geom_bond_site_symmetry_1
_geom_bond_site_symmetry_2
Cu1 O1 1_555 1_555
Cu2 O1 1_555 1_555
Cu3 O1 1_555 1_555
O1 H1 1_555 1_555
O2 Cu1 1_555 1_555
O3 Cu2 1_555 1_555
O4 Cu1 1_555 1_555
O5 Cu3 1_555 1_555
O6 Cu2 1_555 1_555
H2 O6 1_555 1_555
O7 N2 1_555 1_555
O8 N2 1_555 1_555
O9 N3 1_555 1_555
O10 N3 1_555 1_555
O11 N1 1_555 1_555
O12 N1 1_555 1_555
O13 N4 1_555 1_555
O14 N4 1_555 1_555
O15 C28 1_555 1_555
O16 C28 1_555 1_555
O17 C14 1_555 1_555
O18 C14 1_555 1_555
C1 O2 1_555 1_555
C2 C1 1_555 1_555
C3 C2 1_555 1_555
H3 C3 1_555 1_555
C4 C3 1_555 1_555
H4 C4 1_555 1_555
C5 C4 1_555 1_555
C6 C5 1_555 1_555
C7 C2 1_555 1_555
H5 C7 1_555 1_555
C8 C5 1_555 1_555
C9 C8 1_555 1_555
C10 C9 1_555 1_555
H6 C10 1_555 1_555
C11 C10 1_555 1_555
C12 C11 1_555 1_555
H7 C12 1_555 1_555
C13 C8 1_555 1_555
H8 C13 1_555 1_555
C14 C11 1_555 1_555
C15 O4 1_555 1_555
C16 C15 1_555 1_555
C17 C16 1_555 1_555
H9 C17 1_555 1_555
C18 C17 1_555 1_555
C19 C18 1_555 1_555
C20 C19 1_555 1_555
H10 C20 1_555 1_555
C21 C16 1_555 1_555
H11 C21 1_555 1_555
C22 C19 1_555 1_555
C23 C22 1_555 1_555
H12 C23 1_555 1_555
C24 C23 1_555 1_555
H13 C24 1_555 1_555
C25 C24 1_555 1_555
C26 C25 1_555 1_555
H14 C26 1_555 1_555
C27 C22 1_555 1_555
C28 C25 1_555 1_555
N1 C6 1_555 1_555
N2 C18 1_555 1_555
N3 C27 1_555 1_555
N4 C9 1_555 1_555
O27 H15 1_555 1_555
C29 H16 1_555 1_555
H17 C29 1_555 1_555
H18 C29 1_555 1_555
C30 O27 1_555 1_555
H19 C30 1_555 1_555
C31 C30 1_555 1_555
H20 C31 1_555 1_555
H21 C31 1_555 1_555
C32 C31 1_555 1_555
H22 C32 1_555 1_555
H23 C32 1_555 1_555
H24 C32 1_555 1_555
O28 H25 1_555 1_555
C33 H26 1_555 1_555
H27 C33 1_555 1_555
H28 C33 1_555 1_555
C34 O28 1_555 1_555
H29 C34 1_555 1_555
C35 C34 1_555 1_555
H30 C35 1_555 1_555
H31 C35 1_555 1_555
C36 C35 1_555 1_555
H32 C36 1_555 1_555
H33 C36 1_555 1_555
H34 C36 1_555 1_555
Cu1_2 O16 1_555 1_555
Cu1C O6 1_555 1_555
Cu2_2 O16 1_555 1_555
Cu2B O17 1_555 1_555
Cu2C O15 1_555 1_555
Cu3A O17 1_555 1_555
Cu3C O4 1_555 1_555
O4C Cu3 1_555 1_555
O6C Cu1 1_555 1_555
O15C Cu2 1_555 1_555
O16_2 Cu1 1_555 1_555
O17A Cu3 1_555 1_555
O17B Cu2 1_555 1_555
O18A Cu3 1_555 1_555
Cu2 O16_2 1_555 1_555
Cu3 O6 1_555 1_555
O3 C1 1_555 1_555
O5 C15 1_555 1_555
O18 Cu3A 1_555 1_555
C6 C7 1_555 1_555
C12 C13 1_555 1_555
C20 C21 1_555 1_555
C26 C27 1_555 1_555
C29 C30 1_555 1_555
C33 C34 1_555 1_555
Cu1C O4C 1_555 1_555
Cu3C O6C 1_555 1_555

#END
