
#######################################################################
#
#                 Cambridge Crystallographic Data Centre
#                                CCDC 
#
#######################################################################
#
# If this CIF has been generated from an entry in the Cambridge 
# Structural Database, then it will include bibliographic, chemical, 
# crystal, experimental, refinement or atomic coordinate data resulting 
# from the CCDC's data processing and validation procedures.
#
#######################################################################

data_UDANAQ
_chemical_formula_moiety         '(C62 H44 N2 O8 Zn2)n,4n(C3 H7 N1 O1)'
_chemical_name_systematic        
'catena-(bis(\m~4~-9,10-bis(4-Carboxylatophenyl)anthracene)-(\m~2~-1,4-diazabicyclo(2.2.2)octane)-di-zinc dimethylformamide solvate)'
_symmetry_cell_setting           tetragonal
_symmetry_space_group_name_H-M   'I 4/m m m'
_symmetry_Int_Tables_number      139
_space_group_name_Hall           '-I 4 2'
loop_
_symmetry_equiv_pos_site_id
_symmetry_equiv_pos_as_xyz
1 x,y,z
2 -y,x,z
3 y,-x,z
4 1/2+x,1/2+y,1/2+z
5 1/2-y,1/2+x,1/2+z
6 1/2+y,1/2-x,1/2+z
7 y,x,-z
8 1/2+y,1/2+x,1/2-z
9 x,-y,-z
10 -y,-x,-z
11 -x,y,-z
12 1/2+x,1/2-y,1/2-z
13 1/2-y,1/2-x,1/2-z
14 1/2-x,1/2+y,1/2-z
15 -x,-y,z
16 1/2-x,1/2-y,1/2+z
17 -x,-y,-z
18 y,-x,-z
19 -y,x,-z
20 1/2-x,1/2-y,1/2-z
21 1/2+y,1/2-x,1/2-z
22 1/2-y,1/2+x,1/2-z
23 -y,-x,z
24 1/2-y,1/2-x,1/2+z
25 -x,y,z
26 y,x,z
27 x,-y,z
28 1/2-x,1/2+y,1/2+z
29 1/2+y,1/2+x,1/2+z
30 1/2+x,1/2-y,1/2+z
31 x,y,-z
32 1/2+x,1/2+y,1/2-z
_cell_length_a                   19.5316(8)
_cell_length_b                   19.5316(8)
_cell_length_c                   9.6779(3)
_cell_angle_alpha                90
_cell_angle_beta                 90
_cell_angle_gamma                90
_cell_volume                     3691.96
_exptl_crystal_colour            colorless
_exptl_crystal_description       block
_cell_formula_units_Z            2
loop_
_atom_site_label
_atom_site_type_symbol
_atom_site_fract_x
_atom_site_fract_y
_atom_site_fract_z
Zn1 Zn 0.0000 0.0000 0.15245(6)
O1 O 0.10220(11) 0.0000 0.1149(3)
N1 N 0.0000 0.0000 0.3658(5)
C1 C 0.4283(3) 0.0000 0.0000
C2 C 0.2448(2) 0.0000 0.1211(4)
H1 H 0.2212 0.0000 0.2046
C3 C 0.4622(3) -0.1862(5) 0.0000
H2 H 0.4382 -0.2274 0.0000
C4 C 0.3149(2) 0.0000 0.1218(4)
H3 H 0.3382 0.0000 0.2056
C5 C 0.2086(2) 0.0000 0.0000
C6 C 0.4290(3) -0.1273(4) 0.0000
H4 H 0.3813 -0.1278 0.0000
C7 C 0.3511(3) 0.0000 0.0000
C8 C 0.4634(2) -0.0633(4) 0.0000
C9 C 0.1314(2) 0.0000 0.0000
C10 C -0.0261(5) 0.0659(4) 0.4199(6)
H5 H -0.0728(13) 0.0728(13) 0.384(7)
H6 H 0.0000 0.1080(14) 0.393(7)
O1H O 0.10220(11) 0.0000 -0.1149(3)
C2H C 0.2448(2) 0.0000 -0.1211(4)
H1H H 0.2212 0.0000 -0.2046
C3H C 0.4622(3) 0.1862(5) 0.0000
H2H H 0.4382 0.2274 0.0000
C4H C 0.3149(2) 0.0000 -0.1218(4)
H3H H 0.3382 0.0000 -0.2056
C6H C 0.4290(3) 0.1273(4) 0.0000
H4H H 0.3813 0.1278 0.0000
C8H C 0.4634(2) 0.0633(4) 0.0000
O1J O 0.89780(11) 0.0000 -0.1149(3)
C1J C 0.5717(3) 0.0000 0.0000
C2J C 0.7552(2) 0.0000 -0.1211(4)
H1J H 0.7788 0.0000 -0.2046
C3J C 0.5378(3) -0.1862(5) 0.0000
H2J H 0.5618 -0.2274 0.0000
C4J C 0.6851(2) 0.0000 -0.1218(4)
H3J H 0.6618 0.0000 -0.2056
C5J C 0.7914(2) 0.0000 0.0000
C6J C 0.5710(3) -0.1273(4) 0.0000
H4J H 0.6187 -0.1278 0.0000
C7J C 0.6489(3) 0.0000 0.0000
C8J C 0.5366(2) -0.0633(4) 0.0000
C9J C 0.8686(2) 0.0000 0.0000
O1N O 0.89780(11) 0.0000 0.1149(3)
C2N C 0.7552(2) 0.0000 0.1211(4)
H1N H 0.7788 0.0000 0.2046
C3N C 0.5378(3) 0.1862(5) 0.0000
H2N H 0.5618 0.2274 0.0000
C4N C 0.6851(2) 0.0000 0.1218(4)
H3N H 0.6618 0.0000 0.2056
C6N C 0.5710(3) 0.1273(4) 0.0000
H4N H 0.6187 0.1278 0.0000
C8N C 0.5366(2) 0.0633(4) 0.0000
C10A C -0.0659(4) -0.0261(5) 0.4199(6)
H5A H -0.0728(13) -0.0728(13) 0.384(7)
H6A H -0.1080(14) 0.0000 0.393(7)
C10B C 0.0659(4) 0.0261(5) 0.4199(6)
H5B H 0.0728(13) 0.0728(13) 0.384(7)
H6B H 0.1080(14) 0.0000 0.393(7)
C10N C 0.0261(5) -0.0659(4) 0.4199(6)
H5N H 0.0728(13) -0.0728(13) 0.384(7)
H6N H 0.0000 -0.1080(14) 0.393(7)
N1F N 0.0000 0.0000 0.6342(5)
C10P C 0.0261(5) -0.0659(4) 0.5801(6)
H5F H 0.0728(13) -0.0728(13) 0.616(7)
H6H H 0.0000 -0.1080(14) 0.607(7)
C10Q C 0.0659(4) 0.0261(5) 0.5801(6)
H5J H 0.0728(13) 0.0728(13) 0.616(7)
H6F H 0.1080(14) 0.0000 0.607(7)
C10R C -0.0659(4) -0.0261(5) 0.5801(6)
H5H H -0.0728(13) -0.0728(13) 0.616(7)
H6I H -0.1080(14) 0.0000 0.607(7)
C10V C -0.0659(4) 0.0261(5) 0.4199(6)
C10X C 0.0261(5) 0.0659(4) 0.4199(6)
C10Y C 0.0659(4) -0.0261(5) 0.4199(6)
C10Z C -0.0261(5) -0.0659(4) 0.4199(6)
C10DA C -0.0261(5) 0.0659(4) 0.5801(6)
H5I H -0.0728(13) 0.0728(13) 0.616(7)
H6J H 0.0000 0.1080(14) 0.607(7)
C10F C 0.0659(4) -0.0261(5) 0.5801(6)
C10H C -0.0261(5) -0.0659(4) 0.5801(6)
C10I C -0.0659(4) 0.0261(5) 0.5801(6)
C10J C 0.0261(5) 0.0659(4) 0.5801(6)
O1A O 0.0000 -0.89780(11) 0.1149(3)
C1A C 0.0000 -0.5717(3) 0.0000
C2A C 0.0000 -0.7552(2) 0.1211(4)
H1A H 0.0000 -0.7788 0.2046
C3A C 0.1862(5) -0.5378(3) 0.0000
H2A H 0.2274 -0.5618 0.0000
C4A C 0.0000 -0.6851(2) 0.1218(4)
H3A H 0.0000 -0.6618 0.2056
C5A C 0.0000 -0.7914(2) 0.0000
C6A C 0.1273(4) -0.5710(3) 0.0000
H4A H 0.1278 -0.6187 0.0000
C7A C 0.0000 -0.6489(3) 0.0000
C8A C 0.0633(4) -0.5366(2) 0.0000
C9A C 0.0000 -0.8686(2) 0.0000
O1F O 0.0000 -0.89780(11) -0.1149(3)
C2F C 0.0000 -0.7552(2) -0.1211(4)
H1F H 0.0000 -0.7788 -0.2046
C3F C -0.1862(5) -0.5378(3) 0.0000
H2F H -0.2274 -0.5618 0.0000
C4F C 0.0000 -0.6851(2) -0.1218(4)
H3F H 0.0000 -0.6618 -0.2056
C6F C -0.1273(4) -0.5710(3) 0.0000
H4F H -0.1278 -0.6187 0.0000
C8F C -0.0633(4) -0.5366(2) 0.0000
O1I O 0.0000 -0.10220(11) -0.1149(3)
C1B C 0.0000 -0.4283(3) 0.0000
C2I C 0.0000 -0.2448(2) -0.1211(4)
H1I H 0.0000 -0.2212 -0.2046
C3I C 0.1862(5) -0.4622(3) 0.0000
H2I H 0.2274 -0.4382 0.0000
C4I C 0.0000 -0.3149(2) -0.1218(4)
H3I H 0.0000 -0.3382 -0.2056
C5B C 0.0000 -0.2086(2) 0.0000
C6I C 0.1273(4) -0.4290(3) 0.0000
H4I H 0.1278 -0.3813 0.0000
C7B C 0.0000 -0.3511(3) 0.0000
C8I C 0.0633(4) -0.4634(2) 0.0000
C9B C 0.0000 -0.1314(2) 0.0000
O1B O 0.0000 -0.10220(11) 0.1149(3)
C2B C 0.0000 -0.2448(2) 0.1211(4)
H1B H 0.0000 -0.2212 0.2046
C3B C -0.1862(5) -0.4622(3) 0.0000
H2B H -0.2274 -0.4382 0.0000
C4B C 0.0000 -0.3149(2) 0.1218(4)
H3B H 0.0000 -0.3382 0.2056
C6B C -0.1273(4) -0.4290(3) 0.0000
H4B H -0.1278 -0.3813 0.0000
C8B C -0.0633(4) -0.4634(2) 0.0000
Zn1F Zn 0.0000 0.0000 -0.15245(6)
Zn1_2 Zn 0.0000 -1.0000 0.15245(6)
Zn1_3 Zn 1.0000 0.0000 0.15245(6)
Zn1F_2 Zn 0.0000 -1.0000 -0.15245(6)
Zn1F_3 Zn 0.0000 0.0000 0.84755(6)
Zn1F_4 Zn 1.0000 0.0000 -0.15245(6)
O1A_2 O 0.0000 0.10220(11) 0.1149(3)
O1F_2 O 0.0000 0.10220(11) -0.1149(3)
O1J_2 O -0.10220(11) 0.0000 -0.1149(3)
O1N_2 O -0.10220(11) 0.0000 0.1149(3)
N1F_2 N 0.0000 0.0000 -0.3658(5)
loop_
_geom_bond_atom_site_label_1
_geom_bond_atom_site_label_2
_geom_bond_site_symmetry_1
_geom_bond_site_symmetry_2
Zn1 O1 1_555 1_555
O1 C9 1_555 1_555
N1 Zn1 1_555 1_555
C1 C7 1_555 1_555
C2 H1 1_555 1_555
C3 H2 1_555 1_555
C4 C2 1_555 1_555
H3 C4 1_555 1_555
C5 C2 1_555 1_555
C6 C3 1_555 1_555
H4 C6 1_555 1_555
C7 C4 1_555 1_555
C8 C1 1_555 1_555
C9 C5 1_555 1_555
C10 N1 1_555 1_555
H5 C10 1_555 1_555
H6 C10 1_555 1_555
O1H C9 1_555 1_555
C2H C5 1_555 1_555
H1H C2H 1_555 1_555
C3H H2H 1_555 1_555
C4H C7 1_555 1_555
H3H C4H 1_555 1_555
C6H C3H 1_555 1_555
H4H C6H 1_555 1_555
C8H C1 1_555 1_555
O1J C9J 1_555 1_555
C1J C7J 1_555 1_555
C2J H1J 1_555 1_555
C3J C3 1_555 1_555
H2J C3J 1_555 1_555
C4J C2J 1_555 1_555
H3J C4J 1_555 1_555
C5J C2J 1_555 1_555
C6J C3J 1_555 1_555
H4J C6J 1_555 1_555
C7J C4J 1_555 1_555
C8J C8 1_555 1_555
C9J C5J 1_555 1_555
O1N C9J 1_555 1_555
C2N C5J 1_555 1_555
H1N C2N 1_555 1_555
C3N C3H 1_555 1_555
H2N C3N 1_555 1_555
C4N C7J 1_555 1_555
H3N C4N 1_555 1_555
C6N C3N 1_555 1_555
H4N C6N 1_555 1_555
C8N C8H 1_555 1_555
C10A N1 1_555 1_555
H5A C10A 1_555 1_555
H6A C10A 1_555 1_555
C10B N1 1_555 1_555
H5B C10B 1_555 1_555
H6B C10B 1_555 1_555
C10N N1 1_555 1_555
H5N C10N 1_555 1_555
H6N C10N 1_555 1_555
N1F C10P 1_555 1_555
C10P C10N 1_555 1_555
H5F C10P 1_555 1_555
H6H C10P 1_555 1_555
C10Q C10B 1_555 1_555
H5J C10Q 1_555 1_555
H6F C10Q 1_555 1_555
C10R C10A 1_555 1_555
H5H C10R 1_555 1_555
H6I C10R 1_555 1_555
C10V N1 1_555 1_555
C10X N1 1_555 1_555
C10Y N1 1_555 1_555
C10Z N1 1_555 1_555
C10DA C10 1_555 1_555
H5I C10DA 1_555 1_555
H6J C10DA 1_555 1_555
C10F N1F 1_555 1_555
C10H N1F 1_555 1_555
C10I N1F 1_555 1_555
C10J N1F 1_555 1_555
O1A C9A 1_555 1_555
C1A C7A 1_555 1_555
C2A H1A 1_555 1_555
C3A H2A 1_555 1_555
C4A C2A 1_555 1_555
H3A C4A 1_555 1_555
C5A C2A 1_555 1_555
C6A C3A 1_555 1_555
H4A C6A 1_555 1_555
C7A C4A 1_555 1_555
C8A C1A 1_555 1_555
C9A C5A 1_555 1_555
O1F C9A 1_555 1_555
C2F C5A 1_555 1_555
H1F C2F 1_555 1_555
C3F H2F 1_555 1_555
C4F C7A 1_555 1_555
H3F C4F 1_555 1_555
C6F C3F 1_555 1_555
H4F C6F 1_555 1_555
C8F C1A 1_555 1_555
O1I C9B 1_555 1_555
C1B C7B 1_555 1_555
C2I H1I 1_555 1_555
C3I C3A 1_555 1_555
H2I C3I 1_555 1_555
C4I C2I 1_555 1_555
H3I C4I 1_555 1_555
C5B C2I 1_555 1_555
C6I C3I 1_555 1_555
H4I C6I 1_555 1_555
C7B C4I 1_555 1_555
C8I C8A 1_555 1_555
C9B C5B 1_555 1_555
O1B Zn1 1_555 1_555
C2B C5B 1_555 1_555
H1B C2B 1_555 1_555
C3B C3F 1_555 1_555
H2B C3B 1_555 1_555
C4B C7B 1_555 1_555
H3B C4B 1_555 1_555
C6B C3B 1_555 1_555
H4B C6B 1_555 1_555
C8B C8F 1_555 1_555
Zn1F O1H 1_555 1_555
Zn1_2 O1A 1_555 1_555
Zn1_3 O1N 1_555 1_555
Zn1F_2 O1F 1_555 1_555
Zn1F_3 N1F 1_555 1_555
Zn1F_4 O1J 1_555 1_555
O1A_2 Zn1 1_555 1_555
O1F_2 Zn1F 1_555 1_555
O1J_2 Zn1F 1_555 1_555
O1N_2 Zn1 1_555 1_555
N1F_2 Zn1F 1_555 1_555
C6 C8 1_555 1_555
C10 C10V 1_555 1_555
C10 C10X 1_555 1_555
H5 C10V 1_555 1_555
H6 C10X 1_555 1_555
C2H C4H 1_555 1_555
C6H C8H 1_555 1_555
C1J C8J 1_555 1_555
C1J C8N 1_555 1_555
C6J C8J 1_555 1_555
C2N C4N 1_555 1_555
C6N C8N 1_555 1_555
C10A C10V 1_555 1_555
C10A C10Z 1_555 1_555
H5A C10Z 1_555 1_555
H6A C10V 1_555 1_555
C10B C10X 1_555 1_555
C10B C10Y 1_555 1_555
H5B C10X 1_555 1_555
H6B C10Y 1_555 1_555
C10N C10Y 1_555 1_555
C10N C10Z 1_555 1_555
H5N C10Y 1_555 1_555
H6N C10Z 1_555 1_555
N1F C10Q 1_555 1_555
N1F C10R 1_555 1_555
N1F C10DA 1_555 1_555
C10P C10F 1_555 1_555
C10P C10H 1_555 1_555
H5F C10F 1_555 1_555
H6H C10H 1_555 1_555
C10Q C10F 1_555 1_555
C10Q C10J 1_555 1_555
H5J C10J 1_555 1_555
H6F C10F 1_555 1_555
C10R C10H 1_555 1_555
C10R C10I 1_555 1_555
H5H C10H 1_555 1_555
H6I C10I 1_555 1_555
C10V C10I 1_555 1_555
C10X C10J 1_555 1_555
C10Y C10F 1_555 1_555
C10Z C10H 1_555 1_555
C10DA C10I 1_555 1_555
C10DA C10J 1_555 1_555
H5I C10I 1_555 1_555
H6J C10J 1_555 1_555
C6A C8A 1_555 1_555
C2F C4F 1_555 1_555
C6F C8F 1_555 1_555
O1I Zn1F 1_555 1_555
C1B C8I 1_555 1_555
C1B C8B 1_555 1_555
C6I C8I 1_555 1_555
C9B O1B 1_555 1_555
C2B C4B 1_555 1_555
C6B C8B 1_555 1_555

#END
