
#######################################################################
#
#                 Cambridge Crystallographic Data Centre
#                                CCDC 
#
#######################################################################
#
# If this CIF has been generated from an entry in the Cambridge 
# Structural Database, then it will include bibliographic, chemical, 
# crystal, experimental, refinement or atomic coordinate data resulting 
# from the CCDC's data processing and validation procedures.
#
#######################################################################

data_YACWAC
_chemical_formula_moiety         '(C62 H44 N2 O8 Zn2)n,4.5n(C3 H7 N1 O1)'
_chemical_name_systematic        
'catena-(bis(\m~4~-9,10-bis(4-Carboxylatophenyl)anthracene)-(\m~2~-1,4-diazabicyclo(2.2.2)octane)-di-zinc dimethylformamide solvate)'
_symmetry_cell_setting           orthorhombic
_symmetry_space_group_name_H-M   'F m m m'
_symmetry_Int_Tables_number      69
_space_group_name_Hall           '-F 2 2'
loop_
_symmetry_equiv_pos_site_id
_symmetry_equiv_pos_as_xyz
1 x,y,z
2 -x,-y,z
3 -x,y,-z
4 x,-y,-z
5 x,1/2+y,1/2+z
6 -x,1/2-y,1/2+z
7 -x,1/2+y,1/2-z
8 x,1/2-y,1/2-z
9 1/2+x,y,1/2+z
10 1/2-x,-y,1/2+z
11 1/2-x,y,1/2-z
12 1/2+x,-y,1/2-z
13 1/2+x,1/2+y,z
14 1/2-x,1/2-y,z
15 1/2-x,1/2+y,-z
16 1/2+x,1/2-y,-z
17 -x,-y,-z
18 x,y,-z
19 x,-y,z
20 -x,y,z
21 -x,1/2-y,1/2-z
22 x,1/2+y,1/2-z
23 x,1/2-y,1/2+z
24 -x,1/2+y,1/2+z
25 1/2-x,-y,1/2-z
26 1/2+x,y,1/2-z
27 1/2+x,-y,1/2+z
28 1/2-x,y,1/2+z
29 1/2-x,1/2-y,-z
30 1/2+x,1/2+y,-z
31 1/2+x,1/2-y,z
32 1/2-x,1/2+y,z
_cell_length_a                   9.6349(9)
_cell_length_b                   26.235(3)
_cell_length_c                   28.821(4)
_cell_angle_alpha                90
_cell_angle_beta                 90
_cell_angle_gamma                90
_cell_volume                     7285.13
_exptl_crystal_colour            colorless
_exptl_crystal_description       needle
_cell_formula_units_Z            4
loop_
_atom_site_label
_atom_site_type_symbol
_atom_site_fract_x
_atom_site_fract_y
_atom_site_fract_z
Zn1 Zn -0.15255(9) -0.5000 -0.5000
O1 O -0.1152(3) -0.44661(13) -0.45111(11)
C1 C -0.1225(4) -0.3419(2) -0.3431(2)
H1 H -0.2065 -0.3304 -0.3311
C2 C -0.1221(4) -0.3765(2) -0.3789(2)
H2 H -0.2060 -0.3887 -0.3903
C3 C 0.0000 -0.2857(4) -0.2858(3)
C4 C 0.0000 -0.4316(2) -0.4363(2)
N1 N -0.3653(7) -0.5000 -0.5000
C5 C 0.0000 -0.3933(3) -0.3983(2)
C6 C 0.0000 -0.1654(5) -0.3537(4)
H3 H 0.0000 -0.1547 -0.3845
C7 C 0.0000 -0.2327(4) -0.2972(3)
C8 C 0.0000 -0.2146(4) -0.3431(3)
H4 H 0.0000 -0.2382 -0.3672
C9 C 0.0000 -0.3241(3) -0.3249(3)
C10 C 0.0000 -0.3030(4) -0.2393(3)
C11 C 0.0000 -0.1285(5) -0.3159(4)
H5 H 0.0000 -0.0938 -0.3225
C12 C 0.0000 -0.3559(4) -0.2276(4)
H6 H 0.0000 -0.3799 -0.2513
C13 C -0.4189(17) -0.5000 -0.5468(5)
H7 H -0.3853 -0.5299 -0.5631
C14 C -0.4195(9) -0.5431(5) -0.5259(5)
H8 H -0.3860 -0.5746 -0.5122
H9 H -0.3860 -0.5416 -0.5576
Zn1A Zn 0.15255(9) -0.5000 -0.5000
Zn1D Zn -0.15255(9) 0.0000 0.0000
Zn1E Zn 0.15255(9) 0.0000 0.0000
Zn1A_2 Zn -0.84745(9) -0.5000 -0.5000
Zn1D_2 Zn -0.15255(9) -1.0000 0.0000
Zn1E_2 Zn 0.15255(9) -1.0000 0.0000
O1S O 0.1152(3) -0.44661(13) -0.45111(11)
O1G O -0.1152(3) -0.05339(13) -0.04889(11)
O1T O 0.1152(3) -0.05339(13) -0.04889(11)
O1R O -0.1152(3) -0.55339(13) -0.45111(11)
O1A O 0.1152(3) -0.55339(13) -0.45111(11)
O1U O -0.1152(3) -0.94661(13) -0.04889(11)
O1F O 0.1152(3) -0.94661(13) -0.04889(11)
O1C O -0.1152(3) -0.55339(13) -0.54889(11)
O1Q O -0.1152(3) -0.44661(13) -0.54889(11)
O1P O 0.1152(3) -0.55339(13) -0.54889(11)
O1B O 0.1152(3) -0.44661(13) -0.54889(11)
C1S C 0.1225(4) -0.3419(2) -0.3431(2)
C1G C -0.1225(4) -0.1581(2) -0.1569(2)
C1T C 0.1225(4) -0.1581(2) -0.1569(2)
C1R C -0.1225(4) -0.6581(2) -0.3431(2)
C1A C 0.1225(4) -0.6581(2) -0.3431(2)
C1U C -0.1225(4) -0.8419(2) -0.1569(2)
C1F C 0.1225(4) -0.8419(2) -0.1569(2)
H1S H 0.2065 -0.3304 -0.3311
H1G H -0.2065 -0.1696 -0.1689
H1T H 0.2065 -0.1696 -0.1689
H1R H -0.2065 -0.6696 -0.3311
H1A H 0.2065 -0.6696 -0.3311
H1U H -0.2065 -0.8304 -0.1689
H1F H 0.2065 -0.8304 -0.1689
C2S C 0.1221(4) -0.3765(2) -0.3789(2)
C2G C -0.1221(4) -0.1235(2) -0.1211(2)
C2T C 0.1221(4) -0.1235(2) -0.1211(2)
C2R C -0.1221(4) -0.6235(2) -0.3789(2)
C2A C 0.1221(4) -0.6235(2) -0.3789(2)
C2U C -0.1221(4) -0.8765(2) -0.1211(2)
C2F C 0.1221(4) -0.8765(2) -0.1211(2)
H2S H 0.2060 -0.3887 -0.3903
H2G H -0.2060 -0.1113 -0.1097
H2T H 0.2060 -0.1113 -0.1097
H2R H -0.2060 -0.6113 -0.3903
H2A H 0.2060 -0.6113 -0.3903
H2U H -0.2060 -0.8887 -0.1097
H2F H 0.2060 -0.8887 -0.1097
C3G C 0.0000 -0.2143(4) -0.2142(3)
C3A C 0.0000 -0.7143(4) -0.2858(3)
C3F C 0.0000 -0.7857(4) -0.2142(3)
C4G C 0.0000 -0.0684(2) -0.0637(2)
C4A C 0.0000 -0.5684(2) -0.4363(2)
C4F C 0.0000 -0.9316(2) -0.0637(2)
N1A N -0.6347(7) -0.5000 -0.5000
N1A_2 N 0.3653(7) -0.5000 -0.5000
C5G C 0.0000 -0.1067(3) -0.1017(2)
C5A C 0.0000 -0.6067(3) -0.3983(2)
C5F C 0.0000 -0.8933(3) -0.1017(2)
C6G C 0.0000 -0.3346(5) -0.1463(4)
C6A C 0.0000 -0.8346(5) -0.3537(4)
C6F C 0.0000 -0.6654(5) -0.1463(4)
H3G H 0.0000 -0.3453 -0.1155
H3A H 0.0000 -0.8453 -0.3845
H3F H 0.0000 -0.6547 -0.1155
C7G C 0.0000 -0.2673(4) -0.2028(3)
C7A C 0.0000 -0.7673(4) -0.2972(3)
C7F C 0.0000 -0.7327(4) -0.2028(3)
C8G C 0.0000 -0.2854(4) -0.1569(3)
C8A C 0.0000 -0.7854(4) -0.3431(3)
C8F C 0.0000 -0.7146(4) -0.1569(3)
H4G H 0.0000 -0.2618 -0.1328
H4A H 0.0000 -0.7618 -0.3672
H4F H 0.0000 -0.7382 -0.1328
C9G C 0.0000 -0.1759(3) -0.1751(3)
C9A C 0.0000 -0.6759(3) -0.3249(3)
C9F C 0.0000 -0.8241(3) -0.1751(3)
C10G C 0.0000 -0.1970(4) -0.2607(3)
C10A C 0.0000 -0.6970(4) -0.2393(3)
C10F C 0.0000 -0.8030(4) -0.2607(3)
C11G C 0.0000 -0.3715(5) -0.1841(4)
C11A C 0.0000 -0.8715(5) -0.3159(4)
C11F C 0.0000 -0.6285(5) -0.1841(4)
H5G H 0.0000 -0.4062 -0.1775
H5A H 0.0000 -0.9062 -0.3225
H5F H 0.0000 -0.5938 -0.1775
C12G C 0.0000 -0.1441(4) -0.2724(4)
C12A C 0.0000 -0.6441(4) -0.2276(4)
C12F C 0.0000 -0.8559(4) -0.2724(4)
H6G H 0.0000 -0.1201 -0.2487
H6A H 0.0000 -0.6201 -0.2513
H6F H 0.0000 -0.8799 -0.2487
C13C C -0.4189(17) -0.5000 -0.4532(5)
C13B C -0.5811(17) -0.5000 -0.4532(5)
C13A C -0.5811(17) -0.5000 -0.5468(5)
H7C H -0.3853 -0.4701 -0.4369
H7B H -0.6147 -0.5299 -0.4369
H7Q H -0.3853 -0.5299 -0.4369
H7A H -0.6147 -0.4701 -0.5631
H7P H -0.6147 -0.4701 -0.4369
H7R H -0.3853 -0.4701 -0.5631
H7S H -0.6147 -0.5299 -0.5631
C14C C -0.4195(9) -0.4569(5) -0.4741(5)
C14Q C -0.4195(9) -0.5431(5) -0.4741(5)
C14B C -0.5805(9) -0.5431(5) -0.4741(5)
C14S C -0.5805(9) -0.5431(5) -0.5259(5)
C14A C -0.5805(9) -0.4569(5) -0.5259(5)
C14P C -0.5805(9) -0.4569(5) -0.4741(5)
C14R C -0.4195(9) -0.4569(5) -0.5259(5)
H8B H -0.6140 -0.5746 -0.4878
H8Q H -0.3860 -0.5746 -0.4878
H8P H -0.6140 -0.4254 -0.4878
H8A H -0.6140 -0.4254 -0.5122
H8R H -0.3860 -0.4254 -0.5122
H8C H -0.3860 -0.4254 -0.4878
H8S H -0.6140 -0.5746 -0.5122
H9C H -0.3860 -0.4584 -0.4424
H9Q H -0.3860 -0.5416 -0.4424
H9B H -0.6140 -0.5416 -0.4424
H9P H -0.6140 -0.4584 -0.4424
H9A H -0.6140 -0.4584 -0.5576
H9R H -0.3860 -0.4584 -0.5576
H9S H -0.6140 -0.5416 -0.5576
loop_
_geom_bond_atom_site_label_1
_geom_bond_atom_site_label_2
_geom_bond_site_symmetry_1
_geom_bond_site_symmetry_2
Zn1 O1 1_555 1_555
O1 C4 1_555 1_555
C1 H1 1_555 1_555
C2 C1 1_555 1_555
H2 C2 1_555 1_555
C3 C7 1_555 1_555
C4 C5 1_555 1_555
N1 Zn1 1_555 1_555
C5 C2 1_555 1_555
C6 H3 1_555 1_555
C7 C8 1_555 1_555
C8 C6 1_555 1_555
H4 C8 1_555 1_555
C9 C1 1_555 1_555
C10 C3 1_555 1_555
C11 C6 1_555 1_555
H5 C11 1_555 1_555
C12 C10 1_555 1_555
H6 C12 1_555 1_555
C13 N1 1_555 1_555
H7 C13 1_555 1_555
C14 N1 1_555 1_555
H8 C14 1_555 1_555
H9 C13 1_555 1_555
Zn1A O1S 1_555 1_555
Zn1D O1G 1_555 1_555
Zn1E O1T 1_555 1_555
Zn1A_2 N1A 1_555 1_555
Zn1D_2 O1U 1_555 1_555
Zn1E_2 O1F 1_555 1_555
O1S C4 1_555 1_555
O1G C4G 1_555 1_555
O1T C4G 1_555 1_555
O1R Zn1 1_555 1_555
O1A Zn1A 1_555 1_555
O1U C4F 1_555 1_555
O1F C4F 1_555 1_555
O1C Zn1 1_555 1_555
O1Q Zn1 1_555 1_555
O1P Zn1A 1_555 1_555
O1B Zn1A 1_555 1_555
C1S C9 1_555 1_555
C1G H1G 1_555 1_555
C1T H1T 1_555 1_555
C1R H1R 1_555 1_555
C1A H1A 1_555 1_555
C1U H1U 1_555 1_555
C1F H1F 1_555 1_555
H1S C1S 1_555 1_555
C2S C5 1_555 1_555
C2G C1G 1_555 1_555
C2T C1T 1_555 1_555
C2R C1R 1_555 1_555
C2A C1A 1_555 1_555
C2U C1U 1_555 1_555
C2F C1F 1_555 1_555
H2S C2S 1_555 1_555
H2G C2G 1_555 1_555
H2T C2T 1_555 1_555
H2R C2R 1_555 1_555
H2A C2A 1_555 1_555
H2U C2U 1_555 1_555
H2F C2F 1_555 1_555
C3G C7G 1_555 1_555
C3A C7A 1_555 1_555
C3F C7F 1_555 1_555
C4G C5G 1_555 1_555
C4A O1R 1_555 1_555
C4F C5F 1_555 1_555
N1A C13B 1_555 1_555
N1A_2 Zn1A 1_555 1_555
C5G C2G 1_555 1_555
C5A C2R 1_555 1_555
C5F C2U 1_555 1_555
C6G H3G 1_555 1_555
C6A H3A 1_555 1_555
C6F H3F 1_555 1_555
C7G C10 1_555 1_555
C7A C8A 1_555 1_555
C7F C8F 1_555 1_555
C8G C6G 1_555 1_555
C8A C6A 1_555 1_555
C8F C6F 1_555 1_555
H4G C8G 1_555 1_555
H4A C8A 1_555 1_555
H4F C8F 1_555 1_555
C9G C1G 1_555 1_555
C9A C1R 1_555 1_555
C9F C1U 1_555 1_555
C10G C7 1_555 1_555
C10A C3A 1_555 1_555
C10F C3F 1_555 1_555
C11G C12 1_555 1_555
C11A C6A 1_555 1_555
C11F C6F 1_555 1_555
H5G C11G 1_555 1_555
H5A C11A 1_555 1_555
H5F C11F 1_555 1_555
C12G C11 1_555 1_555
C12A C10A 1_555 1_555
C12F C10F 1_555 1_555
H6G C12G 1_555 1_555
H6A C12A 1_555 1_555
H6F C12F 1_555 1_555
C13C N1 1_555 1_555
C13B C13C 1_555 1_555
C13A C13 1_555 1_555
H7C C13C 1_555 1_555
H7B C13B 1_555 1_555
H7Q C13C 1_555 1_555
H7A C13A 1_555 1_555
H7P C13B 1_555 1_555
H7R C13 1_555 1_555
H7S C13A 1_555 1_555
C14C N1 1_555 1_555
C14Q N1 1_555 1_555
C14B N1A 1_555 1_555
C14S C14 1_555 1_555
C14A N1A 1_555 1_555
C14P N1A 1_555 1_555
C14R N1 1_555 1_555
H8B C14B 1_555 1_555
H8Q C14Q 1_555 1_555
H8P C14P 1_555 1_555
H8A C14A 1_555 1_555
H8R C14R 1_555 1_555
H8C C14C 1_555 1_555
H8S C14S 1_555 1_555
H9C C13C 1_555 1_555
H9Q C13C 1_555 1_555
H9B C13B 1_555 1_555
H9P C13B 1_555 1_555
H9A C13A 1_555 1_555
H9R C13 1_555 1_555
H9S C13A 1_555 1_555
C3 C9 1_555 1_555
C13 C14 1_555 1_555
C13 C14R 1_555 1_555
H7 C14 1_555 1_555
C14 H9 1_555 1_555
C14 C14Q 1_555 1_555
O1A C4A 1_555 1_555
C1S C2S 1_555 1_555
C1T C9G 1_555 1_555
C1A C9A 1_555 1_555
C1F C9F 1_555 1_555
C2T C5G 1_555 1_555
C2A C5A 1_555 1_555
C2F C5F 1_555 1_555
C3G C9G 1_555 1_555
C3G C10G 1_555 1_555
C3A C9A 1_555 1_555
C3F C9F 1_555 1_555
C4A C5A 1_555 1_555
N1A C13A 1_555 1_555
N1A C14S 1_555 1_555
C6G C11G 1_555 1_555
C7G C8G 1_555 1_555
C7A C10F 1_555 1_555
C7F C10A 1_555 1_555
C10G C12G 1_555 1_555
C11A C12F 1_555 1_555
C11F C12A 1_555 1_555
C13C C14C 1_555 1_555
C13C C14Q 1_555 1_555
C13B C14B 1_555 1_555
C13B C14P 1_555 1_555
C13A C14S 1_555 1_555
C13A C14A 1_555 1_555
H7C C14C 1_555 1_555
H7B C14B 1_555 1_555
H7Q C14Q 1_555 1_555
H7A C14A 1_555 1_555
H7P C14P 1_555 1_555
H7R C14R 1_555 1_555
H7S C14S 1_555 1_555
C14C C14P 1_555 1_555
C14C C14R 1_555 1_555
C14C H9C 1_555 1_555
C14Q C14B 1_555 1_555
C14Q H9Q 1_555 1_555
C14B C14S 1_555 1_555
C14B H9B 1_555 1_555
C14S H9S 1_555 1_555
C14A C14P 1_555 1_555
C14A C14R 1_555 1_555
C14A H9A 1_555 1_555
C14P H9P 1_555 1_555
C14R H9R 1_555 1_555

#END
