
#######################################################################
#
#                 Cambridge Crystallographic Data Centre
#                                CCDC 
#
#######################################################################
#
# If this CIF has been generated from an entry in the Cambridge 
# Structural Database, then it will include bibliographic, chemical, 
# crystal, experimental, refinement or atomic coordinate data resulting 
# from the CCDC's data processing and validation procedures.
#
#######################################################################

data_EBEXIU
_chemical_formula_moiety         '(C11 H9 Gd1 O7)n,n(C2 H3 N1)'
_chemical_name_systematic        
'catena-((\m~6~-Benzene-1,3,5-tricarboxylato)-ethanol-gadolinium acetonitrile solvate)'
_symmetry_cell_setting           tetragonal
_symmetry_space_group_name_H-M   'P 41 2 2'
_symmetry_Int_Tables_number      91
_space_group_name_Hall           'P 4w 2c'
loop_
_symmetry_equiv_pos_site_id
_symmetry_equiv_pos_as_xyz
1 x,y,z
2 -x,-y,1/2+z
3 -y,x,1/4+z
4 y,-x,3/4+z
5 -x,y,-z
6 x,-y,1/2-z
7 y,x,3/4-z
8 -y,-x,1/4-z
_cell_length_a                   10.3008(13)
_cell_length_b                   10.3008(13)
_cell_length_c                   14.385(4)
_cell_angle_alpha                90
_cell_angle_beta                 90
_cell_angle_gamma                90
_cell_volume                     1526.34
_exptl_crystal_colour            colorless
_exptl_crystal_description       rod
_cell_formula_units_Z            4
loop_
_atom_site_label
_atom_site_type_symbol
_atom_site_fract_x
_atom_site_fract_y
_atom_site_fract_z
_atom_site_U_iso_or_equiv
_atom_site_thermal_displace_type
Gd1 Gd 0.85835(3) 0.14165(3) 0.1250 0.0232 Uani
O1 O 0.9300(8) 0.3312(6) 0.0598(5) 0.0580 Uani
O2 O 0.7502(7) 0.0768(7) -0.0095(4) 0.0560 Uani
O3 O 0.8987(7) -0.0762(7) 0.1599(4) 0.0557 Uani
O4 O 0.6955(19) 0.3116(19) 0.0912(9) 0.0773 Uani
H1 H 0.7367 0.3700 0.0630 0.0930 Uiso
C1 C 1.0000 0.3870(11) 0.0000 0.0453 Uani
C2 C 0.8084(9) 0.0743(8) -0.0858(5) 0.0377 Uani
C3 C 1.0000 0.5322(11) 0.0000 0.0403 Uani
C4 C 0.9651(8) 0.6008(7) 0.0795(5) 0.0343 Uani
H2 H 0.9415 0.5547 0.1341 0.0410 Uiso
C5 C 0.7347(8) 0.0359(7) -0.1698(5) 0.0293 Uani
C6 C 0.8006 0.0000(11) -0.2500 0.0290 Uani
H3 H 0.8928 0.0000 -0.2500 0.0350 Uiso
C7 C 0.572(3) 0.294(3) 0.038(2) 0.0933 Uani
H4 H 0.5525 0.2011 0.0279 0.1120 Uiso
C8 C 0.470(3) 0.358(3) 0.103(3) 0.1147 Uani
H5 H 0.3840 0.3529 0.0749 0.1720 Uiso
H6 H 0.4931 0.4498 0.1131 0.1720 Uiso
H7 H 0.4696 0.3130 0.1632 0.1720 Uiso
O1G O 0.6688(6) 0.0700(8) 0.1902(5) 0.0580 Uani
O1D O 1.0700(8) 0.3312(6) -0.0598(5) 0.0580 Uani
O2G O 0.9232(7) 0.2498(7) 0.2595(4) 0.0560 Uani
O3G O 1.0762(7) 0.1013(7) 0.0901(4) 0.0557 Uani
O3C O 0.9238(7) 0.1013(7) -0.0901(4) 0.0557 Uani
O4G O 0.6884(19) 0.3045(19) 0.1588(9) 0.0773 Uani
C2B C 0.9257(8) -0.1916(9) 0.1642(5) 0.0377 Uani
C4D C 1.0349(8) 0.6008(7) -0.0795(5) 0.0343 Uani
C4C C 0.6008(7) 0.0349(8) -0.1705(5) 0.0343 Uani
C5B C 0.9641(7) 0.7347(8) 0.0802(5) 0.0293 Uani
C5E C 0.7347(8) -0.0359(7) -0.3302(5) 0.0293 Uani
N1? N 0.425(2) 0.320(2) 0.246(3) 0.1357 Uani
H8? H 0.5758 0.3389 -0.0229 0.1120 Uiso
C9? C 0.325(3) 0.363(2) 0.233(3) 0.1357 Uani
C10? C 0.201(3) 0.425(2) 0.212(3) 0.1417 Uani
H9? H 0.1321 0.3839 0.2490 0.2090 Uiso
H10? H 0.1809 0.4138 0.1456 0.2090 Uiso
H11? H 0.2054 0.5173 0.2267 0.2090 Uiso
loop_
_atom_site_aniso_label
_atom_site_aniso_U_11
_atom_site_aniso_U_22
_atom_site_aniso_U_33
_atom_site_aniso_U_23
_atom_site_aniso_U_13
_atom_site_aniso_U_12
Gd1 0.02359(17) 0.02359(17) 0.0225(2) -0.00146(15) -0.00146(15) -0.00564(19)
O1 0.084(4) 0.036(3) 0.054(3) 0.001(2) 0.028(3) 0.001(3)
O2 0.06 0.073 0.035 -0.012 -0.004 -0.014
O3 0.066 0.038 0.063 -0.017 0.017 0.007
O4 0.073(5) 0.071(6) 0.088(6) 0.015(5) -0.012(5) 0.005(4)
C1 0.060(4) 0.031(4) 0.045(4) 0.000 0.015(4) 0.000
C2 0.036 0.043 0.034 -0.009 -0.009 0
C3 0.062(6) 0.026(4) 0.033(4) 0.000 0.017(5) 0.000
C4 0.054(4) 0.027(3) 0.022(3) 0.004(3) 0.010(3) 0.002(3)
C5 0.024 0.04 0.024 -0.007 -0.003 -0.006
C6 0.019 0.04 0.028 -0.005 0 0
C7 0.080(9) 0.091(10) 0.109(10) 0.012(9) -0.009(8) 0.002(9)
C8 0.087(11) 0.111(17) 0.146(19) 0.015(16) 0.018(14) 0.006(13)
O1G 0.036 0.084 0.054 0.028 0.001 0.001
O1D 0.084 0.036 0.054 -0.001 0.028 -0.001
O2G 0.073 0.06 0.035 -0.004 -0.012 -0.014
O3G 0.038 0.066 0.063 0.017 -0.017 0.007
O3C 0.038 0.066 0.063 -0.017 -0.017 -0.007
O4G 0.071 0.073 0.088 -0.012 0.015 0.005
C2B 0.043 0.036 0.034 -0.009 0.009 0
C4D 0.054 0.027 0.022 -0.004 0.01 -0.002
C4C 0.027 0.054 0.022 -0.01 0.004 -0.002
C5B 0.040(4) 0.024(3) 0.024(3) -0.003(2) 0.007(3) 0.006(3)
C5E 0.024 0.04 0.024 -0.007 0.003 0.006
N1? 0.089 0.098 0.22 -0.001 0.001 0.016
C9? 0.078 0.109 0.22 -0.026 -0.014 0.008
C10? 0.075 0.13 0.22 -0.01 -0.012 0.01
loop_
_geom_bond_atom_site_label_1
_geom_bond_atom_site_label_2
_geom_bond_site_symmetry_1
_geom_bond_site_symmetry_2
Gd1 O1 1_555 1_555
O1 C1 1_555 1_555
O2 Gd1 1_555 1_555
O3 Gd1 1_555 1_555
O4 Gd1 1_555 1_555
H1 O4 1_555 1_555
C1 C3 1_555 1_555
C2 O2 1_555 1_555
C3 C4 1_555 1_555
C4 H2 1_555 1_555
C5 C2 1_555 1_555
C6 C5 1_555 1_555
H3 C6 1_555 1_555
C7 O4 1_555 1_555
H4 C7 1_555 1_555
C8 C7 1_555 1_555
H5 C8 1_555 1_555
H6 C8 1_555 1_555
H7 C8 1_555 1_555
O1G Gd1 1_555 1_555
O1D C1 1_555 1_555
O2G Gd1 1_555 1_555
O3G Gd1 1_555 1_555
O3C C2 1_555 1_555
O4G Gd1 1_555 1_555
C2B O3 1_555 1_555
C4D C3 1_555 1_555
C4C C5 1_555 1_555
C5B C4 1_555 1_555
C5E C6 1_555 1_555
O4 O4G 1_555 1_555

#END
