
#######################################################################
#
#                 Cambridge Crystallographic Data Centre
#                                CCDC 
#
#######################################################################
#
# If this CIF has been generated from an entry in the Cambridge 
# Structural Database, then it will include bibliographic, chemical, 
# crystal, experimental, refinement or atomic coordinate data resulting 
# from the CCDC's data processing and validation procedures.
#
#######################################################################

data_EBEXIU01
_chemical_formula_moiety         '(C11 H9 Gd1 O7)n,n(C2 H3 N1)'
_chemical_name_systematic        
'catena-((\m~6~-Benzene-1,3,5-tricarboxylato)-ethanol-gadolinium acetonitrile solvate)'
_symmetry_cell_setting           tetragonal
_symmetry_space_group_name_H-M   'P 43 2 2'
_symmetry_Int_Tables_number      95
_space_group_name_Hall           'P 4cw 2c'
loop_
_symmetry_equiv_pos_site_id
_symmetry_equiv_pos_as_xyz
1 x,y,z
2 -x,-y,1/2+z
3 -y,x,3/4+z
4 y,-x,1/4+z
5 -x,y,-z
6 x,-y,1/2-z
7 y,x,1/4-z
8 -y,-x,3/4-z
_cell_length_a                   10.3159(12)
_cell_length_b                   10.3159(12)
_cell_length_c                   14.450(3)
_cell_angle_alpha                90
_cell_angle_beta                 90
_cell_angle_gamma                90
_cell_volume                     1537.74
_exptl_crystal_colour            colorless
_exptl_crystal_description       rod
_cell_formula_units_Z            4
loop_
_atom_site_label
_atom_site_type_symbol
_atom_site_fract_x
_atom_site_fract_y
_atom_site_fract_z
_atom_site_U_iso_or_equiv
_atom_site_thermal_displace_type
Gd1 Gd 0.85742(3) 0.85742(3) 0.6250 0.0223 Uani
O1 O 0.9310(9) 0.6684(7) 0.5601(5) 0.0620 Uani
O2 O 0.7510(7) 0.9246(6) 0.4901(4) 0.0510 Uani
O3 O 0.8987(7) 1.0743(7) 0.6587(5) 0.0587 Uani
O4 O 0.6981(16) 0.6834(16) 0.5909(9) 0.0630 Uani
H1 H 0.7366 0.5979 0.5764 0.0760 Uiso
C3 C 1.0000 0.6113(12) 0.5000 0.0427 Uani
C4 C 0.8086(8) 0.9259(7) 0.4137(5) 0.0317 Uani
C5 C 1.0000 0.4673(12) 0.5000 0.0450 Uani
C6 C 0.9665(9) 0.3987(8) 0.5789(5) 0.0373 Uani
H2 H 0.9438 0.4445 0.6336 0.0450 Uiso
C7 C 0.7362(8) 0.9654(7) 0.3295(5) 0.0293 Uani
C8 C 0.8011 1.0000(10) 0.2500 0.0323 Uani
H3 H 0.8932 1.0000 0.2500 0.0390 Uiso
C9 C 0.565(3) 0.703(3) 0.543(2) 0.0917 Uani
H4 H 0.5484 0.7967 0.5340 0.1110 Uiso
C10 C 0.470(4) 0.648(3) 0.603(3) 0.1320 Uani
H5 H 0.3836 0.6599 0.5753 0.1970 Uiso
H6 H 0.4869 0.5557 0.6112 0.1970 Uiso
O1F O 0.6684(7) 0.9310(9) 0.6899(5) 0.0620 Uani
O1D O 1.0690(9) 0.6684(7) 0.4399(5) 0.0620 Uani
O2F O 0.9246(6) 0.7510(7) 0.7599(4) 0.0510 Uani
O3F O 1.0743(7) 0.8987(7) 0.5913(5) 0.0587 Uani
O3B O 0.9257(7) 0.8987(7) 0.4087(5) 0.0587 Uani
O4F O 0.6834(16) 0.6981(16) 0.6591(9) 0.0630 Uani
C4C C 0.9259(7) 1.1914(8) 0.6637(5) 0.0317 Uani
C6D C 1.0335(9) 0.3987(8) 0.4211(5) 0.0373 Uani
C6B C 0.6013(8) 0.9665(9) 0.3289(5) 0.0373 Uani
C7C C 0.9654(7) 0.2638(8) 0.5795(5) 0.0293 Uani
C7E C 0.7362(8) 1.0346(7) 0.1705(5) 0.0293 Uani
N1 N 0.420(3) 0.684(3) 0.746(3) 0.1023 Uani
C1 C 0.323(3) 0.639(3) 0.732(3) 0.0937 Uani
C2 C 0.204(4) 0.569(3) 0.710(2) 0.1090 Uani
H7? H 0.5641 0.6595 0.4825 0.1110 Uiso
H8? H 0.4724 0.6919 0.6632 0.1970 Uiso
H9? H 0.2042 0.5478 0.6436 0.1640 Uiso
H10? H 0.1291 0.6239 0.7238 0.1640 Uiso
H11? H 0.1998 0.4894 0.7462 0.1640 Uiso
loop_
_atom_site_aniso_label
_atom_site_aniso_U_11
_atom_site_aniso_U_22
_atom_site_aniso_U_33
_atom_site_aniso_U_23
_atom_site_aniso_U_13
_atom_site_aniso_U_12
Gd1 0.02489(18) 0.02489(18) 0.0172(2) 0.00166(13) -0.00166(13) 0.00209(17)
O1 0.090(4) 0.042(3) 0.054(3) 0.002(3) 0.023(3) 0.002(3)
O2 0.054 0.065 0.034 0.009 -0.004 0.008
O3 0.074 0.045 0.057 0.016 0.013 -0.007
O4 0.061(5) 0.058(5) 0.070(5) -0.011(4) -0.007(4) -0.004(4)
C3 0.056(4) 0.035(4) 0.037(4) 0.000 0.012(4) 0.000
C4 0.031 0.033 0.031 0.003 -0.007 -0.002
C5 0.072(8) 0.031(6) 0.032(6) 0.000 0.019(6) 0.000
C6 0.061(5) 0.029(4) 0.022(3) -0.003(3) 0.016(4) 0.001(3)
C7 0.021 0.044 0.023 0.006 -0.004 0.004
C8 0.018 0.058 0.021 0.01 0 0
C9 0.065(15) 0.100(19) 0.11(2) -0.022(16) 0.030(15) 0.013(14)
C10 0.16(3) 0.076(17) 0.16(3) -0.040(19) 0.06(2) -0.008(17)
O1F 0.042 0.09 0.054 -0.023 -0.002 0.002
O1D 0.09 0.042 0.054 -0.002 0.023 -0.002
O2F 0.065 0.054 0.034 0.004 -0.009 0.008
O3F 0.045 0.074 0.057 -0.013 -0.016 -0.007
O3B 0.045 0.074 0.057 0.013 -0.016 0.007
O4F 0.058 0.061 0.07 0.007 0.011 -0.004
C4C 0.033 0.031 0.031 0.007 0.003 0.002
C6D 0.061 0.029 0.022 0.003 0.016 -0.001
C6B 0.029 0.061 0.022 0.016 0.003 -0.001
C7C 0.044(4) 0.021(3) 0.023(3) 0.004(3) 0.006(3) -0.004(3)
C7E 0.021 0.044 0.023 0.006 0.004 -0.004
N1 0.08 0.092 0.135 -0.002 0.025 -0.011
C1 0.062 0.089 0.13 0.056 -0.007 -0.016
C2 0.087 0.13 0.11 -0.029 -0.014 -0.026
loop_
_geom_bond_atom_site_label_1
_geom_bond_atom_site_label_2
_geom_bond_site_symmetry_1
_geom_bond_site_symmetry_2
N1 C1 1_555 1_555
C1 C2 1_555 1_555
Gd1 O1 1_555 1_555
O1 C3 1_555 1_555
O2 Gd1 1_555 1_555
O3 Gd1 1_555 1_555
O4 Gd1 1_555 1_555
H1 O4 1_555 1_555
C3 C5 1_555 1_555
C4 O2 1_555 1_555
C5 C6 1_555 1_555
C6 H2 1_555 1_555
C7 C4 1_555 1_555
C8 C7 1_555 1_555
H3 C8 1_555 1_555
C9 O4 1_555 1_555
H4 C9 1_555 1_555
C10 C9 1_555 1_555
H5 C10 1_555 1_555
H6 C10 1_555 1_555
O1F Gd1 1_555 1_555
O1D C3 1_555 1_555
O2F Gd1 1_555 1_555
O3F Gd1 1_555 1_555
O3B C4 1_555 1_555
O4F Gd1 1_555 1_555
C4C O3 1_555 1_555
C6D C5 1_555 1_555
C6B C7 1_555 1_555
C7C C6 1_555 1_555
C7E C8 1_555 1_555
O4 O4F 1_555 1_555

#END
