
#######################################################################
#
#                 Cambridge Crystallographic Data Centre
#                                CCDC 
#
#######################################################################
#
# If this CIF has been generated from an entry in the Cambridge 
# Structural Database, then it will include bibliographic, chemical, 
# crystal, experimental, refinement or atomic coordinate data resulting 
# from the CCDC's data processing and validation procedures.
#
#######################################################################

data_JOHFIW
_chemical_formula_moiety         '(C9 H5 O7 Y1)n,4.3n(H2 O1)'
_chemical_name_systematic        
'catena-((\m~6~-Benzene-1,3,5-tricarboxylato)-aqua-yttrium hydrate)'
_symmetry_cell_setting           tetragonal
_symmetry_space_group_name_H-M   'P 43 2 2'
_symmetry_Int_Tables_number      95
_space_group_name_Hall           'P 4cw 2c'
loop_
_symmetry_equiv_pos_site_id
_symmetry_equiv_pos_as_xyz
1 x,y,z
2 -x,-y,1/2+z
3 -y,x,3/4+z
4 y,-x,1/4+z
5 -x,y,-z
6 x,-y,1/2-z
7 y,x,1/4-z
8 -y,-x,3/4-z
_cell_length_a                   10.223(3)
_cell_length_b                   10.223(3)
_cell_length_c                   14.493(5)
_cell_angle_alpha                90
_cell_angle_beta                 90
_cell_angle_gamma                90
_cell_volume                     1514.66
_cell_formula_units_Z            4
loop_
_atom_site_label
_atom_site_type_symbol
_atom_site_fract_x
_atom_site_fract_y
_atom_site_fract_z
Y1 Y 0.34977(19) 0.34977(19) 0.1250
O1 O 0.261(2) 0.4052(15) -0.0144(15)
O2 O 0.439(2) 0.384(2) -0.1020(17)
O3 O -0.1646(17) 0.5779(19) -0.3075(12)
O4 O 0.192(6) 0.178(7) 0.150(2)
C1 C 0.306(4) 0.5000 -0.2500
H1 H 0.3968 0.5000 -0.2500
C2 C 0.245(3) 0.451(3) -0.1714(19)
C3 C 0.106(3) 0.453(2) -0.1721(16)
H2 H 0.0584 0.4243 -0.1214
C4 C 0.043(4) 0.5000 -0.2500
C5 C 0.326(5) 0.411(3) -0.093(2)
C6 C -0.114(4) 0.5000 -0.2500
Y1B Y 0.65023(19) 0.34977(19) -0.1250
Y1A Y -0.34977(19) 0.65023(19) -0.3750
Y1B_2 Y -0.34977(19) 0.34977(19) -0.1250
Y1C Y 0.34977(19) 0.65023(19) -0.6250
Y1A_2 Y 0.65023(19) 0.65023(19) -0.3750
O1E O 0.261(2) 0.5948(15) -0.4856(15)
O1F O 0.4052(15) 0.261(2) 0.2644(15)
O2E O 0.439(2) 0.616(2) -0.3980(17)
O2C O 0.384(2) 0.561(2) 0.1480(17)
O2D O 0.561(2) 0.384(2) 0.1020(17)
O3E O -0.1646(17) 0.4221(19) -0.1925(12)
O3A O 0.1646(17) 0.4221(19) 0.1925(12)
O3G O 0.4221(19) 0.1646(17) 0.0575(12)
O4F O 0.178(7) 0.192(6) 0.100(2)
C2E C 0.245(3) 0.549(3) -0.3286(19)
C3E C 0.106(3) 0.547(2) -0.3279(16)
H2E H 0.0584 0.5757 -0.3786
C5E C 0.326(5) 0.589(3) -0.407(2)
loop_
_geom_bond_atom_site_label_1
_geom_bond_atom_site_label_2
_geom_bond_site_symmetry_1
_geom_bond_site_symmetry_2
Y1 O1 1_555 1_555
O1 C5 1_555 1_555
O2 C5 1_555 1_555
O3 C6 1_555 1_555
O4 Y1 1_555 1_555
C1 H1 1_555 1_555
C2 C1 1_555 1_555
C3 C2 1_555 1_555
H2 C3 1_555 1_555
C4 C3 1_555 1_555
C5 C2 1_555 1_555
C6 C4 1_555 1_555
Y1B O2 1_555 1_555
Y1A O3 1_555 1_555
Y1B_2 O3E 1_555 1_555
Y1C O1E 1_555 1_555
Y1A_2 O2E 1_555 1_555
O1E C5E 1_555 1_555
O1F Y1 1_555 1_555
O2E C5E 1_555 1_555
O2C Y1 1_555 1_555
O2D Y1 1_555 1_555
O3E C6 1_555 1_555
O3A Y1 1_555 1_555
O3G Y1 1_555 1_555
O4F Y1 1_555 1_555
C2E C1 1_555 1_555
C3E C4 1_555 1_555
H2E C3E 1_555 1_555
C5E C2E 1_555 1_555
O4 O4F 1_555 1_555
C2E C3E 1_555 1_555

#END
