
#######################################################################
#
#                 Cambridge Crystallographic Data Centre
#                                CCDC 
#
#######################################################################
#
# If this CIF has been generated from an entry in the Cambridge 
# Structural Database, then it will include bibliographic, chemical, 
# crystal, experimental, refinement or atomic coordinate data resulting 
# from the CCDC's data processing and validation procedures.
#
#######################################################################

data_DIRPUR
_chemical_name_common            SNU-150
_chemical_formula_moiety         
'(C66 H36 N2 O13 Zn4)n,10n(C4 H9 N1 O1),7n(H2 O1)'
_chemical_name_systematic        
"catena-[bis(\m~6~-6,6',6''-Nitrilotri-2-naphthoato)-(\m~4~-oxo)-tetra-zinc N,N-dimethylacetamide solvate heptahydrate]"
_symmetry_cell_setting           cubic
_symmetry_space_group_name_H-M   'I a -3'
_symmetry_Int_Tables_number      206
_space_group_name_Hall           '-I 2b 2c 3'
loop_
_symmetry_equiv_pos_site_id
_symmetry_equiv_pos_as_xyz
1 x,y,z
2 1/2-x,-y,1/2+z
3 -x,1/2+y,1/2-z
4 1/2+x,1/2-y,-z
5 z,x,y
6 1/2+z,1/2-x,-y
7 1/2-z,-x,1/2+y
8 -z,1/2+x,1/2-y
9 y,z,x
10 -y,1/2+z,1/2-x
11 1/2+y,1/2-z,-x
12 1/2-y,-z,1/2+x
13 1/2+x,1/2+y,1/2+z
14 -x,1/2-y,z
15 1/2-x,y,-z
16 x,-y,1/2-z
17 1/2+z,1/2+x,1/2+y
18 z,-x,1/2-y
19 -z,1/2-x,y
20 1/2-z,x,-y
21 1/2+y,1/2+z,1/2+x
22 1/2-y,z,-x
23 y,-z,1/2-x
24 -y,1/2-z,x
25 -x,-y,-z
26 1/2+x,y,1/2-z
27 x,1/2-y,1/2+z
28 1/2-x,1/2+y,z
29 -z,-x,-y
30 1/2-z,1/2+x,y
31 1/2+z,x,1/2-y
32 z,1/2-x,1/2+y
33 -y,-z,-x
34 y,1/2-z,1/2+x
35 1/2-y,1/2+z,x
36 1/2+y,z,1/2-x
37 1/2-x,1/2-y,1/2-z
38 x,1/2+y,-z
39 1/2+x,-y,z
40 -x,y,1/2+z
41 1/2-z,1/2-x,1/2-y
42 -z,x,1/2+y
43 z,1/2+x,-y
44 1/2+z,-x,y
45 1/2-y,1/2-z,1/2-x
46 1/2+y,-z,x
47 -y,z,1/2+x
48 y,1/2+z,-x
_cell_length_a                   27.143(3)
_cell_length_b                   27.143(3)
_cell_length_c                   27.143(3)
_cell_angle_alpha                90
_cell_angle_beta                 90
_cell_angle_gamma                90
_cell_volume                     19997.4
_exptl_crystal_colour            green
_exptl_crystal_description       prism
_cell_formula_units_Z            8
loop_
_atom_site_label
_atom_site_type_symbol
_atom_site_fract_x
_atom_site_fract_y
_atom_site_fract_z
Zn1 Zn 0.03803(7) 0.48632(6) 0.05679(7)
O1 O 0.00000 0.50000 0.00000
O2 O 0.1092(6) 0.5085(5) 0.0427(6)
O3 O 0.0940(3) 0.5759(4) -0.0050(5)
N1 N 0.3917(6) 0.6083(6) 0.1083(6)
C1 C 0.1167(6) 0.5567(7) 0.0271(7)
C2 C 0.1685(4) 0.5720(4) 0.0410(5)
C3 C 0.2061(4) 0.5383(4) 0.0516(5)
H1 H 0.2001 0.5046 0.05
C4 C 0.2528(4) 0.5559(4) 0.0647(8)
C5 C 0.2614(4) 0.6067(4) 0.0657(5)
C6 C 0.2235(4) 0.6396(4) 0.0517(5)
H2 H 0.2298 0.6733 0.0513
C7 C 0.1779(4) 0.6231(4) 0.0387(5)
H3 H 0.1536 0.645 0.0285
C8 C 0.2915(4) 0.5233(4) 0.0763(5)
H4 H 0.286 0.4895 0.0752
C9 C 0.3375(4) 0.5410(4) 0.0894(5)
H5 H 0.3634 0.5193 0.0951
C10 C 0.3446(4) 0.5915(4) 0.0939(5)
C11 C 0.3082(4) 0.6239(4) 0.0801(6)
H6 H 0.3145 0.6575 0.0802
O2F O 0.4573(6) 0.8908(6) 0.0085(5)
O3F O 0.5050(5) 0.9060(3) 0.0759(4)
C1F C 0.4729(7) 0.8833(6) 0.0567(7)
C2F C 0.4590(5) 0.8315(4) 0.0720(4)
C3F C 0.4484(5) 0.7939(4) 0.0383(4)
H1F H 0.45 0.7999 0.0046
C4F C 0.4353(8) 0.7472(4) 0.0559(4)
C5F C 0.4343(5) 0.7386(4) 0.1067(4)
C6F C 0.4483(5) 0.7765(4) 0.1396(4)
H2F H 0.4487 0.7702 0.1733
C7F C 0.4613(5) 0.8221(4) 0.1231(4)
H3F H 0.4715 0.8464 0.145
C8F C 0.4237(5) 0.7085(4) 0.0233(4)
H4F H 0.4248 0.714 -0.0105
C9F C 0.4106(5) 0.6625(4) 0.0410(4)
H5F H 0.4049 0.6366 0.0193
C10F C 0.4061(5) 0.6554(4) 0.0915(4)
C11F C 0.4199(6) 0.6918(4) 0.1239(4)
H6F H 0.4198 0.6855 0.1575
O2I O 0.4915(5) 0.5427(6) 0.3908(6)
O3I O 0.4241(4) 0.4950(5) 0.4060(3)
C1I C 0.4433(7) 0.5271(7) 0.3833(6)
C2I C 0.4280(4) 0.5410(5) 0.3315(4)
C3I C 0.4617(4) 0.5516(5) 0.2939(4)
H1I H 0.4954 0.55 0.2999
C4I C 0.4441(4) 0.5647(8) 0.2472(4)
C5I C 0.3933(4) 0.5657(5) 0.2386(4)
C6I C 0.3604(4) 0.5517(5) 0.2765(4)
H2I H 0.3267 0.5513 0.2702
C7I C 0.3769(4) 0.5387(5) 0.3221(4)
H3I H 0.355 0.5285 0.3464
C8I C 0.4767(4) 0.5763(5) 0.2085(4)
H4I H 0.5105 0.5752 0.214
C9I C 0.4590(4) 0.5894(5) 0.1625(4)
H5I H 0.4807 0.5951 0.1366
C10I C 0.4085(4) 0.5939(5) 0.1554(4)
C11I C 0.3761(4) 0.5801(6) 0.1918(4)
H6I H 0.3425 0.5802 0.1855
Zn1F Zn 0.44321(7) 0.96197(7) -0.01368(6)
Zn1I Zn 0.51368(6) 0.55679(7) 0.46197(7)
Zn1X Zn -0.03803(7) 0.51368(6) -0.05679(7)
O2X O -0.1092(6) 0.4915(5) -0.0427(6)
O3X O -0.0940(3) 0.4241(4) 0.0050(5)
N1X N -0.3917(6) 0.3917(6) -0.1083(6)
C1X C -0.1167(6) 0.4433(7) -0.0271(7)
C2X C -0.1685(4) 0.4280(4) -0.0410(5)
C3X C -0.2061(4) 0.4617(4) -0.0516(5)
H1X H -0.2001 0.4954 -0.05
C4X C -0.2528(4) 0.4441(4) -0.0647(8)
C5X C -0.2614(4) 0.3933(4) -0.0657(5)
C6X C -0.2235(4) 0.3604(4) -0.0517(5)
H2X H -0.2298 0.3267 -0.0513
C7X C -0.1779(4) 0.3769(4) -0.0387(5)
H3X H -0.1536 0.355 -0.0285
C8X C -0.2915(4) 0.4767(4) -0.0763(5)
H4X H -0.286 0.5105 -0.0752
C9X C -0.3375(4) 0.4590(4) -0.0894(5)
H5X H -0.3634 0.4807 -0.0951
C10X C -0.3446(4) 0.4085(4) -0.0939(5)
C11X C -0.3082(4) 0.3761(4) -0.0801(6)
H6X H -0.3145 0.3425 -0.0802
O2DA O -0.4573(6) 0.1092(6) -0.0085(5)
O3DA O -0.5050(5) 0.0940(3) -0.0759(4)
C1DA C -0.4729(7) 0.1167(6) -0.0567(7)
C2DA C -0.4590(5) 0.1685(4) -0.0720(4)
C3DA C -0.4484(5) 0.2061(4) -0.0383(4)
H1DA H -0.45 0.2001 -0.0046
C4DA C -0.4353(8) 0.2528(4) -0.0559(4)
C5DA C -0.4343(5) 0.2614(4) -0.1067(4)
C6DA C -0.4483(5) 0.2235(4) -0.1396(4)
H2DA H -0.4487 0.2298 -0.1733
C7DA C -0.4613(5) 0.1779(4) -0.1231(4)
H3DA H -0.4715 0.1536 -0.145
C8DA C -0.4237(5) 0.2915(4) -0.0233(4)
H4DA H -0.4248 0.286 0.0105
C9DA C -0.4106(5) 0.3375(4) -0.0410(4)
H5DA H -0.4049 0.3634 -0.0193
C10DA C -0.4061(5) 0.3446(4) -0.0915(4)
C11DA C -0.4199(6) 0.3082(4) -0.1239(4)
H6DA H -0.4198 0.3145 -0.1575
O2GA O -0.4915(5) 0.4573(6) -0.3908(6)
O3GA O -0.4241(4) 0.5050(5) -0.4060(3)
C1GA C -0.4433(7) 0.4729(7) -0.3833(6)
C2GA C -0.4280(4) 0.4590(5) -0.3315(4)
C3GA C -0.4617(4) 0.4484(5) -0.2939(4)
H1GA H -0.4954 0.45 -0.2999
C4GA C -0.4441(4) 0.4353(8) -0.2472(4)
C5GA C -0.3933(4) 0.4343(5) -0.2386(4)
C6GA C -0.3604(4) 0.4483(5) -0.2765(4)
H2GA H -0.3267 0.4487 -0.2702
C7GA C -0.3769(4) 0.4613(5) -0.3221(4)
H3GA H -0.355 0.4715 -0.3464
C8GA C -0.4767(4) 0.4237(5) -0.2085(4)
H4GA H -0.5105 0.4248 -0.214
C9GA C -0.4590(4) 0.4106(5) -0.1625(4)
H5GA H -0.4807 0.4049 -0.1366
C10GA C -0.4085(4) 0.4061(5) -0.1554(4)
C11GA C -0.3761(4) 0.4199(6) -0.1918(4)
H6GA H -0.3425 0.4198 -0.1855
Zn1DA Zn -0.44321(7) 0.03803(7) 0.01368(6)
Zn1GA Zn -0.51368(6) 0.44321(7) -0.46197(7)
Zn1A Zn -0.53803(7) 0.51368(6) -0.44321(7)
Zn1C Zn -0.46197(7) 0.01368(6) -0.05679(7)
Zn1E Zn -0.44321(7) 0.46197(7) -0.48632(6)
Zn1G Zn -0.05679(7) 0.53803(7) 0.01368(6)
Zn1H Zn -0.51368(6) 0.05679(7) 0.03803(7)
Zn1J Zn -0.01368(6) 0.44321(7) -0.03803(7)
Zn1Y Zn 0.53803(7) 0.48632(6) 0.44321(7)
Zn1AA Zn 0.46197(7) 0.98632(6) 0.05679(7)
Zn1CA Zn 0.44321(7) 0.53803(7) 0.48632(6)
Zn1EA Zn 0.05679(7) 0.46197(7) -0.01368(6)
Zn1FA Zn 0.51368(6) 0.94321(7) -0.03803(7)
Zn1HA Zn 0.01368(6) 0.55679(7) 0.03803(7)
O1A O -0.50000 0.50000 -0.50000
O1A_2 O 0.50000 0.50000 0.50000
O1C O -0.50000 0.00000 0.00000
O1C_2 O 0.50000 1.00000 0.00000
O2C O -0.3908(6) -0.0085(5) -0.0427(6)
O2E O -0.4573(6) 0.3908(6) -0.5085(5)
O2J O 0.0085(5) 0.4573(6) -0.1092(6)
O2AA O 0.3908(6) 1.0085(5) 0.0427(6)
O2CA O 0.4573(6) 0.6092(6) 0.5085(5)
O2HA O -0.0085(5) 0.5427(6) 0.1092(6)
O3A O -0.5940(3) 0.4241(4) -0.5050(5)
O3G O 0.0050(5) 0.5940(3) -0.0759(4)
O3H O -0.4241(4) -0.0050(5) 0.0940(3)
O3Y O 0.5940(3) 0.5759(4) 0.5050(5)
O3EA O -0.0050(5) 0.4060(3) 0.0759(4)
O3FA O 0.4241(4) 1.0050(5) -0.0940(3)
O4? O 0.0832(4) 0.5679(5) 0.0369(5)
O5? O 0.1131(5) 0.4863(5) 0.0132(5)
N2? N 0.3656(6) 0.6344(6) 0.1344(6)
C12? C 0.1167(6) 0.5307(8) 0.0270(10)
C13? C 0.1679(6) 0.5405(6) 0.0495(8)
C14? C 0.1790(6) 0.5909(6) 0.0571(8)
H7? H 0.1567 0.6163 0.0519
C15? C 0.2271(5) 0.5980(5) 0.0733(5)
C16? C 0.2628(6) 0.5615(6) 0.0813(10)
C17? C 0.2503(6) 0.5126(6) 0.0706(7)
H8? H 0.2733 0.4876 0.0751
C18? C 0.2027(5) 0.5012(6) 0.0531(8)
H9? H 0.1943 0.4693 0.0441
C19? C 0.2367(6) 0.6457(6) 0.0872(8)
H10? H 0.2116 0.6691 0.0876
C20? C 0.2858(5) 0.6588(6) 0.1011(6)
H11? H 0.295 0.6917 0.1031
C21? C 0.3200(5) 0.6219(5) 0.1115(6)
C22? C 0.3093(5) 0.5733(6) 0.1023(6)
H12? H 0.332 0.5487 0.1097
Zn2? Zn -0.04333(6) 0.45667(6) 0.04333(6)
loop_
_geom_bond_atom_site_label_1
_geom_bond_atom_site_label_2
_geom_bond_site_symmetry_1
_geom_bond_site_symmetry_2
Zn1 O1 1_555 1_555
O1 Zn1X 1_555 1_555
O2 Zn1 1_555 1_555
O3 C1 1_555 1_555
N1 C10 1_555 1_555
C1 O2 1_555 1_555
C2 C1 1_555 1_555
C3 C2 1_555 1_555
H1 C3 1_555 1_555
C4 C3 1_555 1_555
C5 C4 1_555 1_555
C6 C5 1_555 1_555
H2 C6 1_555 1_555
C7 C2 1_555 1_555
H3 C7 1_555 1_555
C8 C4 1_555 1_555
H4 C8 1_555 1_555
C9 C8 1_555 1_555
H5 C9 1_555 1_555
C10 C9 1_555 1_555
C11 C5 1_555 1_555
H6 C11 1_555 1_555
O2F C1F 1_555 1_555
O3F C1F 1_555 1_555
C1F C2F 1_555 1_555
C2F C3F 1_555 1_555
C3F H1F 1_555 1_555
C4F C3F 1_555 1_555
C5F C4F 1_555 1_555
C6F C5F 1_555 1_555
H2F C6F 1_555 1_555
C7F C2F 1_555 1_555
H3F C7F 1_555 1_555
C8F C4F 1_555 1_555
H4F C8F 1_555 1_555
C9F C8F 1_555 1_555
H5F C9F 1_555 1_555
C10F N1 1_555 1_555
C11F C5F 1_555 1_555
H6F C11F 1_555 1_555
O2I C1I 1_555 1_555
O3I C1I 1_555 1_555
C1I C2I 1_555 1_555
C2I C3I 1_555 1_555
C3I H1I 1_555 1_555
C4I C3I 1_555 1_555
C5I C4I 1_555 1_555
C6I C5I 1_555 1_555
H2I C6I 1_555 1_555
C7I C2I 1_555 1_555
H3I C7I 1_555 1_555
C8I C4I 1_555 1_555
H4I C8I 1_555 1_555
C9I C8I 1_555 1_555
H5I C9I 1_555 1_555
C10I N1 1_555 1_555
C11I C5I 1_555 1_555
H6I C11I 1_555 1_555
Zn1F O2F 1_555 1_555
Zn1I O2I 1_555 1_555
Zn1X O2X 1_555 1_555
O2X C1X 1_555 1_555
O3X C1X 1_555 1_555
N1X C10X 1_555 1_555
C1X C2X 1_555 1_555
C2X C3X 1_555 1_555
C3X H1X 1_555 1_555
C4X C3X 1_555 1_555
C5X C4X 1_555 1_555
C6X C5X 1_555 1_555
H2X C6X 1_555 1_555
C7X C2X 1_555 1_555
H3X C7X 1_555 1_555
C8X C4X 1_555 1_555
H4X C8X 1_555 1_555
C9X C8X 1_555 1_555
H5X C9X 1_555 1_555
C10X C9X 1_555 1_555
C11X C5X 1_555 1_555
H6X C11X 1_555 1_555
O2DA C1DA 1_555 1_555
O3DA C1DA 1_555 1_555
C1DA C2DA 1_555 1_555
C2DA C3DA 1_555 1_555
C3DA H1DA 1_555 1_555
C4DA C3DA 1_555 1_555
C5DA C4DA 1_555 1_555
C6DA C5DA 1_555 1_555
H2DA C6DA 1_555 1_555
C7DA C2DA 1_555 1_555
H3DA C7DA 1_555 1_555
C8DA C4DA 1_555 1_555
H4DA C8DA 1_555 1_555
C9DA C8DA 1_555 1_555
H5DA C9DA 1_555 1_555
C10DA N1X 1_555 1_555
C11DA C5DA 1_555 1_555
H6DA C11DA 1_555 1_555
O2GA C1GA 1_555 1_555
O3GA C1GA 1_555 1_555
C1GA C2GA 1_555 1_555
C2GA C3GA 1_555 1_555
C3GA H1GA 1_555 1_555
C4GA C3GA 1_555 1_555
C5GA C4GA 1_555 1_555
C6GA C5GA 1_555 1_555
H2GA C6GA 1_555 1_555
C7GA C2GA 1_555 1_555
H3GA C7GA 1_555 1_555
C8GA C4GA 1_555 1_555
H4GA C8GA 1_555 1_555
C9GA C8GA 1_555 1_555
H5GA C9GA 1_555 1_555
C10GA N1X 1_555 1_555
C11GA C5GA 1_555 1_555
H6GA C11GA 1_555 1_555
Zn1DA O2DA 1_555 1_555
Zn1GA O2GA 1_555 1_555
Zn1A O2GA 1_555 1_555
Zn1C O3DA 1_555 1_555
Zn1E O3GA 1_555 1_555
Zn1G O1 1_555 1_555
Zn1H O2DA 1_555 1_555
Zn1J O1 1_555 1_555
Zn1Y O2I 1_555 1_555
Zn1AA O3F 1_555 1_555
Zn1CA O3I 1_555 1_555
Zn1EA Zn1 1_555 1_555
Zn1FA O2F 1_555 1_555
Zn1HA Zn1 1_555 1_555
O1A Zn1GA 1_555 1_555
O1A_2 Zn1I 1_555 1_555
O1C Zn1DA 1_555 1_555
O1C_2 Zn1F 1_555 1_555
O2C Zn1DA 1_555 1_555
O2E Zn1GA 1_555 1_555
O2J Zn1X 1_555 1_555
O2AA Zn1F 1_555 1_555
O2CA Zn1I 1_555 1_555
O2HA Zn1 1_555 1_555
O3A Zn1GA 1_555 1_555
O3G Zn1X 1_555 1_555
O3H Zn1DA 1_555 1_555
O3Y Zn1I 1_555 1_555
O3EA Zn1 1_555 1_555
O3FA Zn1F 1_555 1_555
O1 Zn1EA 1_555 1_555
O1 Zn1HA 1_555 1_555
O2 Zn1EA 1_555 1_555
O3 Zn1HA 1_555 1_555
C6 C7 1_555 1_555
C10 C11 1_555 1_555
C6F C7F 1_555 1_555
C9F C10F 1_555 1_555
C10F C11F 1_555 1_555
C6I C7I 1_555 1_555
C9I C10I 1_555 1_555
C10I C11I 1_555 1_555
Zn1F Zn1AA 1_555 1_555
Zn1F Zn1FA 1_555 1_555
Zn1I Zn1Y 1_555 1_555
Zn1I Zn1CA 1_555 1_555
Zn1X Zn1G 1_555 1_555
Zn1X Zn1J 1_555 1_555
O2X Zn1G 1_555 1_555
O3X Zn1J 1_555 1_555
C6X C7X 1_555 1_555
C10X C11X 1_555 1_555
C6DA C7DA 1_555 1_555
C9DA C10DA 1_555 1_555
C10DA C11DA 1_555 1_555
C6GA C7GA 1_555 1_555
C9GA C10GA 1_555 1_555
C10GA C11GA 1_555 1_555
Zn1DA Zn1C 1_555 1_555
Zn1DA Zn1H 1_555 1_555
Zn1GA Zn1A 1_555 1_555
Zn1GA Zn1E 1_555 1_555
Zn1A O1A 1_555 1_555
Zn1C O1C 1_555 1_555
Zn1C O2C 1_555 1_555
Zn1E O1A 1_555 1_555
Zn1E O2E 1_555 1_555
Zn1G Zn1HA 1_555 1_555
Zn1H O1C 1_555 1_555
Zn1J Zn1EA 1_555 1_555
Zn1J O2J 1_555 1_555
Zn1Y O1A_2 1_555 1_555
Zn1AA O1C_2 1_555 1_555
Zn1AA O2AA 1_555 1_555
Zn1CA O1A_2 1_555 1_555
Zn1CA O2CA 1_555 1_555
Zn1FA O1C_2 1_555 1_555
Zn1HA O2HA 1_555 1_555

#END
