
#######################################################################
#
#                 Cambridge Crystallographic Data Centre
#                                CCDC 
#
#######################################################################
#
# If this CIF has been generated from an entry in the Cambridge 
# Structural Database, then it will include bibliographic, chemical, 
# crystal, experimental, refinement or atomic coordinate data resulting 
# from the CCDC's data processing and validation procedures.
#
#######################################################################

data_BIBYAO
_chemical_formula_moiety         
'(C30 H22 N6 Ni4 O9)n,6.5n(C3 H7 N1 O1),2n(H2 O1)'
_chemical_name_systematic        
'catena-[(\m~4~-Aqua)-bis(\m~4~-hydroxo)-tris(\m~4~-4-(4-carboxylatophenyl)pyrazolyl)-tetra-nickel(ii) N,N-dimethylformamide solvate dihydrate]'
_symmetry_cell_setting           cubic
_symmetry_space_group_name_H-M   'F m -3 m'
_symmetry_Int_Tables_number      225
_space_group_name_Hall           '-F 4 2 3'
loop_
_symmetry_equiv_pos_site_id
_symmetry_equiv_pos_as_xyz
1 x,y,z
2 x,1/2+y,1/2+z
3 1/2+x,y,1/2+z
4 1/2+x,1/2+y,z
5 -x,y,-z
6 -x,-y,z
7 1/2-x,y,1/2-z
8 x,-y,-z
9 1/2-x,-y,1/2+z
10 -x,1/2-y,1/2+z
11 -x,1/2+y,1/2-z
12 1/2-x,1/2+y,-z
13 1/2+x,1/2-y,-z
14 1/2+x,-y,1/2-z
15 1/2-x,1/2-y,z
16 x,1/2-y,1/2-z
17 -y,x,z
18 y,-x,z
19 1/2-y,1/2+x,z
20 1/2+y,1/2-x,z
21 -y,1/2+x,1/2+z
22 1/2+y,-x,1/2+z
23 y,1/2-x,1/2+z
24 1/2-y,x,1/2+z
25 1/2+z,1/2+y,-x
26 -z,1/2+y,1/2+x
27 y,x,-z
28 -y,-x,-z
29 1/2-y,1/2-x,-z
30 1/2+y,1/2+x,-z
31 z,x,y
32 y,z,x
33 -z,-y,-x
34 -x,-z,-y
35 -z,-x,y
36 z,-x,-y
37 -z,x,-y
38 y,-z,-x
39 -y,z,-x
40 -y,-z,x
41 z,1/2+x,1/2+y
42 -z,1/2-x,1/2+y
43 z,1/2-x,1/2-y
44 -z,1/2+x,1/2-y
45 y,1/2+z,1/2+x
46 y,1/2-z,1/2-x
47 -y,1/2+z,1/2-x
48 -y,1/2-z,1/2+x
49 1/2+z,x,1/2+y
50 1/2-z,-x,1/2+y
51 1/2+z,-x,1/2-y
52 1/2-z,x,1/2-y
53 1/2+y,z,1/2+x
54 1/2+y,-z,1/2-x
55 1/2-y,z,1/2-x
56 1/2-y,-z,1/2+x
57 1/2+z,1/2+x,y
58 1/2-z,1/2-x,y
59 1/2+z,1/2-x,-y
60 1/2-z,1/2+x,-y
61 1/2+y,1/2+z,x
62 1/2+y,1/2-z,-x
63 1/2-y,1/2+z,-x
64 1/2-y,1/2-z,x
65 -x,z,y
66 x,-z,y
67 x,z,-y
68 -z,y,x
69 z,y,-x
70 z,-y,x
71 y,1/2+x,1/2-z
72 -x,1/2+z,1/2+y
73 -y,1/2-x,1/2-z
74 x,1/2-z,1/2+y
75 -x,1/2-z,1/2-y
76 x,1/2+z,1/2-y
77 z,1/2+y,1/2-x
78 -z,1/2-y,1/2-x
79 z,1/2-y,1/2+x
80 1/2+y,x,1/2-z
81 1/2-x,z,1/2+y
82 1/2-y,-x,1/2-z
83 1/2+x,-z,1/2+y
84 1/2-x,-z,1/2-y
85 1/2+x,z,1/2-y
86 1/2-z,y,1/2+x
87 1/2+z,y,1/2-x
88 1/2-z,-y,1/2-x
89 1/2+z,-y,1/2+x
90 1/2-x,1/2+z,y
91 1/2+x,1/2-z,y
92 1/2-x,1/2-z,-y
93 1/2+x,1/2+z,-y
94 1/2-z,1/2+y,x
95 1/2-z,1/2-y,-x
96 1/2+z,1/2-y,x
97 -x,-y,-z
98 -x,1/2-y,1/2-z
99 1/2-x,-y,1/2-z
100 1/2-x,1/2-y,-z
101 x,-y,z
102 x,y,-z
103 1/2+x,-y,1/2+z
104 -x,y,z
105 1/2+x,y,1/2-z
106 x,1/2+y,1/2-z
107 x,1/2-y,1/2+z
108 1/2+x,1/2-y,z
109 1/2-x,1/2+y,z
110 1/2-x,y,1/2+z
111 1/2+x,1/2+y,-z
112 -x,1/2+y,1/2+z
113 y,-x,-z
114 -y,x,-z
115 1/2+y,1/2-x,-z
116 1/2-y,1/2+x,-z
117 y,1/2-x,1/2-z
118 1/2-y,x,1/2-z
119 -y,1/2+x,1/2-z
120 1/2+y,-x,1/2-z
121 1/2-z,1/2-y,x
122 z,1/2-y,1/2-x
123 -y,-x,z
124 y,x,z
125 1/2+y,1/2+x,z
126 1/2-y,1/2-x,z
127 -z,-x,-y
128 -y,-z,-x
129 z,y,x
130 x,z,y
131 z,x,-y
132 -z,x,y
133 z,-x,y
134 -y,z,x
135 y,-z,x
136 y,z,-x
137 -z,1/2-x,1/2-y
138 z,1/2+x,1/2-y
139 -z,1/2+x,1/2+y
140 z,1/2-x,1/2+y
141 -y,1/2-z,1/2-x
142 -y,1/2+z,1/2+x
143 y,1/2-z,1/2+x
144 y,1/2+z,1/2-x
145 1/2-z,-x,1/2-y
146 1/2+z,x,1/2-y
147 1/2-z,x,1/2+y
148 1/2+z,-x,1/2+y
149 1/2-y,-z,1/2-x
150 1/2-y,z,1/2+x
151 1/2+y,-z,1/2+x
152 1/2+y,z,1/2-x
153 1/2-z,1/2-x,-y
154 1/2+z,1/2+x,-y
155 1/2-z,1/2+x,y
156 1/2+z,1/2-x,y
157 1/2-y,1/2-z,-x
158 1/2-y,1/2+z,x
159 1/2+y,1/2-z,x
160 1/2+y,1/2+z,-x
161 x,-z,-y
162 -x,z,-y
163 -x,-z,y
164 z,-y,-x
165 -z,-y,x
166 -z,y,-x
167 -y,1/2-x,1/2+z
168 x,1/2-z,1/2-y
169 y,1/2+x,1/2+z
170 -x,1/2+z,1/2-y
171 x,1/2+z,1/2+y
172 -x,1/2-z,1/2+y
173 -z,1/2-y,1/2+x
174 z,1/2+y,1/2+x
175 -z,1/2+y,1/2-x
176 1/2-y,-x,1/2+z
177 1/2+x,-z,1/2-y
178 1/2+y,x,1/2+z
179 1/2-x,z,1/2-y
180 1/2+x,z,1/2+y
181 1/2-x,-z,1/2+y
182 1/2+z,-y,1/2-x
183 1/2-z,-y,1/2+x
184 1/2+z,y,1/2+x
185 1/2-z,y,1/2-x
186 1/2+x,1/2-z,-y
187 1/2-x,1/2+z,-y
188 1/2+x,1/2+z,y
189 1/2-x,1/2-z,y
190 1/2+z,1/2-y,-x
191 1/2+z,1/2+y,x
192 1/2-z,1/2+y,-x
_cell_length_a                   23.1853(16)
_cell_length_b                   23.1853(16)
_cell_length_c                   23.1853(16)
_cell_angle_alpha                90
_cell_angle_beta                 90
_cell_angle_gamma                90
_cell_volume                     12463.4
_exptl_crystal_colour            'pale green'
_cell_formula_units_Z            8
loop_
_atom_site_label
_atom_site_type_symbol
_atom_site_fract_x
_atom_site_fract_y
_atom_site_fract_z
O3 O 0.500 0.000 0.000
O4 O 0.250 0.250 0.250
O5 O -0.6201(14) -0.54426(14) 0.54426(14)
O6 O -0.2286(14) 0.05672(14) 0.05672(14)
Ni1 Ni 0.06388(14) 0.06388(14) 0.06388(14)
O1 O 0.0929(10) 0.000 0.000
H1 H 0.13 0.000 0.000
C1 C 0.267120 0.267120 0.000
C2 C 0.245924 0.245924 -0.051920
H2 H 0.260411 0.260411 -0.087404
C3 C 0.203532 0.203532 -0.051920
H3 H 0.189045 0.189045 -0.087404
C4 C 0.182336 0.182336 0.000
C5 C 0.138113 0.138113 0.000
O2 O 0.119052 0.119052 -0.046690
C6 C 0.311342 0.311342 0.000
C7 C 0.335722 0.335722 -0.047455
H4 H 0.326769 0.326769 -0.086424
N1 N 0.375169 0.375169 -0.029329
C1N C 0.232880 0.232880 0.000
C2N C 0.254076 0.254076 -0.051920
H2N H 0.239589 0.239589 -0.087404
C3N C 0.296468 0.296468 -0.051920
H3N H 0.310955 0.310955 -0.087404
C4N C 0.317664 0.317664 0.000
C5N C 0.361887 0.361887 0.000
O2N O 0.380948 0.380948 -0.046690
C6N C 0.188658 0.188658 0.000
C7N C 0.164278 0.164278 -0.047455
H4N H 0.173231 0.173231 -0.086424
N1N N 0.124831 0.124831 -0.029329
C2Z C 0.245924 0.245924 0.051920
H2Z H 0.260411 0.260411 0.087404
C3Z C 0.203532 0.203532 0.051920
H3Z H 0.189045 0.189045 0.087404
O2Z O 0.119052 0.119052 0.046690
C7Z C 0.335722 0.335722 0.047455
H4Z H 0.326769 0.326769 0.086424
N1Z N 0.375169 0.375169 0.029329
C2BA C 0.254076 0.254076 0.051920
H2BA H 0.239589 0.239589 0.087404
C3BA C 0.296468 0.296468 0.051920
H3BA H 0.310955 0.310955 0.087404
O2BA O 0.380948 0.380948 0.046690
C7BA C 0.164278 0.164278 0.047455
H4BA H 0.173231 0.173231 0.086424
N1BA N 0.124831 0.124831 0.029329
Ni1G Ni 0.06388(14) -0.06388(14) -0.06388(14)
C1G C 0.267120 -0.267120 0.000
C2G C 0.245924 -0.245924 0.051920
H2G H 0.260411 -0.260411 0.087404
C3G C 0.203532 -0.203532 0.051920
H3G H 0.189045 -0.189045 0.087404
C4G C 0.182336 -0.182336 0.000
C5G C 0.138113 -0.138113 0.000
O2G O 0.119052 -0.119052 0.046690
C6G C 0.311342 -0.311342 0.000
C7G C 0.335722 -0.335722 0.047455
H4G H 0.326769 -0.326769 0.086424
N1G N 0.375169 -0.375169 0.029329
C1K C 0.232880 -0.232880 0.000
C2K C 0.254076 -0.254076 0.051920
H2K H 0.239589 -0.239589 0.087404
C3K C 0.296468 -0.296468 0.051920
H3K H 0.310955 -0.310955 0.087404
C4K C 0.317664 -0.317664 0.000
C5K C 0.361887 -0.361887 0.000
O2K O 0.380948 -0.380948 0.046690
C6K C 0.188658 -0.188658 0.000
C7K C 0.164278 -0.164278 0.047455
H4K H 0.173231 -0.173231 0.086424
N1K N 0.124831 -0.124831 0.029329
C2Q C 0.245924 -0.245924 -0.051920
H2Q H 0.260411 -0.260411 -0.087404
C3Q C 0.203532 -0.203532 -0.051920
H3Q H 0.189045 -0.189045 -0.087404
O2Q O 0.119052 -0.119052 -0.046690
C7Q C 0.335722 -0.335722 -0.047455
H4Q H 0.326769 -0.326769 -0.086424
N1Q N 0.375169 -0.375169 -0.029329
C2R C 0.254076 -0.254076 -0.051920
H2R H 0.239589 -0.239589 -0.087404
C3R C 0.296468 -0.296468 -0.051920
H3R H 0.310955 -0.310955 -0.087404
O2R O 0.380948 -0.380948 -0.046690
C7R C 0.164278 -0.164278 -0.047455
H4R H 0.173231 -0.173231 -0.086424
N1R N 0.124831 -0.124831 -0.029329
Ni1P Ni -0.06388(14) 0.06388(14) 0.06388(14)
O1P O 0.000 0.0929(10) 0.000
H1P H 0.000 0.13 0.000
C1D C -0.267120 0.267120 0.000
C2P C -0.245924 0.245924 -0.051920
H2P H -0.260411 0.260411 -0.087404
C3P C -0.203532 0.203532 -0.051920
H3P H -0.189045 0.189045 -0.087404
C4D C -0.182336 0.182336 0.000
C5D C -0.138113 0.138113 0.000
O2P O -0.119052 0.119052 -0.046690
C6D C -0.311342 0.311342 0.000
C7P C -0.335722 0.335722 -0.047455
H4P H -0.326769 0.326769 -0.086424
N1P N -0.375169 0.375169 -0.029329
C1L C -0.232880 0.232880 0.000
C2S C -0.254076 0.254076 -0.051920
H2S H -0.239589 0.239589 -0.087404
C3S C -0.296468 0.296468 -0.051920
H3S H -0.310955 0.310955 -0.087404
C4L C -0.317664 0.317664 0.000
C5L C -0.361887 0.361887 0.000
O2S O -0.380948 0.380948 -0.046690
C6L C -0.188658 0.188658 0.000
C7S C -0.164278 0.164278 -0.047455
H4S H -0.173231 0.173231 -0.086424
N1S N -0.124831 0.124831 -0.029329
C2D C -0.245924 0.245924 0.051920
H2D H -0.260411 0.260411 0.087404
C3D C -0.203532 0.203532 0.051920
H3D H -0.189045 0.189045 0.087404
O2D O -0.119052 0.119052 0.046690
C7D C -0.335722 0.335722 0.047455
H4D H -0.326769 0.326769 0.086424
N1D N -0.375169 0.375169 0.029329
C2L C -0.254076 0.254076 0.051920
H2L H -0.239589 0.239589 0.087404
C3L C -0.296468 0.296468 0.051920
H3L H -0.310955 0.310955 0.087404
O2L O -0.380948 0.380948 0.046690
C7L C -0.164278 0.164278 0.047455
H4L H -0.173231 0.173231 0.086424
N1L N -0.124831 0.124831 0.029329
Ni1Q Ni 0.06388(14) -0.06388(14) 0.06388(14)
O1Q O 0.000 -0.0929(10) 0.000
H1Q H 0.000 -0.13 0.000
Ni1D Ni -0.06388(14) 0.06388(14) -0.06388(14)
Ni1E Ni -0.06388(14) -0.06388(14) 0.06388(14)
Ni1K Ni 0.43612(14) -0.43612(14) -0.06388(14)
Ni1L Ni -0.43612(14) 0.43612(14) -0.06388(14)
Ni1N Ni 0.43612(14) 0.43612(14) 0.06388(14)
Ni1R Ni 0.43612(14) -0.43612(14) 0.06388(14)
Ni1S Ni -0.43612(14) 0.43612(14) 0.06388(14)
Ni1Z Ni 0.06388(14) 0.06388(14) -0.06388(14)
Ni1AA Ni -0.06388(14) -0.06388(14) -0.06388(14)
Ni1BA Ni 0.43612(14) 0.43612(14) -0.06388(14)
O1D O -0.0929(10) 0.000 0.000
O1EA O 0.000 0.000 0.0929(10)
O1FA O 0.000 0.000 -0.0929(10)
O2DA O -0.046690 0.119052 0.119052
O2EA O 0.119052 -0.046690 0.119052
O2FA O 0.046690 -0.119052 -0.119052
O2HA O 0.046690 -0.119052 0.119052
O2MA O -0.119052 0.046690 0.119052
O2MB O 0.119052 0.046690 0.119052
O2NB O 0.119052 -0.046690 -0.119052
O2OB O 0.046690 0.119052 0.119052
N1Y N 0.029329 -0.124831 -0.124831
N1PA N -0.029329 0.124831 0.124831
N1QA N 0.029329 -0.124831 0.124831
N1AB N -0.124831 0.029329 0.124831
N1BB N 0.124831 -0.029329 0.124831
N1YB N 0.029329 0.124831 0.124831
N1BC N 0.124831 -0.029329 -0.124831
N1EC N 0.124831 0.029329 0.124831
loop_
_geom_bond_atom_site_label_1
_geom_bond_atom_site_label_2
_geom_bond_site_symmetry_1
_geom_bond_site_symmetry_2
Ni1 O1 1_555 1_555
O1 H1 1_555 1_555
C1 C2 1_555 1_555
C2 H2 1_555 1_555
H2 C2N 1_555 1_555
C3 C2 1_555 1_555
H3 C3 1_555 1_555
C4 C3 1_555 1_555
C5 C4 1_555 1_555
O2 C5 1_555 1_555
C6 C1 1_555 1_555
C7 C6 1_555 1_555
H4 C7 1_555 1_555
N1 C7 1_555 1_555
C1N C1 1_555 1_555
C2N C1 1_555 1_555
H2N C2 1_555 1_555
C3N C1 1_555 1_555
H3N C7 1_555 1_555
C4N C1 1_555 1_555
C5N C6 1_555 1_555
O2N C7 1_555 1_555
C6N C3 1_555 1_555
C7N C3 1_555 1_555
H4N C3 1_555 1_555
N1N C5 1_555 1_555
C2Z C1 1_555 1_555
H2Z C2Z 1_555 1_555
C3Z C4 1_555 1_555
H3Z C3Z 1_555 1_555
O2Z Ni1 1_555 1_555
C7Z C6 1_555 1_555
H4Z C7Z 1_555 1_555
N1Z N1 1_555 1_555
C2BA C1 1_555 1_555
H2BA C2Z 1_555 1_555
C3BA C1 1_555 1_555
H3BA C7Z 1_555 1_555
O2BA N1 1_555 1_555
C7BA C4 1_555 1_555
H4BA C3Z 1_555 1_555
N1BA Ni1 1_555 1_555
Ni1G O1 1_555 1_555
C1G C2G 1_555 1_555
C2G H2G 1_555 1_555
H2G C2K 1_555 1_555
C3G C2G 1_555 1_555
H3G C3G 1_555 1_555
C4G C3G 1_555 1_555
C5G C4G 1_555 1_555
O2G C5G 1_555 1_555
C6G C1G 1_555 1_555
C7G C6G 1_555 1_555
H4G C7G 1_555 1_555
N1G C7G 1_555 1_555
C1K C1G 1_555 1_555
C2K C1G 1_555 1_555
H2K C2G 1_555 1_555
C3K C1G 1_555 1_555
H3K C7G 1_555 1_555
C4K C1G 1_555 1_555
C5K C6G 1_555 1_555
O2K C7G 1_555 1_555
C6K C3G 1_555 1_555
C7K C3G 1_555 1_555
H4K C3G 1_555 1_555
N1K C5G 1_555 1_555
C2Q C1G 1_555 1_555
H2Q C2Q 1_555 1_555
C3Q C4G 1_555 1_555
H3Q C3Q 1_555 1_555
O2Q Ni1G 1_555 1_555
C7Q C6G 1_555 1_555
H4Q C7Q 1_555 1_555
N1Q N1G 1_555 1_555
C2R C1G 1_555 1_555
H2R C2Q 1_555 1_555
C3R C1G 1_555 1_555
H3R C7Q 1_555 1_555
O2R N1G 1_555 1_555
C7R C4G 1_555 1_555
H4R C3Q 1_555 1_555
N1R Ni1G 1_555 1_555
Ni1P O1P 1_555 1_555
O1P Ni1 1_555 1_555
H1P O1P 1_555 1_555
C1D C2P 1_555 1_555
C2P H2P 1_555 1_555
H2P C2S 1_555 1_555
C3P C2P 1_555 1_555
H3P C3P 1_555 1_555
C4D C3P 1_555 1_555
C5D C4D 1_555 1_555
O2P C5D 1_555 1_555
C6D C1D 1_555 1_555
C7P C6D 1_555 1_555
H4P C7P 1_555 1_555
N1P C7P 1_555 1_555
C1L C1D 1_555 1_555
C2S C1D 1_555 1_555
H2S C2P 1_555 1_555
C3S C1D 1_555 1_555
H3S C7P 1_555 1_555
C4L C1D 1_555 1_555
C5L C6D 1_555 1_555
O2S C7P 1_555 1_555
C6L C3P 1_555 1_555
C7S C3P 1_555 1_555
H4S C3P 1_555 1_555
N1S C5D 1_555 1_555
C2D C1D 1_555 1_555
H2D C2D 1_555 1_555
C3D C4D 1_555 1_555
H3D C3D 1_555 1_555
O2D Ni1P 1_555 1_555
C7D C6D 1_555 1_555
H4D C7D 1_555 1_555
N1D N1P 1_555 1_555
C2L C1D 1_555 1_555
H2L C2D 1_555 1_555
C3L C1D 1_555 1_555
H3L C7D 1_555 1_555
O2L N1P 1_555 1_555
C7L C4D 1_555 1_555
H4L C3D 1_555 1_555
N1L Ni1P 1_555 1_555
Ni1Q O1 1_555 1_555
O1Q Ni1G 1_555 1_555
H1Q O1Q 1_555 1_555
Ni1D O1P 1_555 1_555
Ni1E O1Q 1_555 1_555
Ni1K N1Q 1_555 1_555
Ni1L N1P 1_555 1_555
Ni1N N1Z 1_555 1_555
Ni1R N1G 1_555 1_555
Ni1S N1D 1_555 1_555
Ni1Z O1 1_555 1_555
Ni1AA O1Q 1_555 1_555
Ni1BA N1 1_555 1_555
O1D Ni1P 1_555 1_555
O1EA Ni1 1_555 1_555
O1FA Ni1G 1_555 1_555
O2DA Ni1P 1_555 1_555
O2EA Ni1Q 1_555 1_555
O2FA Ni1G 1_555 1_555
O2HA Ni1Q 1_555 1_555
O2MA Ni1P 1_555 1_555
O2MB Ni1 1_555 1_555
O2NB Ni1G 1_555 1_555
O2OB Ni1 1_555 1_555
N1Y Ni1G 1_555 1_555
N1PA Ni1P 1_555 1_555
N1QA Ni1Q 1_555 1_555
N1AB Ni1P 1_555 1_555
N1BB Ni1Q 1_555 1_555
N1YB Ni1 1_555 1_555
N1BC Ni1G 1_555 1_555
N1EC Ni1 1_555 1_555
C2 C1N 1_555 1_555
C2 C3N 1_555 1_555
C3 C1N 1_555 1_555
C3 C2N 1_555 1_555
H3 C7N 1_555 1_555
C4 C1N 1_555 1_555
C4 C7N 1_555 1_555
C5 C6N 1_555 1_555
C5 C7N 1_555 1_555
C5 O2Z 1_555 1_555
C5 C7BA 1_555 1_555
C5 N1BA 1_555 1_555
O2 C7N 1_555 1_555
O2 N1BA 1_555 1_555
O2 Ni1Z 1_555 1_555
C6 C3N 1_555 1_555
C6 C3BA 1_555 1_555
C7 C3N 1_555 1_555
C7 C4N 1_555 1_555
C7 C5N 1_555 1_555
H4 C3N 1_555 1_555
N1 C5N 1_555 1_555
C1N C2N 1_555 1_555
C1N C6N 1_555 1_555
C1N C2Z 1_555 1_555
C1N C3Z 1_555 1_555
C1N C2BA 1_555 1_555
C2N H2N 1_555 1_555
C2N C3N 1_555 1_555
C3N H3N 1_555 1_555
C3N C4N 1_555 1_555
C4N C5N 1_555 1_555
C4N C7Z 1_555 1_555
C4N C3BA 1_555 1_555
C5N O2N 1_555 1_555
C5N C7Z 1_555 1_555
C5N N1Z 1_555 1_555
C5N O2BA 1_555 1_555
O2N N1Z 1_555 1_555
O2N Ni1BA 1_555 1_555
C6N C7N 1_555 1_555
C6N C3Z 1_555 1_555
C6N C7BA 1_555 1_555
C7N H4N 1_555 1_555
C7N N1N 1_555 1_555
N1N O2Z 1_555 1_555
N1N N1BA 1_555 1_555
N1N Ni1Z 1_555 1_555
C2Z C3Z 1_555 1_555
C2Z C3BA 1_555 1_555
H2Z C2BA 1_555 1_555
C3Z C2BA 1_555 1_555
C3Z C7BA 1_555 1_555
H3Z C7BA 1_555 1_555
O2Z C7BA 1_555 1_555
C7Z N1Z 1_555 1_555
C7Z C3BA 1_555 1_555
C7Z O2BA 1_555 1_555
H4Z C3BA 1_555 1_555
C2BA H2BA 1_555 1_555
C2BA C3BA 1_555 1_555
C3BA H3BA 1_555 1_555
O2BA Ni1N 1_555 1_555
C7BA H4BA 1_555 1_555
C7BA N1BA 1_555 1_555
C2G C1K 1_555 1_555
C2G C3K 1_555 1_555
C3G C1K 1_555 1_555
C3G C2K 1_555 1_555
H3G C7K 1_555 1_555
C4G C1K 1_555 1_555
C4G C7K 1_555 1_555
C5G C6K 1_555 1_555
C5G C7K 1_555 1_555
C5G O2Q 1_555 1_555
C5G C7R 1_555 1_555
C5G N1R 1_555 1_555
O2G C7K 1_555 1_555
O2G N1R 1_555 1_555
O2G Ni1Q 1_555 1_555
C6G C3K 1_555 1_555
C6G C3R 1_555 1_555
C7G C3K 1_555 1_555
C7G C4K 1_555 1_555
C7G C5K 1_555 1_555
H4G C3K 1_555 1_555
N1G C5K 1_555 1_555
C1K C2K 1_555 1_555
C1K C6K 1_555 1_555
C1K C2Q 1_555 1_555
C1K C3Q 1_555 1_555
C1K C2R 1_555 1_555
C2K H2K 1_555 1_555
C2K C3K 1_555 1_555
C3K H3K 1_555 1_555
C3K C4K 1_555 1_555
C4K C5K 1_555 1_555
C4K C7Q 1_555 1_555
C4K C3R 1_555 1_555
C5K O2K 1_555 1_555
C5K C7Q 1_555 1_555
C5K N1Q 1_555 1_555
C5K O2R 1_555 1_555
O2K N1Q 1_555 1_555
O2K Ni1R 1_555 1_555
C6K C7K 1_555 1_555
C6K C3Q 1_555 1_555
C6K C7R 1_555 1_555
C7K H4K 1_555 1_555
C7K N1K 1_555 1_555
N1K O2Q 1_555 1_555
N1K N1R 1_555 1_555
N1K Ni1Q 1_555 1_555
C2Q C3Q 1_555 1_555
C2Q C3R 1_555 1_555
H2Q C2R 1_555 1_555
C3Q C2R 1_555 1_555
C3Q C7R 1_555 1_555
H3Q C7R 1_555 1_555
O2Q C7R 1_555 1_555
C7Q N1Q 1_555 1_555
C7Q C3R 1_555 1_555
C7Q O2R 1_555 1_555
H4Q C3R 1_555 1_555
C2R H2R 1_555 1_555
C2R C3R 1_555 1_555
C3R H3R 1_555 1_555
O2R Ni1K 1_555 1_555
C7R H4R 1_555 1_555
C7R N1R 1_555 1_555
Ni1P O1EA 1_555 1_555
O1P Ni1Z 1_555 1_555
C2P C1L 1_555 1_555
C2P C3S 1_555 1_555
C3P C1L 1_555 1_555
C3P C2S 1_555 1_555
H3P C7S 1_555 1_555
C4D C1L 1_555 1_555
C4D C7S 1_555 1_555
C5D C6L 1_555 1_555
C5D C7S 1_555 1_555
C5D O2D 1_555 1_555
C5D C7L 1_555 1_555
C5D N1L 1_555 1_555
O2P C7S 1_555 1_555
O2P N1L 1_555 1_555
O2P Ni1D 1_555 1_555
C6D C3S 1_555 1_555
C6D C3L 1_555 1_555
C7P C3S 1_555 1_555
C7P C4L 1_555 1_555
C7P C5L 1_555 1_555
H4P C3S 1_555 1_555
N1P C5L 1_555 1_555
C1L C2S 1_555 1_555
C1L C6L 1_555 1_555
C1L C2D 1_555 1_555
C1L C3D 1_555 1_555
C1L C2L 1_555 1_555
C2S H2S 1_555 1_555
C2S C3S 1_555 1_555
C3S H3S 1_555 1_555
C3S C4L 1_555 1_555
C4L C5L 1_555 1_555
C4L C7D 1_555 1_555
C4L C3L 1_555 1_555
C5L O2S 1_555 1_555
C5L C7D 1_555 1_555
C5L N1D 1_555 1_555
C5L O2L 1_555 1_555
O2S N1D 1_555 1_555
O2S Ni1L 1_555 1_555
C6L C7S 1_555 1_555
C6L C3D 1_555 1_555
C6L C7L 1_555 1_555
C7S H4S 1_555 1_555
C7S N1S 1_555 1_555
N1S O2D 1_555 1_555
N1S N1L 1_555 1_555
N1S Ni1D 1_555 1_555
C2D C3D 1_555 1_555
C2D C3L 1_555 1_555
H2D C2L 1_555 1_555
C3D C2L 1_555 1_555
C3D C7L 1_555 1_555
H3D C7L 1_555 1_555
O2D C7L 1_555 1_555
C7D N1D 1_555 1_555
C7D C3L 1_555 1_555
C7D O2L 1_555 1_555
H4D C3L 1_555 1_555
C2L H2L 1_555 1_555
C2L C3L 1_555 1_555
C3L H3L 1_555 1_555
O2L Ni1S 1_555 1_555
C7L H4L 1_555 1_555
C7L N1L 1_555 1_555
Ni1Q O1Q 1_555 1_555
Ni1Q O1EA 1_555 1_555
Ni1D O1D 1_555 1_555
Ni1D O1FA 1_555 1_555
Ni1E O1D 1_555 1_555
Ni1E O1EA 1_555 1_555
Ni1Z O1FA 1_555 1_555
Ni1AA O1D 1_555 1_555
Ni1AA O1FA 1_555 1_555
O2DA N1YB 1_555 1_555
O2EA N1EC 1_555 1_555
O2MB N1BB 1_555 1_555
O2OB N1PA 1_555 1_555
N1PA N1YB 1_555 1_555
N1BB N1EC 1_555 1_555

#END
