
#######################################################################
#
#                 Cambridge Crystallographic Data Centre
#                                CCDC 
#
#######################################################################
#
# If this CIF has been generated from an entry in the Cambridge 
# Structural Database, then it will include bibliographic, chemical, 
# crystal, experimental, refinement or atomic coordinate data resulting 
# from the CCDC's data processing and validation procedures.
#
#######################################################################

data_BIBYES
_chemical_formula_moiety         
'(C12 H10 N6 Ni4 O9)n,2.25n(C3 H7 N1 O1),5n(H2 O1)'
_chemical_name_systematic        
'catena-[(\m~4~-Aqua)-bis(\m~4~-hydroxo)-tris(\m~4~-4-carboxylatopyrazolyl)-tetra-nickel(ii) N,N-dimethylformamide solvate pentahydrate]'
_symmetry_cell_setting           cubic
_symmetry_space_group_name_H-M   'F m -3 m'
_symmetry_Int_Tables_number      225
_space_group_name_Hall           '-F 4 2 3'
loop_
_symmetry_equiv_pos_site_id
_symmetry_equiv_pos_as_xyz
1 x,y,z
2 x,1/2+y,1/2+z
3 1/2+x,y,1/2+z
4 1/2+x,1/2+y,z
5 -x,y,-z
6 -x,-y,z
7 1/2-x,y,1/2-z
8 x,-y,-z
9 1/2-x,-y,1/2+z
10 -x,1/2-y,1/2+z
11 -x,1/2+y,1/2-z
12 1/2-x,1/2+y,-z
13 1/2+x,1/2-y,-z
14 1/2+x,-y,1/2-z
15 1/2-x,1/2-y,z
16 x,1/2-y,1/2-z
17 -y,x,z
18 y,-x,z
19 1/2-y,1/2+x,z
20 1/2+y,1/2-x,z
21 -y,1/2+x,1/2+z
22 1/2+y,-x,1/2+z
23 y,1/2-x,1/2+z
24 1/2-y,x,1/2+z
25 1/2+z,1/2+y,-x
26 -z,1/2+y,1/2+x
27 y,x,-z
28 -y,-x,-z
29 1/2-y,1/2-x,-z
30 1/2+y,1/2+x,-z
31 z,x,y
32 y,z,x
33 -z,-y,-x
34 -x,-z,-y
35 -z,-x,y
36 z,-x,-y
37 -z,x,-y
38 y,-z,-x
39 -y,z,-x
40 -y,-z,x
41 z,1/2+x,1/2+y
42 -z,1/2-x,1/2+y
43 z,1/2-x,1/2-y
44 -z,1/2+x,1/2-y
45 y,1/2+z,1/2+x
46 y,1/2-z,1/2-x
47 -y,1/2+z,1/2-x
48 -y,1/2-z,1/2+x
49 1/2+z,x,1/2+y
50 1/2-z,-x,1/2+y
51 1/2+z,-x,1/2-y
52 1/2-z,x,1/2-y
53 1/2+y,z,1/2+x
54 1/2+y,-z,1/2-x
55 1/2-y,z,1/2-x
56 1/2-y,-z,1/2+x
57 1/2+z,1/2+x,y
58 1/2-z,1/2-x,y
59 1/2+z,1/2-x,-y
60 1/2-z,1/2+x,-y
61 1/2+y,1/2+z,x
62 1/2+y,1/2-z,-x
63 1/2-y,1/2+z,-x
64 1/2-y,1/2-z,x
65 -x,z,y
66 x,-z,y
67 x,z,-y
68 -z,y,x
69 z,y,-x
70 z,-y,x
71 y,1/2+x,1/2-z
72 -x,1/2+z,1/2+y
73 -y,1/2-x,1/2-z
74 x,1/2-z,1/2+y
75 -x,1/2-z,1/2-y
76 x,1/2+z,1/2-y
77 z,1/2+y,1/2-x
78 -z,1/2-y,1/2-x
79 z,1/2-y,1/2+x
80 1/2+y,x,1/2-z
81 1/2-x,z,1/2+y
82 1/2-y,-x,1/2-z
83 1/2+x,-z,1/2+y
84 1/2-x,-z,1/2-y
85 1/2+x,z,1/2-y
86 1/2-z,y,1/2+x
87 1/2+z,y,1/2-x
88 1/2-z,-y,1/2-x
89 1/2+z,-y,1/2+x
90 1/2-x,1/2+z,y
91 1/2+x,1/2-z,y
92 1/2-x,1/2-z,-y
93 1/2+x,1/2+z,-y
94 1/2-z,1/2+y,x
95 1/2-z,1/2-y,-x
96 1/2+z,1/2-y,x
97 -x,-y,-z
98 -x,1/2-y,1/2-z
99 1/2-x,-y,1/2-z
100 1/2-x,1/2-y,-z
101 x,-y,z
102 x,y,-z
103 1/2+x,-y,1/2+z
104 -x,y,z
105 1/2+x,y,1/2-z
106 x,1/2+y,1/2-z
107 x,1/2-y,1/2+z
108 1/2+x,1/2-y,z
109 1/2-x,1/2+y,z
110 1/2-x,y,1/2+z
111 1/2+x,1/2+y,-z
112 -x,1/2+y,1/2+z
113 y,-x,-z
114 -y,x,-z
115 1/2+y,1/2-x,-z
116 1/2-y,1/2+x,-z
117 y,1/2-x,1/2-z
118 1/2-y,x,1/2-z
119 -y,1/2+x,1/2-z
120 1/2+y,-x,1/2-z
121 1/2-z,1/2-y,x
122 z,1/2-y,1/2-x
123 -y,-x,z
124 y,x,z
125 1/2+y,1/2+x,z
126 1/2-y,1/2-x,z
127 -z,-x,-y
128 -y,-z,-x
129 z,y,x
130 x,z,y
131 z,x,-y
132 -z,x,y
133 z,-x,y
134 -y,z,x
135 y,-z,x
136 y,z,-x
137 -z,1/2-x,1/2-y
138 z,1/2+x,1/2-y
139 -z,1/2+x,1/2+y
140 z,1/2-x,1/2+y
141 -y,1/2-z,1/2-x
142 -y,1/2+z,1/2+x
143 y,1/2-z,1/2+x
144 y,1/2+z,1/2-x
145 1/2-z,-x,1/2-y
146 1/2+z,x,1/2-y
147 1/2-z,x,1/2+y
148 1/2+z,-x,1/2+y
149 1/2-y,-z,1/2-x
150 1/2-y,z,1/2+x
151 1/2+y,-z,1/2+x
152 1/2+y,z,1/2-x
153 1/2-z,1/2-x,-y
154 1/2+z,1/2+x,-y
155 1/2-z,1/2+x,y
156 1/2+z,1/2-x,y
157 1/2-y,1/2-z,-x
158 1/2-y,1/2+z,x
159 1/2+y,1/2-z,x
160 1/2+y,1/2+z,-x
161 x,-z,-y
162 -x,z,-y
163 -x,-z,y
164 z,-y,-x
165 -z,-y,x
166 -z,y,-x
167 -y,1/2-x,1/2+z
168 x,1/2-z,1/2-y
169 y,1/2+x,1/2+z
170 -x,1/2+z,1/2-y
171 x,1/2+z,1/2+y
172 -x,1/2-z,1/2+y
173 -z,1/2-y,1/2+x
174 z,1/2+y,1/2+x
175 -z,1/2+y,1/2-x
176 1/2-y,-x,1/2+z
177 1/2+x,-z,1/2-y
178 1/2+y,x,1/2+z
179 1/2-x,z,1/2-y
180 1/2+x,z,1/2+y
181 1/2-x,-z,1/2+y
182 1/2+z,-y,1/2-x
183 1/2-z,-y,1/2+x
184 1/2+z,y,1/2+x
185 1/2-z,y,1/2-x
186 1/2+x,1/2-z,-y
187 1/2-x,1/2+z,-y
188 1/2+x,1/2+z,y
189 1/2-x,1/2-z,y
190 1/2+z,1/2-y,-x
191 1/2+z,1/2+y,x
192 1/2-z,1/2+y,-x
_cell_length_a                   17.16965(93)
_cell_length_b                   17.16965(93)
_cell_length_c                   17.16965(93)
_cell_angle_alpha                90
_cell_angle_beta                 90
_cell_angle_gamma                90
_cell_volume                     5061.56
_exptl_crystal_colour            'pale green'
_cell_formula_units_Z            8
loop_
_atom_site_label
_atom_site_type_symbol
_atom_site_fract_x
_atom_site_fract_y
_atom_site_fract_z
O3 O 0.250 0.250 0.250
O4 O -0.31789(64) -0.06328(64) 0.93672(64)
Ni1 Ni 0.083873(81) 0.083873(81) 0.083873(81)
O1 O 0.124686 0.000 0.000
H1 H 0.180017 0.000 0.000
N1 N 0.166658 0.166658 0.039605
C1 C 0.219926 0.219926 0.064082
H2 H 0.232016 0.232016 0.116704
C2 C 0.252848 0.252848 0.000
C3 C 0.313799 0.313799 0.000
O2 O 0.339539 0.339539 0.063049
N1N N 0.333342 0.333342 0.039605
C1N C 0.280074 0.280074 0.064082
H2N H 0.267984 0.267984 0.116704
C2N C 0.247152 0.247152 0.000
C3N C 0.186201 0.186201 0.000
O2N O 0.160461 0.160461 0.063049
N1Z N 0.166658 0.166658 -0.039605
C1Z C 0.219926 0.219926 -0.064082
H2Z H 0.232016 0.232016 -0.116704
O2Z O 0.339539 0.339539 -0.063049
N1BA N 0.333342 0.333342 -0.039605
C1BA C 0.280074 0.280074 -0.064082
H2BA H 0.267984 0.267984 -0.116704
O2BA O 0.160461 0.160461 -0.063049
Ni1G Ni 0.083873(81) -0.083873(81) -0.083873(81)
N1G N 0.166658 -0.166658 -0.039605
C1G C 0.219926 -0.219926 -0.064082
H2G H 0.232016 -0.232016 -0.116704
C2G C 0.252848 -0.252848 0.000
C3G C 0.313799 -0.313799 0.000
O2G O 0.339539 -0.339539 -0.063049
N1K N 0.333342 -0.333342 -0.039605
C1K C 0.280074 -0.280074 -0.064082
H2K H 0.267984 -0.267984 -0.116704
C2K C 0.247152 -0.247152 0.000
C3K C 0.186201 -0.186201 0.000
O2K O 0.160461 -0.160461 -0.063049
N1Q N 0.166658 -0.166658 0.039605
C1Q C 0.219926 -0.219926 0.064082
H2Q H 0.232016 -0.232016 0.116704
O2Q O 0.339539 -0.339539 0.063049
N1R N 0.333342 -0.333342 0.039605
C1R C 0.280074 -0.280074 0.064082
H2R H 0.267984 -0.267984 0.116704
O2R O 0.160461 -0.160461 0.063049
Ni1P Ni -0.083873(81) 0.083873(81) 0.083873(81)
O1P O 0.000 0.124686 0.000
H1P H 0.000 0.180017 0.000
N1P N -0.166658 0.166658 0.039605
C1P C -0.219926 0.219926 0.064082
H2P H -0.232016 0.232016 0.116704
C2D C -0.252848 0.252848 0.000
C3D C -0.313799 0.313799 0.000
O2P O -0.339539 0.339539 0.063049
N1S N -0.333342 0.333342 0.039605
C1S C -0.280074 0.280074 0.064082
H2S H -0.267984 0.267984 0.116704
C2L C -0.247152 0.247152 0.000
C3L C -0.186201 0.186201 0.000
O2S O -0.160461 0.160461 0.063049
N1D N -0.166658 0.166658 -0.039605
C1D C -0.219926 0.219926 -0.064082
H2D H -0.232016 0.232016 -0.116704
O2D O -0.339539 0.339539 -0.063049
N1L N -0.333342 0.333342 -0.039605
C1L C -0.280074 0.280074 -0.064082
H2L H -0.267984 0.267984 -0.116704
O2L O -0.160461 0.160461 -0.063049
Ni1Q Ni 0.083873(81) -0.083873(81) 0.083873(81)
O1Q O 0.000 -0.124686 0.000
H1Q H 0.000 -0.180017 0.000
Ni1D Ni -0.083873(81) 0.083873(81) -0.083873(81)
Ni1E Ni -0.083873(81) -0.083873(81) 0.083873(81)
Ni1K Ni 0.416127(81) -0.416127(81) -0.083873(81)
Ni1L Ni -0.416127(81) 0.416127(81) -0.083873(81)
Ni1N Ni 0.416127(81) 0.416127(81) 0.083873(81)
Ni1R Ni 0.416127(81) -0.416127(81) 0.083873(81)
Ni1S Ni -0.416127(81) 0.416127(81) 0.083873(81)
Ni1Z Ni 0.083873(81) 0.083873(81) -0.083873(81)
Ni1AA Ni -0.083873(81) -0.083873(81) -0.083873(81)
Ni1BA Ni 0.416127(81) 0.416127(81) -0.083873(81)
O1D O -0.124686 0.000 0.000
O1EA O 0.000 0.000 0.124686
O1FA O 0.000 0.000 -0.124686
N1DA N 0.039605 0.166658 0.166658
N1EA N 0.166658 0.039605 0.166658
N1IA N 0.039605 -0.166658 -0.166658
N1KA N 0.166658 -0.039605 -0.166658
N1LB N -0.166658 0.039605 0.166658
N1MB N 0.166658 -0.039605 0.166658
N1OB N -0.039605 0.166658 0.166658
N1QB N 0.039605 -0.166658 0.166658
O2NA O 0.063049 -0.160461 -0.160461
O2PA O 0.063049 0.160461 0.160461
O2BB O 0.160461 0.063049 0.160461
O2CB O 0.160461 -0.063049 -0.160461
O2XB O 0.063049 -0.160461 0.160461
O2YB O -0.063049 0.160461 0.160461
O2EC O 0.160461 -0.063049 0.160461
O2FC O -0.160461 0.063049 0.160461
loop_
_geom_bond_atom_site_label_1
_geom_bond_atom_site_label_2
_geom_bond_site_symmetry_1
_geom_bond_site_symmetry_2
Ni1 O1 1_555 1_555
O1 H1 1_555 1_555
N1 Ni1 1_555 1_555
C1 N1 1_555 1_555
H2 C1 1_555 1_555
C2 C1 1_555 1_555
C3 C2 1_555 1_555
O2 C3 1_555 1_555
N1N C3 1_555 1_555
C1N C1 1_555 1_555
H2N C1N 1_555 1_555
C2N C1 1_555 1_555
C3N N1 1_555 1_555
O2N Ni1 1_555 1_555
N1Z N1 1_555 1_555
C1Z C2 1_555 1_555
H2Z C1Z 1_555 1_555
O2Z C3 1_555 1_555
N1BA C3 1_555 1_555
C1BA C2 1_555 1_555
H2BA C1BA 1_555 1_555
O2BA N1 1_555 1_555
Ni1G O1 1_555 1_555
N1G Ni1G 1_555 1_555
C1G N1G 1_555 1_555
H2G C1G 1_555 1_555
C2G C1G 1_555 1_555
C3G C2G 1_555 1_555
O2G C3G 1_555 1_555
N1K C3G 1_555 1_555
C1K C1G 1_555 1_555
H2K C1K 1_555 1_555
C2K C1G 1_555 1_555
C3K N1G 1_555 1_555
O2K Ni1G 1_555 1_555
N1Q N1G 1_555 1_555
C1Q C2G 1_555 1_555
H2Q C1Q 1_555 1_555
O2Q C3G 1_555 1_555
N1R C3G 1_555 1_555
C1R C2G 1_555 1_555
H2R C1R 1_555 1_555
O2R N1G 1_555 1_555
Ni1P O1P 1_555 1_555
O1P Ni1 1_555 1_555
H1P O1P 1_555 1_555
N1P Ni1P 1_555 1_555
C1P N1P 1_555 1_555
H2P C1P 1_555 1_555
C2D C1P 1_555 1_555
C3D C2D 1_555 1_555
O2P C3D 1_555 1_555
N1S C3D 1_555 1_555
C1S C1P 1_555 1_555
H2S C1S 1_555 1_555
C2L C1P 1_555 1_555
C3L N1P 1_555 1_555
O2S Ni1P 1_555 1_555
N1D N1P 1_555 1_555
C1D C2D 1_555 1_555
H2D C1D 1_555 1_555
O2D C3D 1_555 1_555
N1L C3D 1_555 1_555
C1L C2D 1_555 1_555
H2L C1L 1_555 1_555
O2L N1P 1_555 1_555
Ni1Q O1 1_555 1_555
O1Q Ni1G 1_555 1_555
H1Q O1Q 1_555 1_555
Ni1D O1P 1_555 1_555
Ni1E O1Q 1_555 1_555
Ni1K O2G 1_555 1_555
Ni1L O2D 1_555 1_555
Ni1N O2 1_555 1_555
Ni1R O2Q 1_555 1_555
Ni1S O2P 1_555 1_555
Ni1Z O1 1_555 1_555
Ni1AA O1Q 1_555 1_555
Ni1BA O2Z 1_555 1_555
O1D Ni1P 1_555 1_555
O1EA Ni1 1_555 1_555
O1FA Ni1G 1_555 1_555
N1DA Ni1 1_555 1_555
N1EA Ni1 1_555 1_555
N1IA Ni1G 1_555 1_555
N1KA Ni1G 1_555 1_555
N1LB Ni1P 1_555 1_555
N1MB Ni1Q 1_555 1_555
N1OB Ni1P 1_555 1_555
N1QB Ni1Q 1_555 1_555
O2NA Ni1G 1_555 1_555
O2PA Ni1 1_555 1_555
O2BB Ni1 1_555 1_555
O2CB Ni1G 1_555 1_555
O2XB Ni1Q 1_555 1_555
O2YB Ni1P 1_555 1_555
O2EC Ni1Q 1_555 1_555
O2FC Ni1P 1_555 1_555
C1 C3N 1_555 1_555
C1 O2N 1_555 1_555
C2 C1N 1_555 1_555
C2 C3N 1_555 1_555
C3 C1N 1_555 1_555
C3 C2N 1_555 1_555
C3 C1BA 1_555 1_555
O2 C1N 1_555 1_555
O2 N1BA 1_555 1_555
N1N C1N 1_555 1_555
N1N O2Z 1_555 1_555
N1N N1BA 1_555 1_555
N1N Ni1N 1_555 1_555
C1N C2N 1_555 1_555
C2N C3N 1_555 1_555
C2N C1Z 1_555 1_555
C2N C1BA 1_555 1_555
C3N O2N 1_555 1_555
C3N N1Z 1_555 1_555
C3N C1Z 1_555 1_555
C3N O2BA 1_555 1_555
O2N N1Z 1_555 1_555
N1Z C1Z 1_555 1_555
N1Z Ni1Z 1_555 1_555
C1Z C1BA 1_555 1_555
C1Z O2BA 1_555 1_555
O2Z C1BA 1_555 1_555
N1BA C1BA 1_555 1_555
N1BA Ni1BA 1_555 1_555
O2BA Ni1Z 1_555 1_555
C1G C3K 1_555 1_555
C1G O2K 1_555 1_555
C2G C1K 1_555 1_555
C2G C3K 1_555 1_555
C3G C1K 1_555 1_555
C3G C2K 1_555 1_555
C3G C1R 1_555 1_555
O2G C1K 1_555 1_555
O2G N1R 1_555 1_555
N1K C1K 1_555 1_555
N1K O2Q 1_555 1_555
N1K N1R 1_555 1_555
N1K Ni1K 1_555 1_555
C1K C2K 1_555 1_555
C2K C3K 1_555 1_555
C2K C1Q 1_555 1_555
C2K C1R 1_555 1_555
C3K O2K 1_555 1_555
C3K N1Q 1_555 1_555
C3K C1Q 1_555 1_555
C3K O2R 1_555 1_555
O2K N1Q 1_555 1_555
N1Q C1Q 1_555 1_555
N1Q Ni1Q 1_555 1_555
C1Q C1R 1_555 1_555
C1Q O2R 1_555 1_555
O2Q C1R 1_555 1_555
N1R C1R 1_555 1_555
N1R Ni1R 1_555 1_555
O2R Ni1Q 1_555 1_555
Ni1P O1EA 1_555 1_555
O1P Ni1Z 1_555 1_555
C1P C3L 1_555 1_555
C1P O2S 1_555 1_555
C2D C1S 1_555 1_555
C2D C3L 1_555 1_555
C3D C1S 1_555 1_555
C3D C2L 1_555 1_555
C3D C1L 1_555 1_555
O2P C1S 1_555 1_555
O2P N1L 1_555 1_555
N1S C1S 1_555 1_555
N1S O2D 1_555 1_555
N1S N1L 1_555 1_555
N1S Ni1S 1_555 1_555
C1S C2L 1_555 1_555
C2L C3L 1_555 1_555
C2L C1D 1_555 1_555
C2L C1L 1_555 1_555
C3L O2S 1_555 1_555
C3L N1D 1_555 1_555
C3L C1D 1_555 1_555
C3L O2L 1_555 1_555
O2S N1D 1_555 1_555
N1D C1D 1_555 1_555
N1D Ni1D 1_555 1_555
C1D C1L 1_555 1_555
C1D O2L 1_555 1_555
O2D C1L 1_555 1_555
N1L C1L 1_555 1_555
N1L Ni1L 1_555 1_555
O2L Ni1D 1_555 1_555
Ni1Q O1Q 1_555 1_555
Ni1Q O1EA 1_555 1_555
Ni1D O1D 1_555 1_555
Ni1D O1FA 1_555 1_555
Ni1E O1D 1_555 1_555
Ni1E O1EA 1_555 1_555
Ni1Z O1FA 1_555 1_555
Ni1AA O1D 1_555 1_555
Ni1AA O1FA 1_555 1_555
N1DA N1OB 1_555 1_555
N1DA O2YB 1_555 1_555
N1EA N1MB 1_555 1_555
N1EA O2EC 1_555 1_555
N1MB O2BB 1_555 1_555
N1OB O2PA 1_555 1_555

#END
