
#######################################################################
#
#                 Cambridge Crystallographic Data Centre
#                                CCDC 
#
#######################################################################
#
# If this CIF has been generated from an entry in the Cambridge 
# Structural Database, then it will include bibliographic, chemical, 
# crystal, experimental, refinement or atomic coordinate data resulting 
# from the CCDC's data processing and validation procedures.
#
#######################################################################

data_RUHDEF
_chemical_formula_moiety         
'(C64 H50 Co3 N4 O19)n,9n(C3 H7 N1 O1),43n(H2 O1)'
_chemical_name_systematic        
"catena-[(\m~10~-4-(3-(4-Carboxylatophenoxy)-2-((3-(4-carboxylatophenoxy)-2,2-bis((4-carboxylatophenoxy)methyl)propoxy)methyl)-2-((4-carboxylatophenoxy)methyl)propoxy)benzoato)-(\m~2~-1,1'-(1,4-phenylene)bis(1H-imidazole))-tri-cobalt N,N-dimethylformamide solvate hydrate]"
_symmetry_cell_setting           monoclinic
_symmetry_space_group_name_H-M   'C 2/c'
_symmetry_Int_Tables_number      15
_space_group_name_Hall           '-C 2yc'
loop_
_symmetry_equiv_pos_site_id
_symmetry_equiv_pos_as_xyz
1 x,y,z
2 -x,y,1/2-z
3 1/2+x,1/2+y,z
4 1/2-x,1/2+y,1/2-z
5 -x,-y,-z
6 x,-y,1/2+z
7 1/2-x,1/2-y,-z
8 1/2+x,1/2-y,1/2+z
_cell_length_a                   30.190(5)
_cell_length_b                   19.637(3)
_cell_length_c                   16.038(3)
_cell_angle_alpha                90
_cell_angle_beta                 108.829(3)
_cell_angle_gamma                90
_cell_volume                     8999.17
_exptl_crystal_colour            red
_exptl_crystal_description       block
_cell_formula_units_Z            4
loop_
_atom_site_label
_atom_site_type_symbol
_atom_site_fract_x
_atom_site_fract_y
_atom_site_fract_z
Co1 Co 0.73651(3) 0.59176(4) 0.46045(6)
Co2 Co 0.7500 0.7500 0.5000
N1 N 0.7433(2) 0.4927(3) 0.4275(4)
N2 N 0.7475(2) 0.3817(3) 0.4344(4)
C1 C 0.4537(2) 0.8022(3) 0.5992(4)
C2 C 0.4789(2) 0.8516(3) 0.6730(4)
H1 H 0.4577 0.8845 0.6834
H2 H 0.5029 0.8754 0.6572
C3 C 0.4860(2) 0.7482(3) 0.5857(5)
H3 H 0.4691 0.7160 0.5420
H4 H 0.5007 0.7246 0.6401
C4 C 0.4327(2) 0.8438(3) 0.5153(4)
H5 H 0.4572 0.8673 0.5010
H6 H 0.4109 0.8770 0.5228
C5 C 0.4138(2) 0.7667(4) 0.6255(5)
H7 H 0.4257 0.7458 0.6825
H8 H 0.3996 0.7323 0.5827
C6 C 0.5537(2) 0.7441(3) 0.5386(5)
C7 C 0.5811(3) 0.7819(4) 0.4989(7)
H9 H 0.5760 0.8283 0.4894
C8 C 0.6172(3) 0.7515(4) 0.4800(6)
H10 H 0.6365 0.7771 0.4572
C9 C 0.6254(2) 0.6814(3) 0.4946(5)
C10 C 0.5970(2) 0.6454(4) 0.5292(6)
H11 H 0.6020 0.5988 0.5384
C11 C 0.5608(3) 0.6772(3) 0.5531(6)
H12 H 0.5421 0.6518 0.5776
C12 C 0.6652(3) 0.6515(4) 0.4760(5)
C13 C 0.3824(2) 0.8240(3) 0.3685(5)
C14 C 0.3608(3) 0.7714(3) 0.3069(5)
H13 H 0.3650 0.7253 0.3207
C15 C 0.3324(3) 0.7949(4) 0.2255(5)
H14 H 0.3182 0.7625 0.1830
C16 C 0.3239(2) 0.8616(3) 0.2054(4)
C17 C 0.3446(3) 0.9111(4) 0.2697(5)
H15 H 0.3391 0.9571 0.2571
C18 C 0.3765(3) 0.8913(4) 0.3510(5)
H16 H 0.3921 0.9237 0.3923
C19 C 0.2907(2) 0.8873(4) 0.1170(4)
C20 C 0.3540(2) 0.8129(4) 0.6778(4)
C21 C 0.3285(2) 0.8708(4) 0.6799(5)
H17 H 0.3298 0.9090 0.6466
C22 C 0.3007(2) 0.8713(4) 0.7339(5)
H18 H 0.2836 0.9101 0.7368
C23 C 0.2988(2) 0.8154(3) 0.7840(4)
C24 C 0.3232(2) 0.7585(3) 0.7789(5)
H19 H 0.3211 0.7202 0.8116
C25 C 0.3496(3) 0.7548(4) 0.7220(5)
H20 H 0.3654 0.7151 0.7169
C26 C 0.2730(2) 0.8196(3) 0.8515(5)
C27 C 0.7497(4) 0.4661(4) 0.3509(7)
H21 H 0.7514 0.4923 0.3037
C28 C 0.7503(4) 0.4002(4) 0.3526(6)
H22 H 0.7554 0.3715 0.3105
C29 C 0.7428(2) 0.4378(3) 0.4760(4)
H23 H 0.7385 0.4396 0.5309
C30 C 0.7491(2) 0.3157(3) 0.4678(5)
C31 C 0.7778(3) 0.2667(3) 0.4491(5)
H24 H 0.7958 0.2773 0.4135
C32 C 0.7207(3) 0.2975(3) 0.5163(5)
H25 H 0.7000 0.3294 0.5257
O1 O 0.5000 0.8116(4) 0.7500
O2 O 0.52074(17) 0.7821(2) 0.5584(4)
O3 O 0.67298(19) 0.5870(2) 0.4855(5)
O4 O 0.69202(14) 0.6860(2) 0.4470(3)
O5 O 0.41051(17) 0.7979(2) 0.4479(3)
O6 O 0.2743(2) 0.9420(3) 0.1078(4)
O7 O 0.28218(17) 0.8448(2) 0.0535(3)
O8 O 0.38082(16) 0.8199(2) 0.6240(3)
O9 O 0.27061(14) 0.7669(2) 0.8933(3)
O10 O 0.25593(18) 0.8767(2) 0.8597(3)
N1F N 0.7567(2) 0.0073(3) 0.5725(4)
N2F N 0.7525(2) 0.1183(3) 0.5656(4)
C27F C 0.7503(4) 0.0339(4) 0.6491(7)
H21F H 0.7486 0.0077 0.6963
C28F C 0.7497(4) 0.0998(4) 0.6474(6)
H22F H 0.7446 0.1285 0.6895
C29F C 0.7572(2) 0.0622(3) 0.5240(4)
H23F H 0.7615 0.0604 0.4691
C30F C 0.7509(2) 0.1843(3) 0.5322(5)
C31F C 0.7222(3) 0.2333(3) 0.5509(5)
H24F H 0.7042 0.2227 0.5865
C32F C 0.7793(3) 0.2025(3) 0.4837(5)
H25F H 0.8000 0.1706 0.4743
C1A C 0.5463(2) 0.8022(3) 0.9008(4)
C2A C 0.5211(2) 0.8516(3) 0.8270(4)
H1A H 0.5423 0.8845 0.8166
H2A H 0.4971 0.8754 0.8428
C3A C 0.5140(2) 0.7482(3) 0.9143(5)
H3A H 0.5309 0.7160 0.9580
H4A H 0.4993 0.7246 0.8599
C4A C 0.5673(2) 0.8438(3) 0.9847(4)
H5A H 0.5428 0.8673 0.9990
H6A H 0.5891 0.8770 0.9772
C5A C 0.5862(2) 0.7667(4) 0.8745(5)
H7A H 0.5743 0.7458 0.8175
H8A H 0.6004 0.7323 0.9173
C6A C 0.4463(2) 0.7441(3) 0.9614(5)
C7A C 0.4189(3) 0.7819(4) 1.0011(7)
H9A H 0.4240 0.8283 1.0106
C8A C 0.3828(3) 0.7515(4) 1.0200(6)
H10A H 0.3635 0.7771 1.0428
C9A C 0.3746(2) 0.6814(3) 1.0054(5)
C10A C 0.4030(2) 0.6454(4) 0.9708(6)
H11A H 0.3980 0.5988 0.9616
C11A C 0.4392(3) 0.6772(3) 0.9469(6)
H12A H 0.4579 0.6518 0.9224
C12A C 0.3348(3) 0.6515(4) 1.0240(5)
C13A C 0.6176(2) 0.8240(3) 1.1315(5)
C14A C 0.6392(3) 0.7714(3) 1.1931(5)
H13A H 0.6350 0.7253 1.1793
C15A C 0.6676(3) 0.7949(4) 1.2745(5)
H14A H 0.6818 0.7625 1.3170
C16A C 0.6761(2) 0.8616(3) 1.2946(4)
C17A C 0.6554(3) 0.9111(4) 1.2303(5)
H15A H 0.6609 0.9571 1.2429
C18A C 0.6235(3) 0.8913(4) 1.1490(5)
H16A H 0.6079 0.9237 1.1077
C19A C 0.7093(2) 0.8873(4) 1.3830(4)
C20A C 0.6460(2) 0.8129(4) 0.8222(4)
C21A C 0.6715(2) 0.8708(4) 0.8201(5)
H17A H 0.6702 0.9090 0.8534
C22A C 0.6993(2) 0.8713(4) 0.7661(5)
H18A H 0.7164 0.9101 0.7632
C23A C 0.7012(2) 0.8154(3) 0.7160(4)
C24A C 0.6768(2) 0.7585(3) 0.7211(5)
H19A H 0.6789 0.7202 0.6884
C25A C 0.6504(3) 0.7548(4) 0.7780(5)
H20A H 0.6346 0.7151 0.7831
C26A C 0.7270(2) 0.8196(3) 0.6485(5)
O2A O 0.47926(17) 0.7821(2) 0.9416(4)
O3A O 0.32702(19) 0.5870(2) 1.0145(5)
O4A O 0.30798(14) 0.6860(2) 1.0530(3)
O5A O 0.58949(17) 0.7979(2) 1.0521(3)
O6A O 0.7257(2) 0.9420(3) 1.3922(4)
O7A O 0.71782(17) 0.8448(2) 1.4465(3)
O8A O 0.61918(16) 0.8199(2) 0.8760(3)
O9A O 0.72939(14) 0.7669(2) 0.6067(3)
O10A O 0.74407(18) 0.8767(2) 0.6403(3)
Co1G Co 0.23651(3) 0.90824(4) -0.03955(6)
Co1A Co 0.26349(3) 0.59176(4) 1.03955(6)
Co1F Co 0.76349(3) -0.09176(4) 0.53955(6)
Co1F_2 Co 0.76349(3) 0.90824(4) 0.53955(6)
Co1F_3 Co 0.76349(3) 0.90824(4) 1.53955(6)
Co1G_2 Co 0.23651(3) 0.90824(4) 0.96045(6)
Co2_2 Co 0.7500 0.7500 1.5000
Co2A Co 0.2500 0.7500 0.0000
Co2A_2 Co 0.2500 0.7500 1.0000
N1G N 0.2433(2) 1.0073(3) -0.0725(4)
O3G O 0.17298(19) 0.9130(2) -0.0145(5)
O4F O 0.80798(14) 0.8140(2) 0.5530(3)
O4G O 0.19202(14) 0.8140(2) -0.0530(3)
O6G O 0.7743(2) 0.5580(3) 0.6078(4)
O7A_2 O 0.71782(17) 0.8448(2) 0.4465(3)
O7G O 0.78218(17) 0.6552(2) 0.5535(3)
O9G O 0.77061(14) 0.7331(2) 0.3933(3)
O10_2 O 0.25593(18) 0.8767(2) -0.1403(3)
O10G O 0.75593(18) 0.6233(2) 0.3597(3)
loop_
_geom_bond_atom_site_label_1
_geom_bond_atom_site_label_2
_geom_bond_site_symmetry_1
_geom_bond_site_symmetry_2
Co1 N1 1_555 1_555
Co2 O4 1_555 1_555
N1 C27 1_555 1_555
N2 C28 1_555 1_555
C1 C2 1_555 1_555
C2 H1 1_555 1_555
H2 C2 1_555 1_555
C3 C1 1_555 1_555
H3 C3 1_555 1_555
H4 C3 1_555 1_555
C4 C1 1_555 1_555
H5 C4 1_555 1_555
H6 C4 1_555 1_555
C5 C1 1_555 1_555
H7 C5 1_555 1_555
H8 C5 1_555 1_555
C6 C7 1_555 1_555
C7 H9 1_555 1_555
C8 C7 1_555 1_555
H10 C8 1_555 1_555
C9 C8 1_555 1_555
C10 C9 1_555 1_555
H11 C10 1_555 1_555
C11 C6 1_555 1_555
H12 C11 1_555 1_555
C12 C9 1_555 1_555
C13 C14 1_555 1_555
C14 H13 1_555 1_555
C15 C14 1_555 1_555
H14 C15 1_555 1_555
C16 C15 1_555 1_555
C17 C16 1_555 1_555
H15 C17 1_555 1_555
C18 C13 1_555 1_555
H16 C18 1_555 1_555
C19 C16 1_555 1_555
C20 C21 1_555 1_555
C21 H17 1_555 1_555
C22 C21 1_555 1_555
H18 C22 1_555 1_555
C23 C22 1_555 1_555
C24 C23 1_555 1_555
H19 C24 1_555 1_555
C25 C20 1_555 1_555
H20 C25 1_555 1_555
C26 C23 1_555 1_555
C27 H21 1_555 1_555
C28 C27 1_555 1_555
H22 C28 1_555 1_555
C29 N1 1_555 1_555
H23 C29 1_555 1_555
C30 N2 1_555 1_555
C31 C30 1_555 1_555
H24 C31 1_555 1_555
C32 C30 1_555 1_555
H25 C32 1_555 1_555
O1 C2 1_555 1_555
O2 C3 1_555 1_555
O3 Co1 1_555 1_555
O4 Co1 1_555 1_555
O5 C4 1_555 1_555
O6 C19 1_555 1_555
O7 C19 1_555 1_555
O8 C5 1_555 1_555
O9 C26 1_555 1_555
O10 C26 1_555 1_555
N1F C27F 1_555 1_555
N2F C28F 1_555 1_555
C27F H21F 1_555 1_555
C28F C27F 1_555 1_555
H22F C28F 1_555 1_555
C29F N1F 1_555 1_555
H23F C29F 1_555 1_555
C30F N2F 1_555 1_555
C31F C32 1_555 1_555
H24F C31F 1_555 1_555
C32F C31 1_555 1_555
H25F C32F 1_555 1_555
C1A C2A 1_555 1_555
C2A O1 1_555 1_555
H1A C2A 1_555 1_555
H2A C2A 1_555 1_555
C3A C1A 1_555 1_555
H3A C3A 1_555 1_555
H4A C3A 1_555 1_555
C4A C1A 1_555 1_555
H5A C4A 1_555 1_555
H6A C4A 1_555 1_555
C5A C1A 1_555 1_555
H7A C5A 1_555 1_555
H8A C5A 1_555 1_555
C6A C7A 1_555 1_555
C7A H9A 1_555 1_555
C8A C7A 1_555 1_555
H10A C8A 1_555 1_555
C9A C8A 1_555 1_555
C10A C9A 1_555 1_555
H11A C10A 1_555 1_555
C11A C6A 1_555 1_555
H12A C11A 1_555 1_555
C12A C9A 1_555 1_555
C13A C14A 1_555 1_555
C14A H13A 1_555 1_555
C15A C14A 1_555 1_555
H14A C15A 1_555 1_555
C16A C15A 1_555 1_555
C17A C16A 1_555 1_555
H15A C17A 1_555 1_555
C18A C13A 1_555 1_555
H16A C18A 1_555 1_555
C19A C16A 1_555 1_555
C20A C21A 1_555 1_555
C21A H17A 1_555 1_555
C22A C21A 1_555 1_555
H18A C22A 1_555 1_555
C23A C22A 1_555 1_555
C24A C23A 1_555 1_555
H19A C24A 1_555 1_555
C25A C20A 1_555 1_555
H20A C25A 1_555 1_555
C26A C23A 1_555 1_555
O2A C3A 1_555 1_555
O3A C12A 1_555 1_555
O4A C12A 1_555 1_555
O5A C4A 1_555 1_555
O6A C19A 1_555 1_555
O7A C19A 1_555 1_555
O8A C5A 1_555 1_555
O9A Co2 1_555 1_555
O10A C26A 1_555 1_555
Co1G O6 1_555 1_555
Co1A O3A 1_555 1_555
Co1F N1F 1_555 1_555
Co1F_2 O10A 1_555 1_555
Co1F_3 O6A 1_555 1_555
Co1G_2 O10 1_555 1_555
Co2_2 O7A 1_555 1_555
Co2A O7 1_555 1_555
Co2A_2 O9 1_555 1_555
N1G Co1G 1_555 1_555
O3G Co1G 1_555 1_555
O4F Co2 1_555 1_555
O4G Co1G 1_555 1_555
O6G Co1 1_555 1_555
O7A_2 Co2 1_555 1_555
O7G Co1 1_555 1_555
O9G Co2 1_555 1_555
O10_2 Co1G 1_555 1_555
O10G Co1 1_555 1_555
Co2 O7G 1_555 1_555
N2 C29 1_555 1_555
C6 O2 1_555 1_555
C10 C11 1_555 1_555
C12 O3 1_555 1_555
C12 O4 1_555 1_555
C13 O5 1_555 1_555
C17 C18 1_555 1_555
C20 O8 1_555 1_555
C24 C25 1_555 1_555
O7 Co1G 1_555 1_555
N2F C29F 1_555 1_555
C30F C31F 1_555 1_555
C30F C32F 1_555 1_555
C6A O2A 1_555 1_555
C10A C11A 1_555 1_555
C13A O5A 1_555 1_555
C17A C18A 1_555 1_555
C20A O8A 1_555 1_555
C24A C25A 1_555 1_555
C26A O9A 1_555 1_555
O4A Co1A 1_555 1_555
O4A Co2A_2 1_555 1_555
O7A Co1F_3 1_555 1_555
Co1F_2 O4F 1_555 1_555
Co1F_2 O7A_2 1_555 1_555
Co2A O4G 1_555 1_555

#END
