
#######################################################################
#
#                 Cambridge Crystallographic Data Centre
#                                CCDC 
#
#######################################################################
#
# If this CIF has been generated from an entry in the Cambridge 
# Structural Database, then it will include bibliographic, chemical, 
# crystal, experimental, refinement or atomic coordinate data resulting 
# from the CCDC's data processing and validation procedures.
#
#######################################################################

data_WUVFIE
_chemical_name_common            ZJU-48
_chemical_formula_moiety         
'(C84 H56 N20 O17 Zn8 2+)n,2(C16 H11 O4 1-),6(C3 H7 N1 O1),27(H2 O1)'
_chemical_name_systematic        
"catena-[tetrakis(\m~4~-6-amino-9H-purin-9-yl)-(\m~4~-oxido)-tetrakis(\m~2~-4,4'-ethene-1,2-diyldibenzoato)-octa-zinc bis(hydrogen 4,4'-ethene-1,2-diyldibenzoate) N,N-dimethylformamide solvate heptacosahydrate]"
_symmetry_cell_setting           tetragonal
_symmetry_space_group_name_H-M   'P 4/n'
_symmetry_Int_Tables_number      85
_space_group_name_Hall           '-P 4a'
loop_
_symmetry_equiv_pos_site_id
_symmetry_equiv_pos_as_xyz
1 x,y,z
2 1/2-x,1/2-y,z
3 1/2-y,x,z
4 y,1/2-x,z
5 -x,-y,-z
6 1/2+x,1/2+y,-z
7 1/2+y,-x,-z
8 -y,1/2+x,-z
_cell_length_a                   28.7876(11)
_cell_length_b                   28.7876(11)
_cell_length_c                   11.1348(5)
_cell_angle_alpha                90
_cell_angle_beta                 90
_cell_angle_gamma                90
_cell_volume                     9227.7
_exptl_crystal_colour            colorless
_exptl_crystal_description       block
_cell_formula_units_Z            2
loop_
_atom_site_label
_atom_site_type_symbol
_atom_site_fract_x
_atom_site_fract_y
_atom_site_fract_z
Zn1 Zn 0.28762(2) 0.71246(2) 0.60827(5)
Zn2 Zn 0.24998(2) 0.58375(2) 0.99992(6)
O1 O 0.2500 0.7500 0.5000
O2 O 0.1936(3) 0.5631(2) 1.0789(7)
O3 O 0.2383(5) 0.5218(5) 1.1472(12)
C1 C 0.2017(5) 0.5337(5) 1.1333(15)
C2 C 0.1591(6) 0.5048(6) 1.1894(18)
C3 C 0.1140(7) 0.5185(5) 1.1622(18)
H1 H 0.1089 0.5429 1.1092
C4 C 0.0766(6) 0.4956(7) 1.214(2)
H2 H 0.0464 0.5048 1.1962
C5 C 0.0842(7) 0.4591(7) 1.294(2)
C6 C 0.1293(9) 0.4454(7) 1.3207(19)
H3 H 0.1344 0.4210 1.3738
C7 C 0.1668(6) 0.4683(7) 1.269(2)
H4 H 0.1970 0.4591 1.2868
O4 O -0.1702(13) 0.3158(8) 1.512(3)
O5 O -0.1469(2) 0.3532(2) 1.6733(6)
C8 C -0.1491(3) 0.3509(3) 1.5591(8)
C9 C -0.1125(9) 0.3745(9) 1.4940(19)
C10 C -0.0769(7) 0.3975(7) 1.5431(19)
H5 H -0.0739 0.3970 1.6263
C11 C -0.0459(7) 0.4209(8) 1.4810(18)
H6 H -0.0211 0.4340 1.5224
C12 C -0.0477(9) 0.4270(9) 1.366(2)
C13 C -0.0805(8) 0.4055(9) 1.309(2)
H7 H -0.0863 0.4099 1.2274
C14 C -0.1056(9) 0.3762(10) 1.3779(19)
H8 H -0.1208 0.3530 1.3351
C15 C -0.0096(10) 0.4526(11) 1.296(3)
H9 H -0.0184 0.4776 1.2477
C16 C 0.0328(9) 0.4419(14) 1.299(5)
H10 H 0.0340 0.4099 1.3097
C17 C 0.1573(4) 0.6770(5) 0.9225(12)
N1 N 0.1338(7) 0.7242(9) 0.870(2)
N2 N 0.1840(6) 0.7350(5) 0.7337(13)
C18 C 0.1457(10) 0.7434(9) 0.797(2)
H11 H 0.1278 0.7687 0.7732
C19 C 0.2084(5) 0.6976(4) 0.7658(12)
C20 C 0.1950(5) 0.6689(5) 0.8569(10)
C21 C 0.2582(8) 0.6436(9) 0.784(2)
H12 H 0.2844 0.6255 0.7696
N3 N 0.2489(5) 0.6810(7) 0.7176(14)
N4 N 0.2295(7) 0.6335(5) 0.8695(18)
N5 N 0.1398(7) 0.6518(7) 1.018(2)
Zn1A Zn 0.21238(2) 0.78754(2) 0.60827(5)
Zn2A Zn 0.25002(2) 0.91625(2) 0.99992(6)
O2A O 0.3064(3) 0.9369(2) 1.0789(7)
O3A O 0.2617(5) 0.9782(5) 1.1472(12)
C1A C 0.2983(5) 0.9663(5) 1.1333(15)
C2A C 0.3409(6) 0.9952(6) 1.1894(18)
C3A C 0.3860(7) 0.9815(5) 1.1622(18)
H1A H 0.3911 0.9571 1.1092
C4A C 0.4234(6) 1.0044(7) 1.214(2)
H2A H 0.4536 0.9952 1.1962
C5A C 0.4158(7) 1.0409(7) 1.294(2)
C6A C 0.3707(9) 1.0546(7) 1.3207(19)
H3A H 0.3656 1.0790 1.3738
C7A C 0.3332(6) 1.0317(7) 1.269(2)
H4A H 0.3030 1.0409 1.2868
O4A O 0.6702(13) 1.1842(8) 1.512(3)
O5A O 0.6469(2) 1.1468(2) 1.6733(6)
C8A C 0.6491(3) 1.1491(3) 1.5591(8)
C9A C 0.6125(9) 1.1255(9) 1.4940(19)
C10A C 0.5769(7) 1.1025(7) 1.5431(19)
H5A H 0.5739 1.1030 1.6263
C11A C 0.5459(7) 1.0791(8) 1.4810(18)
H6A H 0.5211 1.0660 1.5224
C12A C 0.5477(9) 1.0730(9) 1.366(2)
C13A C 0.5805(8) 1.0945(9) 1.309(2)
H7A H 0.5863 1.0901 1.2274
C14A C 0.6056(9) 1.1238(10) 1.3779(19)
H8A H 0.6208 1.1470 1.3351
C15A C 0.5096(10) 1.0474(11) 1.296(3)
H9A H 0.5184 1.0224 1.2477
C16A C 0.4672(9) 1.0581(14) 1.299(5)
H10A H 0.4660 1.0901 1.3097
C17A C 0.3427(4) 0.8230(5) 0.9225(12)
N1A N 0.3662(7) 0.7758(9) 0.870(2)
N2A N 0.3160(6) 0.7650(5) 0.7337(13)
C18A C 0.3543(10) 0.7566(9) 0.797(2)
H11A H 0.3722 0.7313 0.7732
C19A C 0.2916(5) 0.8024(4) 0.7658(12)
C20A C 0.3050(5) 0.8311(5) 0.8569(10)
C21A C 0.2418(8) 0.8564(9) 0.784(2)
H12A H 0.2156 0.8745 0.7696
N3A N 0.2511(5) 0.8190(7) 0.7176(14)
N4A N 0.2705(7) 0.8665(5) 0.8695(18)
N5A N 0.3602(7) 0.8482(7) 1.018(2)
Zn1F Zn 0.21246(2) 0.71238(2) 0.39173(5)
Zn2F Zn 0.08375(2) 0.75002(2) 0.00008(6)
O2F O 0.0631(2) 0.8064(3) -0.0789(7)
O3F O 0.0218(5) 0.7617(5) -0.1472(12)
C1F C 0.0337(5) 0.7983(5) -0.1333(15)
C2F C 0.0048(6) 0.8409(6) -0.1894(18)
C3F C 0.0185(5) 0.8860(7) -0.1622(18)
H1F H 0.0429 0.8911 -0.1092
C4F C -0.0044(7) 0.9234(6) -0.214(2)
H2F H 0.0048 0.9536 -0.1962
C5F C -0.0409(7) 0.9158(7) -0.294(2)
C6F C -0.0546(7) 0.8707(9) -0.3207(19)
H3F H -0.0790 0.8656 -0.3738
C7F C -0.0317(7) 0.8332(6) -0.269(2)
H4F H -0.0409 0.8030 -0.2868
O4F O -0.1842(8) 1.1702(13) -0.512(3)
O5F O -0.1468(2) 1.1469(2) -0.6733(6)
C8F C -0.1491(3) 1.1491(3) -0.5591(8)
C9F C -0.1255(9) 1.1125(9) -0.4940(19)
C10F C -0.1025(7) 1.0769(7) -0.5431(19)
H5F H -0.1030 1.0739 -0.6263
C11F C -0.0791(8) 1.0459(7) -0.4810(18)
H6F H -0.0660 1.0211 -0.5224
C12F C -0.0730(9) 1.0477(9) -0.366(2)
C13F C -0.0945(9) 1.0805(8) -0.309(2)
H7F H -0.0901 1.0863 -0.2274
C14F C -0.1238(10) 1.1056(9) -0.3779(19)
H8F H -0.1470 1.1208 -0.3351
C15F C -0.0474(11) 1.0096(10) -0.296(3)
H9F H -0.0224 1.0184 -0.2477
C16F C -0.0581(14) 0.9672(9) -0.299(5)
H10F H -0.0901 0.9660 -0.3097
C17F C 0.1770(5) 0.8427(4) 0.0775(12)
N1F N 0.2242(9) 0.8662(7) 0.130(2)
N2F N 0.2350(5) 0.8160(6) 0.2663(13)
C18F C 0.2434(9) 0.8543(10) 0.203(2)
H11F H 0.2687 0.8722 0.2268
C19F C 0.1976(4) 0.7916(5) 0.2342(12)
C20F C 0.1689(5) 0.8050(5) 0.1431(10)
C21F C 0.1436(9) 0.7418(8) 0.216(2)
H12F H 0.1255 0.7156 0.2304
N3F N 0.1810(7) 0.7511(5) 0.2824(14)
N4F N 0.1335(5) 0.7705(7) 0.1305(18)
N5F N 0.1518(7) 0.8602(7) -0.018(2)
Zn1G Zn 0.28754(2) 0.78762(2) 0.39173(5)
Zn2G Zn 0.41625(2) 0.74998(2) 0.00008(6)
O2G O 0.4369(2) 0.6936(3) -0.0789(7)
O3G O 0.4782(5) 0.7383(5) -0.1472(12)
C1G C 0.4663(5) 0.7017(5) -0.1333(15)
C2G C 0.4952(6) 0.6591(6) -0.1894(18)
C3G C 0.4815(5) 0.6140(7) -0.1622(18)
H1G H 0.4571 0.6089 -0.1092
C4G C 0.5044(7) 0.5766(6) -0.214(2)
H2G H 0.4952 0.5464 -0.1962
C5G C 0.5409(7) 0.5842(7) -0.294(2)
C6G C 0.5546(7) 0.6293(9) -0.3207(19)
H3G H 0.5790 0.6344 -0.3738
C7G C 0.5317(7) 0.6668(6) -0.269(2)
H4G H 0.5409 0.6970 -0.2868
O4G O 0.6842(8) 0.3298(13) -0.512(3)
O5G O 0.6468(2) 0.3531(2) -0.6733(6)
C8G C 0.6491(3) 0.3509(3) -0.5591(8)
C9G C 0.6255(9) 0.3875(9) -0.4940(19)
C10G C 0.6025(7) 0.4231(7) -0.5431(19)
H5G H 0.6030 0.4261 -0.6263
C11G C 0.5791(8) 0.4541(7) -0.4810(18)
H6G H 0.5660 0.4789 -0.5224
C12G C 0.5730(9) 0.4523(9) -0.366(2)
C13G C 0.5945(9) 0.4195(8) -0.309(2)
H7G H 0.5901 0.4137 -0.2274
C14G C 0.6238(10) 0.3944(9) -0.3779(19)
H8G H 0.6470 0.3792 -0.3351
C15G C 0.5474(11) 0.4904(10) -0.296(3)
H9G H 0.5224 0.4816 -0.2477
C16G C 0.5581(14) 0.5328(9) -0.299(5)
H10G H 0.5901 0.5340 -0.3097
C17G C 0.3230(5) 0.6573(4) 0.0775(12)
N1G N 0.2758(9) 0.6338(7) 0.130(2)
N2G N 0.2650(5) 0.6840(6) 0.2663(13)
C18G C 0.2566(9) 0.6457(10) 0.203(2)
H11G H 0.2313 0.6278 0.2268
C19G C 0.3024(4) 0.7084(5) 0.2342(12)
C20G C 0.3311(5) 0.6950(5) 0.1431(10)
C21G C 0.3564(9) 0.7582(8) 0.216(2)
H12G H 0.3745 0.7844 0.2304
N3G N 0.3190(7) 0.7489(5) 0.2824(14)
N4G N 0.3665(5) 0.7295(7) 0.1305(18)
N5G N 0.3482(7) 0.6398(7) -0.018(2)
Zn1B Zn -0.21246(2) 0.28762(2) 1.60827(5)
Zn1C Zn 0.71246(2) 1.21238(2) 1.60827(5)
Zn1D Zn 0.71238(2) 0.28754(2) -0.60827(5)
Zn1E Zn -0.21238(2) 1.21246(2) -0.60827(5)
Zn2_2 Zn 0.24998(2) 0.58375(2) -0.00008(6)
Zn2A_2 Zn 0.25002(2) 0.91625(2) -0.00008(6)
Zn2F_2 Zn 0.08375(2) 0.75002(2) 1.00008(6)
Zn2G_2 Zn 0.41625(2) 0.74998(2) 1.00008(6)
O4B O 0.1842(8) 0.8298(13) 0.512(3)
O4C O 0.3158(8) 0.6702(13) 0.512(3)
O4D O 0.1702(13) 0.6842(8) 0.488(3)
O4E O 0.3298(13) 0.8158(8) 0.488(3)
N1_2 N 0.1338(7) 0.7242(9) -0.130(2)
N1A_2 N 0.3662(7) 0.7758(9) -0.130(2)
N1F_2 N 0.2242(9) 0.8662(7) 1.130(2)
N1G_2 N 0.2758(9) 0.6338(7) 1.130(2)
O6? O 0.0209(5) 0.7387(5) 1.1488(13)
O7? O 0.0633(2) 0.6933(3) 1.0775(7)
C22? C 0.0351(5) 0.7026(5) 1.1335(15)
C23? C 0.0052(6) 0.6605(6) 1.1920(19)
C24? C -0.0316(7) 0.6686(6) 1.270(2)
H13? H -0.0413 0.6989 1.2854
C25? C -0.0539(7) 0.6315(9) 1.3255(19)
H14? H -0.0785 0.6369 1.3778
C26? C -0.0394(7) 0.5863(7) 1.303(2)
C27? C -0.0026(7) 0.5782(6) 1.225(2)
H15? H 0.0071 0.5480 1.2093
C28? C 0.0197(5) 0.6153(7) 1.1692(19)
H16? H 0.0443 0.6099 1.1169
O8? O -0.1763(12) 0.3333(7) 1.4976(18)
O9? O -0.1469(2) 0.3532(2) 1.6733(6)
C29? C -0.1491(3) 0.3509(3) 1.5591(8)
C30? C -0.1232(9) 0.3913(8) 1.484(2)
C31? C -0.1016(8) 0.4241(7) 1.537(3)
H17? H -0.0996 0.4247 1.6207
C32? C -0.0831(8) 0.4558(7) 1.476(2)
H18? H -0.0720 0.4811 1.5187
C33? C -0.0776(11) 0.4579(10) 1.363(2)
C34? C -0.1023(12) 0.4266(11) 1.316(4)
H19? H -0.1021 0.4249 1.2331
C35? C -0.1279(12) 0.3965(13) 1.372(3)
H20? H -0.1496 0.3789 1.3303
C36? C -0.0525(12) 0.5342(9) 1.324(5)
H21? H -0.0629 0.5319 1.4028
C37? C -0.0548(11) 0.4947(10) 1.280(3)
H22? H -0.0438 0.4877 1.2033
C38? C 0.1792(6) 0.6567(5) 0.9260(14)
N6? N 0.2169(8) 0.6331(8) 0.892(2)
C39? C 0.2429(9) 0.6476(12) 0.797(3)
H23? H 0.2684 0.6299 0.7742
N7? N 0.2335(5) 0.6856(6) 0.7359(15)
C40? C 0.1945(6) 0.7097(6) 0.7736(17)
C41? C 0.1670(4) 0.6973(5) 0.8575(10)
C42? C 0.1454(11) 0.7583(9) 0.785(3)
H24? H 0.1271 0.7844 0.7715
N8? N 0.1823(10) 0.7496(7) 0.7155(19)
N9? N 0.1330(8) 0.7225(9) 0.894(3)
N10? N 0.1543(8) 0.6407(9) 1.023(3)
loop_
_geom_bond_atom_site_label_1
_geom_bond_atom_site_label_2
_geom_bond_site_symmetry_1
_geom_bond_site_symmetry_2
Zn1 O1 1_555 1_555
Zn2 O2 1_555 1_555
O1 Zn1A 1_555 1_555
O2 C1 1_555 1_555
O3 Zn2 1_555 1_555
C1 O3 1_555 1_555
C2 C1 1_555 1_555
C3 C2 1_555 1_555
H1 C3 1_555 1_555
C4 C3 1_555 1_555
H2 C4 1_555 1_555
C5 C4 1_555 1_555
C6 C5 1_555 1_555
H3 C6 1_555 1_555
C7 C2 1_555 1_555
H4 C7 1_555 1_555
O4 C8 1_555 1_555
O5 C8 1_555 1_555
C8 C9 1_555 1_555
C9 C10 1_555 1_555
C10 H5 1_555 1_555
C11 C10 1_555 1_555
H6 C11 1_555 1_555
C12 C11 1_555 1_555
C13 C12 1_555 1_555
H7 C13 1_555 1_555
C14 C9 1_555 1_555
H8 C14 1_555 1_555
C15 C12 1_555 1_555
H9 C15 1_555 1_555
C16 C5 1_555 1_555
H10 C16 1_555 1_555
C17 N1 1_555 1_555
N1 C18 1_555 1_555
N2 C18 1_555 1_555
C18 H11 1_555 1_555
C19 N2 1_555 1_555
C20 C17 1_555 1_555
C21 H12 1_555 1_555
N3 Zn1 1_555 1_555
N4 Zn2 1_555 1_555
N5 C17 1_555 1_555
Zn1A N2 1_555 1_555
Zn2A O2A 1_555 1_555
O2A C1A 1_555 1_555
O3A Zn2A 1_555 1_555
C1A O3A 1_555 1_555
C2A C1A 1_555 1_555
C3A C2A 1_555 1_555
H1A C3A 1_555 1_555
C4A C3A 1_555 1_555
H2A C4A 1_555 1_555
C5A C4A 1_555 1_555
C6A C5A 1_555 1_555
H3A C6A 1_555 1_555
C7A C2A 1_555 1_555
H4A C7A 1_555 1_555
O4A C8A 1_555 1_555
O5A C8A 1_555 1_555
C8A C9A 1_555 1_555
C9A C10A 1_555 1_555
C10A H5A 1_555 1_555
C11A C10A 1_555 1_555
H6A C11A 1_555 1_555
C12A C11A 1_555 1_555
C13A C12A 1_555 1_555
H7A C13A 1_555 1_555
C14A C9A 1_555 1_555
H8A C14A 1_555 1_555
C15A C12A 1_555 1_555
H9A C15A 1_555 1_555
C16A C5A 1_555 1_555
H10A C16A 1_555 1_555
C17A N1A 1_555 1_555
N1A C18A 1_555 1_555
N2A Zn1 1_555 1_555
C18A N2A 1_555 1_555
H11A C18A 1_555 1_555
C19A N2A 1_555 1_555
C20A C17A 1_555 1_555
C21A H12A 1_555 1_555
N3A Zn1A 1_555 1_555
N4A Zn2A 1_555 1_555
N5A C17A 1_555 1_555
Zn1F O1 1_555 1_555
Zn2F O2F 1_555 1_555
O2F C1F 1_555 1_555
O3F Zn2F 1_555 1_555
C1F O3F 1_555 1_555
C2F C1F 1_555 1_555
C3F C2F 1_555 1_555
H1F C3F 1_555 1_555
C4F C3F 1_555 1_555
H2F C4F 1_555 1_555
C5F C4F 1_555 1_555
C6F C5F 1_555 1_555
H3F C6F 1_555 1_555
C7F C2F 1_555 1_555
H4F C7F 1_555 1_555
O4F C8F 1_555 1_555
O5F C8F 1_555 1_555
C8F C9F 1_555 1_555
C9F C10F 1_555 1_555
C10F H5F 1_555 1_555
C11F C10F 1_555 1_555
H6F C11F 1_555 1_555
C12F C11F 1_555 1_555
C13F C12F 1_555 1_555
H7F C13F 1_555 1_555
C14F C9F 1_555 1_555
H8F C14F 1_555 1_555
C15F C12F 1_555 1_555
H9F C15F 1_555 1_555
C16F C5F 1_555 1_555
H10F C16F 1_555 1_555
C17F N1F 1_555 1_555
N1F C18F 1_555 1_555
N2F C18F 1_555 1_555
C18F H11F 1_555 1_555
C19F N2F 1_555 1_555
C20F C17F 1_555 1_555
C21F H12F 1_555 1_555
N3F Zn1F 1_555 1_555
N4F Zn2F 1_555 1_555
N5F C17F 1_555 1_555
Zn1G O1 1_555 1_555
Zn2G O2G 1_555 1_555
O2G C1G 1_555 1_555
O3G Zn2G 1_555 1_555
C1G O3G 1_555 1_555
C2G C1G 1_555 1_555
C3G C2G 1_555 1_555
H1G C3G 1_555 1_555
C4G C3G 1_555 1_555
H2G C4G 1_555 1_555
C5G C4G 1_555 1_555
C6G C5G 1_555 1_555
H3G C6G 1_555 1_555
C7G C2G 1_555 1_555
H4G C7G 1_555 1_555
O4G C8G 1_555 1_555
O5G C8G 1_555 1_555
C8G C9G 1_555 1_555
C9G C10G 1_555 1_555
C10G H5G 1_555 1_555
C11G C10G 1_555 1_555
H6G C11G 1_555 1_555
C12G C11G 1_555 1_555
C13G C12G 1_555 1_555
H7G C13G 1_555 1_555
C14G C9G 1_555 1_555
H8G C14G 1_555 1_555
C15G C12G 1_555 1_555
H9G C15G 1_555 1_555
C16G C5G 1_555 1_555
H10G C16G 1_555 1_555
C17G N1G 1_555 1_555
N1G C18G 1_555 1_555
N2G Zn1F 1_555 1_555
C18G N2G 1_555 1_555
H11G C18G 1_555 1_555
C19G N2G 1_555 1_555
C20G C17G 1_555 1_555
C21G H12G 1_555 1_555
N3G Zn1G 1_555 1_555
N4G Zn2G 1_555 1_555
N5G C17G 1_555 1_555
Zn1B O4 1_555 1_555
Zn1C O4A 1_555 1_555
Zn1D O4G 1_555 1_555
Zn1E O4F 1_555 1_555
Zn2_2 N1G 1_555 1_555
Zn2A_2 N1F 1_555 1_555
Zn2F_2 N1 1_555 1_555
Zn2G_2 N1A 1_555 1_555
O4B Zn1A 1_555 1_555
O4C Zn1 1_555 1_555
O4D Zn1F 1_555 1_555
O4E Zn1G 1_555 1_555
N1_2 Zn2F 1_555 1_555
N1A_2 Zn2G 1_555 1_555
N1F_2 Zn2A 1_555 1_555
N1G_2 Zn2 1_555 1_555
C6 C7 1_555 1_555
C13 C14 1_555 1_555
C15 C16 1_555 1_555
C19 C20 1_555 1_555
C19 N3 1_555 1_555
C20 N4 1_555 1_555
C21 N3 1_555 1_555
C21 N4 1_555 1_555
C6A C7A 1_555 1_555
C13A C14A 1_555 1_555
C15A C16A 1_555 1_555
C19A C20A 1_555 1_555
C19A N3A 1_555 1_555
C20A N4A 1_555 1_555
C21A N3A 1_555 1_555
C21A N4A 1_555 1_555
C6F C7F 1_555 1_555
C13F C14F 1_555 1_555
C15F C16F 1_555 1_555
N2F Zn1G 1_555 1_555
C19F C20F 1_555 1_555
C19F N3F 1_555 1_555
C20F N4F 1_555 1_555
C21F N3F 1_555 1_555
C21F N4F 1_555 1_555
C6G C7G 1_555 1_555
C13G C14G 1_555 1_555
C15G C16G 1_555 1_555
C19G C20G 1_555 1_555
C19G N3G 1_555 1_555
C20G N4G 1_555 1_555
C21G N3G 1_555 1_555
C21G N4G 1_555 1_555

#END
