
#######################################################################
#
#                 Cambridge Crystallographic Data Centre
#                                CCDC 
#
#######################################################################
#
# If this CIF has been generated from an entry in the Cambridge 
# Structural Database, then it will include bibliographic, chemical, 
# crystal, experimental, refinement or atomic coordinate data resulting 
# from the CCDC's data processing and validation procedures.
#
#######################################################################

data_WIZMAV03
_chemical_name_common            UiO-67b
_chemical_formula_moiety         '(C42 H26 O16 Zr3)n'
_chemical_name_systematic        
"catena-[tris(\m~4~-biphenyl-4,4'-dicarboxylato)-bis(\m~3~-hydroxo)-bis(\m~3~-oxido)-tri-zirconium unknown solvate]"
_symmetry_cell_setting           cubic
_symmetry_space_group_name_H-M   'F m -3 m'
_symmetry_Int_Tables_number      225
_space_group_name_Hall           '-F 4 2 3'
loop_
_symmetry_equiv_pos_site_id
_symmetry_equiv_pos_as_xyz
1 x,y,z
2 -x,-y,z
3 -x,y,-z
4 x,-y,-z
5 z,x,y
6 z,-x,-y
7 -z,-x,y
8 -z,x,-y
9 y,z,x
10 -y,z,-x
11 y,-z,-x
12 -y,-z,x
13 y,x,-z
14 -y,-x,-z
15 y,-x,z
16 -y,x,z
17 x,z,-y
18 -x,z,y
19 -x,-z,-y
20 x,-z,y
21 z,y,-x
22 z,-y,x
23 -z,y,x
24 -z,-y,-x
25 x,1/2+y,1/2+z
26 -x,1/2-y,1/2+z
27 -x,1/2+y,1/2-z
28 x,1/2-y,1/2-z
29 z,1/2+x,1/2+y
30 z,1/2-x,1/2-y
31 -z,1/2-x,1/2+y
32 -z,1/2+x,1/2-y
33 y,1/2+z,1/2+x
34 -y,1/2+z,1/2-x
35 y,1/2-z,1/2-x
36 -y,1/2-z,1/2+x
37 y,1/2+x,1/2-z
38 -y,1/2-x,1/2-z
39 y,1/2-x,1/2+z
40 -y,1/2+x,1/2+z
41 x,1/2+z,1/2-y
42 -x,1/2+z,1/2+y
43 -x,1/2-z,1/2-y
44 x,1/2-z,1/2+y
45 z,1/2+y,1/2-x
46 z,1/2-y,1/2+x
47 -z,1/2+y,1/2+x
48 -z,1/2-y,1/2-x
49 1/2+x,y,1/2+z
50 1/2-x,-y,1/2+z
51 1/2-x,y,1/2-z
52 1/2+x,-y,1/2-z
53 1/2+z,x,1/2+y
54 1/2+z,-x,1/2-y
55 1/2-z,-x,1/2+y
56 1/2-z,x,1/2-y
57 1/2+y,z,1/2+x
58 1/2-y,z,1/2-x
59 1/2+y,-z,1/2-x
60 1/2-y,-z,1/2+x
61 1/2+y,x,1/2-z
62 1/2-y,-x,1/2-z
63 1/2+y,-x,1/2+z
64 1/2-y,x,1/2+z
65 1/2+x,z,1/2-y
66 1/2-x,z,1/2+y
67 1/2-x,-z,1/2-y
68 1/2+x,-z,1/2+y
69 1/2+z,y,1/2-x
70 1/2+z,-y,1/2+x
71 1/2-z,y,1/2+x
72 1/2-z,-y,1/2-x
73 1/2+x,1/2+y,z
74 1/2-x,1/2-y,z
75 1/2-x,1/2+y,-z
76 1/2+x,1/2-y,-z
77 1/2+z,1/2+x,y
78 1/2+z,1/2-x,-y
79 1/2-z,1/2-x,y
80 1/2-z,1/2+x,-y
81 1/2+y,1/2+z,x
82 1/2-y,1/2+z,-x
83 1/2+y,1/2-z,-x
84 1/2-y,1/2-z,x
85 1/2+y,1/2+x,-z
86 1/2-y,1/2-x,-z
87 1/2+y,1/2-x,z
88 1/2-y,1/2+x,z
89 1/2+x,1/2+z,-y
90 1/2-x,1/2+z,y
91 1/2-x,1/2-z,-y
92 1/2+x,1/2-z,y
93 1/2+z,1/2+y,-x
94 1/2+z,1/2-y,x
95 1/2-z,1/2+y,x
96 1/2-z,1/2-y,-x
97 -x,-y,-z
98 x,y,-z
99 x,-y,z
100 -x,y,z
101 -z,-x,-y
102 -z,x,y
103 z,x,-y
104 z,-x,y
105 -y,-z,-x
106 y,-z,x
107 -y,z,x
108 y,z,-x
109 -y,-x,z
110 y,x,z
111 -y,x,-z
112 y,-x,-z
113 -x,-z,y
114 x,-z,-y
115 x,z,y
116 -x,z,-y
117 -z,-y,x
118 -z,y,-x
119 z,-y,-x
120 z,y,x
121 -x,1/2-y,1/2-z
122 x,1/2+y,1/2-z
123 x,1/2-y,1/2+z
124 -x,1/2+y,1/2+z
125 -z,1/2-x,1/2-y
126 -z,1/2+x,1/2+y
127 z,1/2+x,1/2-y
128 z,1/2-x,1/2+y
129 -y,1/2-z,1/2-x
130 y,1/2-z,1/2+x
131 -y,1/2+z,1/2+x
132 y,1/2+z,1/2-x
133 -y,1/2-x,1/2+z
134 y,1/2+x,1/2+z
135 -y,1/2+x,1/2-z
136 y,1/2-x,1/2-z
137 -x,1/2-z,1/2+y
138 x,1/2-z,1/2-y
139 x,1/2+z,1/2+y
140 -x,1/2+z,1/2-y
141 -z,1/2-y,1/2+x
142 -z,1/2+y,1/2-x
143 z,1/2-y,1/2-x
144 z,1/2+y,1/2+x
145 1/2-x,-y,1/2-z
146 1/2+x,y,1/2-z
147 1/2+x,-y,1/2+z
148 1/2-x,y,1/2+z
149 1/2-z,-x,1/2-y
150 1/2-z,x,1/2+y
151 1/2+z,x,1/2-y
152 1/2+z,-x,1/2+y
153 1/2-y,-z,1/2-x
154 1/2+y,-z,1/2+x
155 1/2-y,z,1/2+x
156 1/2+y,z,1/2-x
157 1/2-y,-x,1/2+z
158 1/2+y,x,1/2+z
159 1/2-y,x,1/2-z
160 1/2+y,-x,1/2-z
161 1/2-x,-z,1/2+y
162 1/2+x,-z,1/2-y
163 1/2+x,z,1/2+y
164 1/2-x,z,1/2-y
165 1/2-z,-y,1/2+x
166 1/2-z,y,1/2-x
167 1/2+z,-y,1/2-x
168 1/2+z,y,1/2+x
169 1/2-x,1/2-y,-z
170 1/2+x,1/2+y,-z
171 1/2+x,1/2-y,z
172 1/2-x,1/2+y,z
173 1/2-z,1/2-x,-y
174 1/2-z,1/2+x,y
175 1/2+z,1/2+x,-y
176 1/2+z,1/2-x,y
177 1/2-y,1/2-z,-x
178 1/2+y,1/2-z,x
179 1/2-y,1/2+z,x
180 1/2+y,1/2+z,-x
181 1/2-y,1/2-x,z
182 1/2+y,1/2+x,z
183 1/2-y,1/2+x,-z
184 1/2+y,1/2-x,-z
185 1/2-x,1/2-z,y
186 1/2+x,1/2-z,-y
187 1/2+x,1/2+z,y
188 1/2-x,1/2+z,-y
189 1/2-z,1/2-y,x
190 1/2-z,1/2+y,-x
191 1/2+z,1/2-y,-x
192 1/2+z,1/2+y,x
_cell_length_a                   26.812(2)
_cell_length_b                   26.812(2)
_cell_length_c                   26.812(2)
_cell_angle_alpha                90
_cell_angle_beta                 90
_cell_angle_gamma                90
_cell_volume                     19274.7
_exptl_crystal_colour            colorless
_cell_formula_units_Z            8
loop_
_atom_site_label
_atom_site_type_symbol
_atom_site_fract_x
_atom_site_fract_y
_atom_site_fract_z
Zr1 Zr 0.0000 0.40754(2) 0.0000
O1 O 0.07234(9) 0.36784(9) 0.0000
C1 C 0.11751(13) 0.38249(13) 0.0000
C2 C 0.15685(14) 0.34315(14) 0.0000
C3 C 0.1444(2) 0.29416(16) 0.01230(17)
H1 H 0.1119 0.2883 0.0251
O2 O 0.05151(17) 0.44849(17) -0.05151(17)
O1GC O 0.13216(9) 0.42766(9) 0.0000
C3GC C 0.20584(16) 0.3556(2) -0.01230(17)
H1GC H 0.2117 0.3881 -0.0251
C3SC C 0.1444(2) 0.29416(16) -0.01230(17)
H1SC H 0.1119 0.2883 -0.0251
C3XF C 0.20584(16) 0.3556(2) 0.01230(17)
H1XF H 0.2117 0.3881 0.0251
O1B O -0.07234(9) 0.36784(9) 0.0000
C1B C -0.11751(13) 0.38249(13) 0.0000
C2B C -0.15685(14) 0.34315(14) 0.0000
C3B C -0.1444(2) 0.29416(16) -0.01230(17)
H1B H -0.1119 0.2883 -0.0251
O2B O -0.05151(17) 0.44849(17) 0.05151(17)
O1HC O -0.13216(9) 0.42766(9) 0.0000
C3HC C -0.20584(16) 0.3556(2) 0.01230(17)
H1HC H -0.2117 0.3881 0.0251
C3UC C -0.1444(2) 0.29416(16) 0.01230(17)
H1UC H -0.1119 0.2883 0.0251
C3AG C -0.20584(16) 0.3556(2) -0.01230(17)
H1AG H -0.2117 0.3881 -0.0251
O1V O 0.0000 0.36784(9) 0.07234(9)
C1V C 0.0000 0.38249(13) 0.11751(13)
C2V C 0.0000 0.34315(14) 0.15685(14)
C3V C -0.01230(17) 0.29416(16) 0.1444(2)
H1V H -0.0251 0.2883 0.1119
O1CA O 0.0000 0.42766(9) 0.13216(9)
C3CA C 0.01230(17) 0.3556(2) 0.20584(16)
H1CA H 0.0251 0.3881 0.2117
C3OD C 0.01230(17) 0.29416(16) 0.1444(2)
H1OD H 0.0251 0.2883 0.1119
C3TD C -0.01230(17) 0.3556(2) 0.20584(16)
H1TD H -0.0251 0.3881 0.2117
Zr1CA Zr 0.0000 0.5000 0.09246(2)
O2V O 0.05151(17) 0.44849(17) 0.05151(17)
Zr1BA Zr 0.0000 0.5000 -0.09246(2)
Zr1BC Zr -0.09246(2) 0.5000 0.0000
Zr1CC Zr 0.09246(2) 0.5000 0.0000
O1T O 0.0000 0.36784(9) -0.07234(9)
O1EA O 0.0000 0.57234(9) 0.13216(9)
O1NA O 0.07234(9) 0.5000 0.13216(9)
O1PA O -0.07234(9) 0.5000 0.13216(9)
O2C O 0.05151(17) 0.55151(17) 0.05151(17)
O2T O -0.05151(17) 0.44849(17) -0.05151(17)
O2U O -0.05151(17) 0.55151(17) 0.05151(17)
C4 C 0.18080(16) 0.2580(2) 0.01226(17)
H2 H 0.1736 0.2272 0.0282
C5 C 0.23025(16) 0.26975(16) 0.0000
C4L C 0.2580(2) 0.18080(16) -0.01226(17)
H2L H 0.2272 0.1736 -0.0282
C5L C 0.26975(16) 0.23025(16) 0.0000
C4UB C 0.31920(16) 0.2420(2) 0.01226(17)
H2UB H 0.3264 0.2728 0.0282
C4GC C 0.2420(2) 0.31920(16) -0.01226(17)
H2GC H 0.2728 0.3264 -0.0282
C4SC C 0.18080(16) 0.2580(2) -0.01226(17)
H2SC H 0.1736 0.2272 -0.0282
C4ED C 0.2580(2) 0.18080(16) 0.01226(17)
H2ED H 0.2272 0.1736 0.0282
C4LF C 0.31920(16) 0.2420(2) -0.01226(17)
H2LF H 0.3264 0.2728 -0.0282
C4XF C 0.2420(2) 0.31920(16) 0.01226(17)
H2XF H 0.2728 0.3264 0.0282
O1L O 0.36784(9) 0.07234(9) 0.0000
C1L C 0.38249(13) 0.11751(13) 0.0000
C2L C 0.34315(14) 0.15685(14) 0.0000
C3L C 0.29416(16) 0.1444(2) -0.01230(17)
H1L H 0.2883 0.1119 -0.0251
O1UB O 0.42766(9) 0.13216(9) 0.0000
C3UB C 0.3556(2) 0.20584(16) 0.01230(17)
H1UB H 0.3881 0.2117 0.0251
C3ED C 0.29416(16) 0.1444(2) 0.01230(17)
H1ED H 0.2883 0.1119 0.0251
C3LF C 0.3556(2) 0.20584(16) -0.01230(17)
H1LF H 0.3881 0.2117 -0.0251
Zr1H Zr 0.40754(2) 0.0000 0.0000
Zr1UB Zr 0.5000 0.09246(2) 0.0000
C4B C -0.18080(16) 0.2580(2) -0.01226(17)
H2B H -0.1736 0.2272 -0.0282
C5B C -0.23025(16) 0.26975(16) 0.0000
C4O C -0.2580(2) 0.18080(16) 0.01226(17)
H2O H -0.2272 0.1736 0.0282
C5O C -0.26975(16) 0.23025(16) 0.0000
C4WB C -0.31920(16) 0.2420(2) -0.01226(17)
H2WB H -0.3264 0.2728 -0.0282
C4HC C -0.2420(2) 0.31920(16) 0.01226(17)
H2HC H -0.2728 0.3264 0.0282
C4UC C -0.18080(16) 0.2580(2) 0.01226(17)
H2UC H -0.1736 0.2272 0.0282
C4FD C -0.2580(2) 0.18080(16) -0.01226(17)
H2FD H -0.2272 0.1736 -0.0282
C4NF C -0.31920(16) 0.2420(2) 0.01226(17)
H2NF H -0.3264 0.2728 0.0282
C4AG C -0.2420(2) 0.31920(16) -0.01226(17)
H2AG H -0.2728 0.3264 -0.0282
O1O O -0.36784(9) 0.07234(9) 0.0000
C1O C -0.38249(13) 0.11751(13) 0.0000
C2O C -0.34315(14) 0.15685(14) 0.0000
C3O C -0.29416(16) 0.1444(2) 0.01230(17)
H1O H -0.2883 0.1119 0.0251
O1WB O -0.42766(9) 0.13216(9) 0.0000
C3WB C -0.3556(2) 0.20584(16) -0.01230(17)
H1WB H -0.3881 0.2117 -0.0251
C3FD C -0.29416(16) 0.1444(2) -0.01230(17)
H1FD H -0.2883 0.1119 -0.0251
C3NF C -0.3556(2) 0.20584(16) 0.01230(17)
H1NF H -0.3881 0.2117 0.0251
Zr1I Zr -0.40754(2) 0.0000 0.0000
Zr1UB_2 Zr -0.5000 0.09246(2) 0.0000
Zr1D Zr 0.0000 0.0000 0.40754(2)
O1D O 0.0000 0.07234(9) 0.36784(9)
C1D C 0.0000 0.11751(13) 0.38249(13)
C2D C 0.0000 0.15685(14) 0.34315(14)
C3D C 0.01230(17) 0.1444(2) 0.29416(16)
H1D H 0.0251 0.1119 0.2883
O1UA O 0.0000 0.13216(9) 0.42766(9)
C3UA C -0.01230(17) 0.20584(16) 0.3556(2)
H1UA H -0.0251 0.2117 0.3881
C3WC C -0.01230(17) 0.1444(2) 0.29416(16)
H1WC H -0.0251 0.1119 0.2883
C3LE C 0.01230(17) 0.20584(16) 0.3556(2)
H1LE H 0.0251 0.2117 0.3881
Zr1Y Zr 0.0000 0.09246(2) 0.5000
O1F O 0.0000 -0.07234(9) 0.36784(9)
O1Q O -0.07234(9) 0.0000 0.36784(9)
O1S O 0.07234(9) 0.0000 0.36784(9)
O2D O -0.05151(17) 0.05151(17) 0.44849(17)
O2F O 0.05151(17) -0.05151(17) 0.44849(17)
O2Q O -0.05151(17) -0.05151(17) 0.44849(17)
O2S O 0.05151(17) 0.05151(17) 0.44849(17)
C4D C 0.01226(17) 0.18080(16) 0.2580(2)
H2D H 0.0282 0.1736 0.2272
C5D C 0.0000 0.23025(16) 0.26975(16)
C4V C -0.01226(17) 0.2580(2) 0.18080(16)
H2V H -0.0282 0.2272 0.1736
C5V C 0.0000 0.26975(16) 0.23025(16)
C4CA C 0.01226(17) 0.31920(16) 0.2420(2)
H2CA H 0.0282 0.3264 0.2728
C4UA C -0.01226(17) 0.2420(2) 0.31920(16)
H2UA H -0.0282 0.2728 0.3264
C4WC C -0.01226(17) 0.18080(16) 0.2580(2)
H2WC H -0.0282 0.1736 0.2272
C4OD C 0.01226(17) 0.2580(2) 0.18080(16)
H2OD H 0.0282 0.2272 0.1736
C4TD C -0.01226(17) 0.31920(16) 0.2420(2)
H2TD H -0.0282 0.3264 0.2728
C4LE C 0.01226(17) 0.2420(2) 0.31920(16)
H2LE H 0.0282 0.2728 0.3264
O3? O 0.0379(2) 0.4621(2) -0.0379(2)
loop_
_geom_bond_atom_site_label_1
_geom_bond_atom_site_label_2
_geom_bond_site_symmetry_1
_geom_bond_site_symmetry_2
Zr1 O1 1_555 1_555
O1 C1 1_555 1_555
C1 C2 1_555 1_555
C2 C3 1_555 1_555
C3 H1 1_555 1_555
H1 C3SC 1_555 1_555
O2 Zr1 1_555 1_555
C4 H2 1_555 1_555
C5 C4 1_555 1_555
O1GC C1 1_555 1_555
C3GC C2 1_555 1_555
H1GC C3GC 1_555 1_555
C3SC C2 1_555 1_555
H1SC C3 1_555 1_555
C3XF C2 1_555 1_555
H1XF C3GC 1_555 1_555
O1B Zr1 1_555 1_555
C1B O1B 1_555 1_555
C2B C1B 1_555 1_555
C3B C2B 1_555 1_555
H1B C3B 1_555 1_555
O2B Zr1 1_555 1_555
O1HC C1B 1_555 1_555
C3HC C2B 1_555 1_555
H1HC C3HC 1_555 1_555
C3UC C2B 1_555 1_555
H1UC C3B 1_555 1_555
C3AG C2B 1_555 1_555
H1AG C3HC 1_555 1_555
O1V Zr1 1_555 1_555
C1V O1V 1_555 1_555
C2V C1V 1_555 1_555
C3V C2V 1_555 1_555
H1V C3V 1_555 1_555
O1CA C1V 1_555 1_555
C3CA C2V 1_555 1_555
H1CA C3CA 1_555 1_555
C3OD C2V 1_555 1_555
H1OD C3V 1_555 1_555
C3TD C2V 1_555 1_555
H1TD C3CA 1_555 1_555
Zr1CA O2B 1_555 1_555
O2V Zr1 1_555 1_555
Zr1BA O2 1_555 1_555
Zr1BC O2B 1_555 1_555
Zr1CC O2 1_555 1_555
O1T Zr1 1_555 1_555
O1EA Zr1CA 1_555 1_555
O1NA Zr1CA 1_555 1_555
O1PA Zr1CA 1_555 1_555
O2C Zr1CA 1_555 1_555
O2T Zr1 1_555 1_555
O2U Zr1CA 1_555 1_555
C4L H2L 1_555 1_555
C5L C5 1_555 1_555
C4UB C5L 1_555 1_555
H2UB C4UB 1_555 1_555
C4GC C5 1_555 1_555
H2GC C4GC 1_555 1_555
C4SC C4 1_555 1_555
H2SC C4SC 1_555 1_555
C4ED C4L 1_555 1_555
H2ED C4ED 1_555 1_555
C4LF C5L 1_555 1_555
H2LF C4LF 1_555 1_555
C4XF C5 1_555 1_555
H2XF C4XF 1_555 1_555
O1L C1L 1_555 1_555
C1L C2L 1_555 1_555
C2L C3L 1_555 1_555
C3L H1L 1_555 1_555
H1L C3ED 1_555 1_555
O1UB C1L 1_555 1_555
C3UB C2L 1_555 1_555
H1UB C3UB 1_555 1_555
C3ED C2L 1_555 1_555
H1ED C3L 1_555 1_555
C3LF C2L 1_555 1_555
H1LF C3UB 1_555 1_555
Zr1H O1L 1_555 1_555
Zr1UB O1UB 1_555 1_555
C4B H2B 1_555 1_555
C5B C4B 1_555 1_555
C4O H2O 1_555 1_555
C5O C5B 1_555 1_555
C4WB C5O 1_555 1_555
H2WB C4WB 1_555 1_555
C4HC C5B 1_555 1_555
H2HC C4HC 1_555 1_555
C4UC C4B 1_555 1_555
H2UC C4UC 1_555 1_555
C4FD C4O 1_555 1_555
H2FD C4FD 1_555 1_555
C4NF C5O 1_555 1_555
H2NF C4NF 1_555 1_555
C4AG C5B 1_555 1_555
H2AG C4AG 1_555 1_555
O1O C1O 1_555 1_555
C1O C2O 1_555 1_555
C2O C3O 1_555 1_555
C3O H1O 1_555 1_555
H1O C3FD 1_555 1_555
O1WB C1O 1_555 1_555
C3WB C2O 1_555 1_555
H1WB C3WB 1_555 1_555
C3FD C2O 1_555 1_555
H1FD C3O 1_555 1_555
C3NF C2O 1_555 1_555
H1NF C3WB 1_555 1_555
Zr1I O1O 1_555 1_555
Zr1UB_2 O1WB 1_555 1_555
Zr1D O1D 1_555 1_555
O1D C1D 1_555 1_555
C1D C2D 1_555 1_555
C2D C3D 1_555 1_555
C3D H1D 1_555 1_555
H1D C3WC 1_555 1_555
O1UA C1D 1_555 1_555
C3UA C2D 1_555 1_555
H1UA C3UA 1_555 1_555
C3WC C2D 1_555 1_555
H1WC C3D 1_555 1_555
C3LE C2D 1_555 1_555
H1LE C3UA 1_555 1_555
Zr1Y O1UA 1_555 1_555
O1F Zr1D 1_555 1_555
O1Q Zr1D 1_555 1_555
O1S Zr1D 1_555 1_555
O2D Zr1D 1_555 1_555
O2F Zr1D 1_555 1_555
O2Q Zr1D 1_555 1_555
O2S Zr1D 1_555 1_555
C4D H2D 1_555 1_555
C5D C4D 1_555 1_555
C4V H2V 1_555 1_555
C5V C5D 1_555 1_555
C4CA C5V 1_555 1_555
H2CA C4CA 1_555 1_555
C4UA C5D 1_555 1_555
H2UA C4UA 1_555 1_555
C4WC C4D 1_555 1_555
H2WC C4WC 1_555 1_555
C4OD C4V 1_555 1_555
H2OD C4OD 1_555 1_555
C4TD C5V 1_555 1_555
H2TD C4TD 1_555 1_555
C4LE C5D 1_555 1_555
H2LE C4LE 1_555 1_555
C3 C3SC 1_555 1_555
C5 C4SC 1_555 1_555
O1GC Zr1CC 1_555 1_555
C3GC C3XF 1_555 1_555
H1GC C3XF 1_555 1_555
C3SC H1SC 1_555 1_555
C3XF H1XF 1_555 1_555
C3B C3UC 1_555 1_555
H1B C3UC 1_555 1_555
O1HC Zr1BC 1_555 1_555
C3HC C3AG 1_555 1_555
H1HC C3AG 1_555 1_555
C3UC H1UC 1_555 1_555
C3AG H1AG 1_555 1_555
C3V C3OD 1_555 1_555
H1V C3OD 1_555 1_555
O1CA Zr1CA 1_555 1_555
C3CA C3TD 1_555 1_555
H1CA C3TD 1_555 1_555
C3OD H1OD 1_555 1_555
C3TD H1TD 1_555 1_555
Zr1CA O2V 1_555 1_555
O2V Zr1CC 1_555 1_555
Zr1BA O2T 1_555 1_555
Zr1BC O2T 1_555 1_555
Zr1BC O2U 1_555 1_555
Zr1CC O2C 1_555 1_555
C4L C5L 1_555 1_555
C5L C4ED 1_555 1_555
C4UB C4LF 1_555 1_555
C4GC C4XF 1_555 1_555
C3L C3ED 1_555 1_555
C3UB C3LF 1_555 1_555
H1UB C3LF 1_555 1_555
C3ED H1ED 1_555 1_555
C3LF H1LF 1_555 1_555
C5B C4UC 1_555 1_555
C4O C5O 1_555 1_555
C5O C4FD 1_555 1_555
C4WB C4NF 1_555 1_555
C4HC C4AG 1_555 1_555
C3O C3FD 1_555 1_555
C3WB C3NF 1_555 1_555
H1WB C3NF 1_555 1_555
C3FD H1FD 1_555 1_555
C3NF H1NF 1_555 1_555
C3D C3WC 1_555 1_555
C3UA C3LE 1_555 1_555
H1UA C3LE 1_555 1_555
C3WC H1WC 1_555 1_555
C3LE H1LE 1_555 1_555
Zr1Y O2D 1_555 1_555
Zr1Y O2S 1_555 1_555
C5D C4WC 1_555 1_555
C4V C5V 1_555 1_555
C5V C4OD 1_555 1_555
C4CA C4TD 1_555 1_555
C4UA C4LE 1_555 1_555

#END
