
#######################################################################
#
#                 Cambridge Crystallographic Data Centre
#                                CCDC 
#
#######################################################################
#
# If this CIF has been generated from an entry in the Cambridge 
# Structural Database, then it will include bibliographic, chemical, 
# crystal, experimental, refinement or atomic coordinate data resulting 
# from the CCDC's data processing and validation procedures.
#
#######################################################################

data_UHISUA
_chemical_formula_moiety         '(C80 H42 Mg15 O76)n,4n(H2 O1)'
_chemical_name_systematic        
'catena-(hexakis(\m~8~-Benzene-1,2,4,5-tetracarboxylato)-bis(\m~7~-hydrogen benzene-1,2,4,5-tetracarboxylato)-dodeca-aqua-pentadeca-magnesium tetrahydrate)'
_symmetry_cell_setting           triclinic
_symmetry_space_group_name_H-M   'P -1'
_symmetry_Int_Tables_number      2
_space_group_name_Hall           '-P 1'
loop_
_symmetry_equiv_pos_site_id
_symmetry_equiv_pos_as_xyz
1 x,y,z
2 -x,-y,-z
_cell_length_a                   10.3976(11)
_cell_length_b                   14.2349(17)
_cell_length_c                   17.490(2)
_cell_angle_alpha                75.880(3)
_cell_angle_beta                 74.787(3)
_cell_angle_gamma                84.955(4)
_cell_volume                     2421.7
_exptl_crystal_colour            colorless
_exptl_crystal_description       columnar
_cell_formula_units_Z            1
loop_
_atom_site_label
_atom_site_type_symbol
_atom_site_fract_x
_atom_site_fract_y
_atom_site_fract_z
Mg1 Mg 0.5000 0.0000 0.0000
Mg2 Mg 0.3153(4) 0.3417(3) 0.48597(19)
Mg3 Mg 0.7186(3) 0.1373(2) 0.01847(17)
Mg4 Mg 0.2108(3) 0.1725(2) 0.01288(17)
Mg5 Mg 0.7087(3) 0.1653(2) -0.48905(17)
Mg6 Mg 0.8046(4) 0.3824(3) -0.5170(2)
Mg7 Mg 0.2117(3) 0.1265(3) 0.52235(18)
Mg8 Mg 0.7990(7) 0.3802(4) -0.0085(3)
O1 O 0.5198(7) 0.1065(5) 0.0577(4)
O2 O 0.7151(8) 0.0234(5) -0.0420(4)
O3 O 0.4859(9) 0.0931(5) -0.1089(4)
O4 O 0.3958(7) 0.2010(5) 0.4701(4)
O5 O 1.1738(7) 0.2508(6) -0.4311(4)
O6 O 0.7201(8) 0.4944(5) -0.4588(4)
O7 O 0.2152(9) 0.3475(5) 0.3980(5)
O8 O 0.4099(7) 0.3443(6) -0.4268(4)
O9 O 0.5540(9) 0.5697(6) -0.3874(5)
O10 O 0.6788(8) 0.2300(6) -0.0804(4)
O11 O 0.6979(7) 0.2561(5) 0.0651(4)
O12 O 0.9195(9) 0.1360(9) -0.0170(4)
O13 O 0.3157(8) 0.1687(6) 0.0993(4)
O14 O 1.1308(7) 0.1472(6) -0.0763(4)
O15 O 0.3724(8) 0.2223(6) -0.0740(4)
O16 O 0.1037(8) 0.2916(5) 0.0243(4)
O17 O 0.8876(10) -0.0611(6) -0.1000(4)
O18 O -0.1480(9) 0.2652(6) 0.4278(4)
O19 O 0.6217(7) 0.3013(5) -0.4701(4)
O20 O 0.8117(7) 0.1540(5) -0.4027(4)
O21 O 0.6103(7) 0.1663(6) 0.4261(4)
O22 O 0.4283(8) -0.0744(5) 0.3919(4)
O23 O 0.2893(10) 0.0160(6) 0.4627(4)
O24 O 0.8694(8) 0.3053(5) -0.4185(4)
O25 O -0.1242(9) 0.1311(6) 0.3973(7)
O26 O 1.1280(8) 0.3763(5) -0.3759(5)
O27 O 0.1442(8) 0.1986(6) 0.4271(4)
O28 O -0.0892(8) 0.3657(6) 0.0725(4)
O29 O 0.1978(9) 0.4794(6) 0.0387(5)
O30 O 0.6214(8) 0.3827(6) 0.1125(5)
O31 O 0.669(2) 0.3843(8) -0.0903(8)
O32 O 0.3820(10) 0.4148(7) 0.0688(7)
H1 H 0.4099 0.4668 0.0689
C1 C 0.4286(9) 0.1452(6) 0.1072(5)
C2 C 0.4591(10) 0.1565(7) 0.1841(5)
C3 C 0.8235(11) 0.0161(7) -0.0977(5)
C4 C 0.4783(9) 0.1698(7) 0.3377(5)
C5 C 0.5028(10) 0.2507(7) -0.2676(5)
H2 H 0.4553 0.2003 -0.2714
C6 C 0.6178(10) 0.2968(7) 0.1188(5)
C7 C 1.0131(10) 0.1460(9) -0.0793(5)
C8 C 0.4975(10) 0.1790(7) 0.4175(5)
C9 C 0.2094(11) 0.3474(8) 0.2315(6)
H3 H 0.2882 0.3728 0.2324
C10 C 0.8819(10) 0.1016(7) -0.1654(5)
C11 C 0.5220(9) 0.3232(6) -0.4165(5)
C12 C 0.9833(10) 0.1528(7) -0.1588(5)
C13 C 0.4058(11) 0.0866(7) 0.2542(5)
H4 H 0.3612 0.0352 0.2496
C14 C 1.0562(10) 0.2144(8) -0.2278(5)
H5 H 1.1289 0.2457 -0.2246
C15 C 0.8593(10) 0.2167(8) -0.3824(6)
C16 C 0.4614(11) 0.1801(8) -0.1192(5)
C17 C 0.3746(11) 0.0068(7) 0.3988(5)
C18 C 0.1754(10) 0.3585(8) 0.1570(5)
C19 C 0.1259(10) 0.2985(7) 0.3042(5)
C20 C 0.0209(10) 0.3267(7) 0.0799(5)
C21 C 0.5342(10) 0.2313(7) 0.1904(5)
C22 C 0.6064(11) 0.3249(8) -0.1897(6)
C23 C -0.0926(11) 0.2142(8) 0.3821(6)
C24 C 0.9105(11) 0.1872(8) -0.3046(5)
C25 C 0.2596(11) 0.4199(8) 0.0822(6)
C26 C 0.1647(10) 0.2810(7) 0.3820(5)
C27 C 0.4170(10) 0.0912(7) 0.3307(5)
C28 C 1.0222(9) 0.2300(7) -0.3009(5)
C29 C 0.5372(10) 0.2386(7) 0.2665(5)
H6 H 0.5797 0.2908 0.2715
C30 C 0.8426(12) 0.1199(8) -0.2374(6)
H7 H 0.7713 0.0874 -0.2409
C31 C -0.0250(11) 0.2711(8) 0.2291(6)
H8 H -0.1036 0.2456 0.2279
C32 C 0.0073(10) 0.2604(7) 0.3026(5)
C33 C 0.5306(10) 0.2514(7) -0.1958(5)
C34 C 1.1120(9) 0.2909(7) -0.3741(5)
C35 C 0.5462(9) 0.3264(7) -0.3353(5)
C36 C 0.6336(12) 0.4049(8) -0.2534(6)
H9 H 0.6716 0.4588 -0.2478
C37 C 0.0580(10) 0.3190(8) 0.1577(5)
C38 C 0.6036(11) 0.4044(8) -0.3267(6)
C39 C 0.6544(13) 0.3142(8) -0.1156(6)
C40 C 0.6251(11) 0.4955(8) -0.3941(6)
O33 O 0.7506(13) 0.0369(8) 0.1214(5)
H10 H 0.6711 0.0186 0.1435
H11 H 0.7866 -0.0153 0.1080
O34 O 0.9734(9) 0.4564(6) -0.5692(5)
H12 H 1.0230 0.4294 -0.6052
H13 H 1.0153 0.4561 -0.5334
O35 O 0.7233(9) 0.4589(6) -0.6132(5)
H14 H 0.7954 0.4865 -0.6415
H15 H 0.6857 0.5094 -0.5986
O36 O 0.0445(9) 0.0522(7) 0.5769(6)
H16 H 0.0576 0.0070 0.6162
H17 H -0.0180 0.0901 0.5944
O37 O 0.2915(10) 0.0502(7) 0.6176(5)
H18 H 0.2667 0.0934 0.6449
H19 H 0.3738 0.0629 0.6067
O38 O 0.9599(18) 0.3602(10) -0.0932(7)
H20 H 0.9839 0.4186 -0.1124
H21 H 1.0229 0.3369 -0.0712
Mg2A Mg 0.6847(4) -0.3417(3) -0.48597(19)
Mg2_2 Mg 1.3153(4) 0.3417(3) -0.51403(19)
Mg2A_2 Mg 0.6847(4) 0.6583(3) -0.48597(19)
Mg2_3 Mg 0.3153(4) 0.3417(3) -0.51403(19)
Mg2A_3 Mg -0.3153(4) -0.3417(3) 0.51403(19)
Mg2_4 Mg 0.3153(4) -0.6583(3) 0.48597(19)
Mg2A_4 Mg 0.6847(4) -0.3417(3) 0.51403(19)
Mg3A Mg 0.2814(3) -0.1373(2) -0.01847(17)
Mg4A Mg 0.7892(3) -0.1725(2) -0.01288(17)
Mg4_2 Mg 1.2108(3) 0.1725(2) 0.01288(17)
Mg4A_2 Mg -0.2108(3) -0.1725(2) -0.01288(17)
Mg4_3 Mg 1.2108(3) 0.1725(2) -0.98712(17)
Mg5A Mg 0.2913(3) -0.1653(2) 0.48905(17)
Mg5_2 Mg -0.2913(3) 0.1653(2) 0.51095(17)
Mg5_3 Mg 0.7087(3) 0.1653(2) 0.51095(17)
Mg5A_2 Mg 0.2913(3) -0.1653(2) -0.51095(17)
Mg6A Mg 0.1954(4) -0.3824(3) 0.5170(2)
Mg6_2 Mg -0.1954(4) 0.3824(3) 0.4830(2)
Mg7A Mg 0.7883(3) -0.1265(3) -0.52235(18)
Mg7_2 Mg 1.2117(3) 0.1265(3) -0.47765(18)
Mg7A_2 Mg -0.2117(3) -0.1265(3) 0.47765(18)
Mg8A Mg 0.2010(7) -0.3802(4) 0.0085(3)
Mg8_2 Mg -0.2010(7) 0.3802(4) -0.0085(3)
Mg8A_2 Mg 0.2010(7) 0.6198(4) 0.0085(3)
Mg8_3 Mg 0.7990(7) 0.3802(4) -1.0085(3)
Mg8A_3 Mg 1.2010(7) 0.6198(4) -0.9915(3)
O1A O 0.4802(7) -0.1065(5) -0.0577(4)
O2A O 0.2849(8) -0.0234(5) 0.0420(4)
O3A O 0.5141(9) -0.0931(5) 0.1089(4)
O4A O 0.6042(7) -0.2010(5) -0.4701(4)
O5A O -0.1738(7) -0.2508(6) 0.4311(4)
O5_2 O 0.1738(7) 0.2508(6) 0.5689(4)
O5A_2 O 0.8262(7) -0.2508(6) -0.5689(4)
O6A O 0.2799(8) -0.4944(5) 0.4588(4)
O6A_2 O 0.2799(8) 0.5056(5) 0.4588(4)
O6_2 O 0.7201(8) -0.5056(5) -0.4588(4)
O7_2 O 1.2152(9) 0.3475(5) -0.6020(5)
O7A O 0.7848(9) -0.3475(5) -0.3980(5)
O8A O 0.5901(7) -0.3443(6) 0.4268(4)
O8_2 O 0.4099(7) 0.3443(6) 0.5732(4)
O8A_2 O 0.5901(7) -0.3443(6) -0.5732(4)
O9A O 0.4460(9) -0.5697(6) 0.3874(5)
O9A_2 O 0.4460(9) 0.4303(6) 0.3874(5)
O9_2 O 0.5540(9) -0.4303(6) -0.3874(5)
O10A O 0.3212(8) -0.2300(6) 0.0804(4)
O11A O 0.3021(7) -0.2561(5) -0.0651(4)
O12A O 0.0805(9) -0.1360(9) 0.0170(4)
O13A O 0.6843(8) -0.1687(6) -0.0993(4)
O14A O -0.1308(7) -0.1472(6) 0.0763(4)
O14_2 O 0.1308(7) 0.1472(6) -0.0763(4)
O14A_2 O 0.8692(7) -0.1472(6) 0.0763(4)
O15A O 0.6276(8) -0.2223(6) 0.0740(4)
O16_2 O 1.1037(8) 0.2916(5) -0.9757(4)
O16A O 0.8963(8) -0.2916(5) -0.0243(4)
O17A O 0.1124(10) 0.0611(6) 0.1000(4)
O18_2 O 0.8520(9) 0.2652(6) -0.5722(4)
O18A O 0.1480(9) -0.2652(6) 0.5722(4)
O19A O 0.3783(7) -0.3013(5) 0.4701(4)
O20A O 0.1883(7) -0.1540(5) 0.4027(4)
O21A O 0.3897(7) -0.1663(6) -0.4261(4)
O21_2 O 0.6103(7) 0.1663(6) -0.5739(4)
O21A_2 O 0.3897(7) -0.1663(6) 0.5739(4)
O22A O 0.5717(8) 0.0744(5) -0.3919(4)
O23A O 0.7107(10) -0.0160(6) -0.4627(4)
O24A O 0.1306(8) -0.3053(5) 0.4185(4)
O25_2 O 0.8758(9) 0.1311(6) -0.6027(7)
O25A O 0.1242(9) -0.1311(6) 0.6027(7)
O26A O -0.1280(8) -0.3763(5) 0.3759(5)
O27_2 O 1.1442(8) 0.1986(6) -0.5729(4)
O27A O 0.8558(8) -0.1986(6) -0.4271(4)
O28_2 O 0.9108(8) 0.3657(6) -0.9275(4)
O28_3 O 0.9108(8) 0.3657(6) 0.0725(4)
O28A O 0.0892(8) -0.3657(6) -0.0725(4)
O29_2 O 1.1978(9) 0.4794(6) -0.9613(5)
O29A O 0.8022(9) 0.5206(6) -0.0387(5)
O29_3 O 0.1978(9) -0.5206(6) 0.0387(5)
O30A O 0.3786(8) -0.3827(6) -0.1125(5)
O31A O 0.331(2) -0.3843(8) 0.0903(8)
O32_2 O 1.3820(10) 0.4148(7) -0.9312(7)
H1_2 H 1.4099 0.4668 -0.9311
C1A C 0.5714(9) -0.1452(6) -0.1072(5)
C2A C 0.5409(10) -0.1565(7) -0.1841(5)
C3A C 0.1765(11) -0.0161(7) 0.0977(5)
C4A C 0.5217(9) -0.1698(7) -0.3377(5)
C5A C 0.4972(10) -0.2507(7) 0.2676(5)
H2A H 0.5447 -0.2003 0.2714
C6A C 0.3822(10) -0.2968(7) -0.1188(5)
C7A C -0.0131(10) -0.1460(9) 0.0793(5)
C8A C 0.5025(10) -0.1790(7) -0.4175(5)
C9_2 C 1.2094(11) 0.3474(8) -0.7685(6)
H3_2 H 1.2882 0.3728 -0.7676
C10A C 0.1181(10) -0.1016(7) 0.1654(5)
C11A C 0.4780(9) -0.3232(6) 0.4165(5)
C12A C 0.0167(10) -0.1528(7) 0.1588(5)
C13A C 0.5942(11) -0.0866(7) -0.2542(5)
H4A H 0.6388 -0.0352 -0.2496
C14A C -0.0562(10) -0.2144(8) 0.2278(5)
H5A H -0.1289 -0.2457 0.2246
C15A C 0.1407(10) -0.2167(8) 0.3824(6)
C16A C 0.5386(11) -0.1801(8) 0.1192(5)
C17A C 0.6254(11) -0.0068(7) -0.3988(5)
C18_2 C 1.1754(10) 0.3585(8) -0.8430(5)
C19_2 C 1.1259(10) 0.2985(7) -0.6958(5)
C20_2 C 1.0209(10) 0.3267(7) -0.9201(5)
C21A C 0.4658(10) -0.2313(7) -0.1904(5)
C22A C 0.3936(11) -0.3249(8) 0.1897(6)
C23_2 C 0.9074(11) 0.2142(8) -0.6179(6)
C24A C 0.0895(11) -0.1872(8) 0.3046(5)
C25_2 C 1.2596(11) 0.4199(8) -0.9178(6)
C26_2 C 1.1647(10) 0.2810(7) -0.6180(5)
C27A C 0.5830(10) -0.0912(7) -0.3307(5)
C28A C -0.0222(9) -0.2300(7) 0.3009(5)
C29A C 0.4628(10) -0.2386(7) -0.2665(5)
H6A H 0.4203 -0.2908 -0.2715
C30A C 0.1574(12) -0.1199(8) 0.2374(6)
H7A H 0.2287 -0.0874 0.2409
C31_2 C 0.9750(11) 0.2711(8) -0.7709(6)
H8_2 H 0.8964 0.2456 -0.7721
C32_2 C 1.0073(10) 0.2604(7) -0.6974(5)
C33A C 0.4694(10) -0.2514(7) 0.1958(5)
C34A C -0.1120(9) -0.2909(7) 0.3741(5)
C35A C 0.4538(9) -0.3264(7) 0.3353(5)
C36A C 0.3664(12) -0.4049(8) 0.2534(6)
H9A H 0.3284 -0.4588 0.2478
C37_2 C 1.0580(10) 0.3190(8) -0.8423(5)
C38A C 0.3964(11) -0.4044(8) 0.3267(6)
C39A C 0.3456(13) -0.3142(8) 0.1156(6)
C40A C 0.3749(11) -0.4955(8) 0.3941(6)
O33A O 0.2494(13) -0.0369(8) -0.1214(5)
H10A H 0.3289 -0.0186 -0.1435
H11A H 0.2134 0.0153 -0.1080
O34A O 0.0266(9) -0.4564(6) 0.5692(5)
H12A H -0.0230 -0.4294 0.6052
H13A H -0.0153 -0.4561 0.5334
O35A O 0.2767(9) -0.4589(6) 0.6132(5)
H14A H 0.2046 -0.4865 0.6415
H15A H 0.3143 -0.5094 0.5986
O36A O 0.9555(9) -0.0522(7) -0.5769(6)
H16A H 0.9424 -0.0070 -0.6162
H17A H 1.0180 -0.0901 -0.5944
O37A O 0.7085(10) -0.0502(7) -0.6176(5)
H18A H 0.7333 -0.0934 -0.6449
H19A H 0.6262 -0.0629 -0.6067
O38A O 0.0401(18) -0.3602(10) 0.0932(7)
H20A H 0.0161 -0.4186 0.1124
H21A H -0.0229 -0.3369 0.0712
O39 O 0.4743(7) 0.4884(5) -0.0593(4)
H22 H 0.5071 0.4373 -0.0337
H23 H 0.4124 0.5060 -0.0216
O40 O 0.355(2) 0.4239(19) -0.1105(15)
H24 H 0.2852 0.3949 -0.0817
H25 H 0.4328 0.4146 -0.1068
loop_
_geom_bond_atom_site_label_1
_geom_bond_atom_site_label_2
_geom_bond_site_symmetry_1
_geom_bond_site_symmetry_2
Mg1 O1 1_555 1_555
Mg2 O4 1_555 1_555
Mg3 O1 1_555 1_555
Mg4 O13 1_555 1_555
Mg5 O19 1_555 1_555
Mg6 O6 1_555 1_555
Mg7 O4 1_555 1_555
Mg8 O11 1_555 1_555
O1 C1 1_555 1_555
O2 Mg1 1_555 1_555
O3 Mg1 1_555 1_555
O4 C8 1_555 1_555
O5 C34 1_555 1_555
O6 C40 1_555 1_555
O7 Mg2 1_555 1_555
O8 C11 1_555 1_555
O9 C40 1_555 1_555
O10 Mg3 1_555 1_555
O11 Mg3 1_555 1_555
O12 Mg3 1_555 1_555
O13 C1 1_555 1_555
O14 C7 1_555 1_555
O15 Mg4 1_555 1_555
O16 Mg4 1_555 1_555
O17 C3 1_555 1_555
O18 C23 1_555 1_555
O19 Mg6 1_555 1_555
O20 Mg5 1_555 1_555
O21 C8 1_555 1_555
O22 C17 1_555 1_555
O23 Mg7 1_555 1_555
O24 Mg6 1_555 1_555
O25 C23 1_555 1_555
O26 C34 1_555 1_555
O27 Mg7 1_555 1_555
O28 C20 1_555 1_555
O29 C25 1_555 1_555
O30 Mg8 1_555 1_555
O31 Mg8 1_555 1_555
O32 H1 1_555 1_555
C1 C2 1_555 1_555
C2 C13 1_555 1_555
C3 O2 1_555 1_555
C4 C8 1_555 1_555
C5 H2 1_555 1_555
C6 O11 1_555 1_555
C7 O12 1_555 1_555
C9 H3 1_555 1_555
C10 C3 1_555 1_555
C11 O19 1_555 1_555
C12 C7 1_555 1_555
C13 H4 1_555 1_555
C14 C12 1_555 1_555
H5 C14 1_555 1_555
C15 O20 1_555 1_555
C16 O3 1_555 1_555
C17 O23 1_555 1_555
C18 C9 1_555 1_555
C19 C9 1_555 1_555
C20 O16 1_555 1_555
C21 C2 1_555 1_555
C22 C33 1_555 1_555
C23 C32 1_555 1_555
C24 C15 1_555 1_555
C25 O32 1_555 1_555
C26 O7 1_555 1_555
C27 C4 1_555 1_555
C28 C14 1_555 1_555
C29 C4 1_555 1_555
H6 C29 1_555 1_555
C30 C10 1_555 1_555
H7 C30 1_555 1_555
C31 H8 1_555 1_555
C32 C19 1_555 1_555
C33 C5 1_555 1_555
C34 C28 1_555 1_555
C35 C5 1_555 1_555
C36 C22 1_555 1_555
H9 C36 1_555 1_555
C37 C18 1_555 1_555
C38 C35 1_555 1_555
C39 O10 1_555 1_555
C40 C38 1_555 1_555
O33 Mg3 1_555 1_555
H10 O33 1_555 1_555
H11 O33 1_555 1_555
O34 Mg6 1_555 1_555
H12 O34 1_555 1_555
H13 O34 1_555 1_555
O35 Mg6 1_555 1_555
H14 O35 1_555 1_555
H15 O35 1_555 1_555
O36 Mg7 1_555 1_555
H16 O36 1_555 1_555
H17 O36 1_555 1_555
O37 Mg7 1_555 1_555
H18 O37 1_555 1_555
H19 O37 1_555 1_555
O38 Mg8 1_555 1_555
H20 O38 1_555 1_555
H21 O38 1_555 1_555
O39 H22 1_555 1_555
H23 O39 1_555 1_555
O40 H24 1_555 1_555
H25 O40 1_555 1_555
Mg2A O4A 1_555 1_555
Mg2_2 O5 1_555 1_555
Mg2A_2 O6 1_555 1_555
Mg2_3 O8 1_555 1_555
Mg2A_3 O5A 1_555 1_555
Mg2_4 O6A 1_555 1_555
Mg2A_4 O8A 1_555 1_555
Mg3A O1A 1_555 1_555
Mg4A O17 1_555 1_555
Mg4_2 O14 1_555 1_555
Mg4A_2 O14A 1_555 1_555
Mg4_3 O16_2 1_555 1_555
Mg5A O22 1_555 1_555
Mg5_2 O18 1_555 1_555
Mg5_3 O21 1_555 1_555
Mg5A_2 O21A 1_555 1_555
Mg6A O6A 1_555 1_555
Mg6_2 O18 1_555 1_555
Mg7A O4A 1_555 1_555
Mg7_2 O5 1_555 1_555
Mg7A_2 O5A 1_555 1_555
Mg8A O11A 1_555 1_555
Mg8_2 O28 1_555 1_555
Mg8A_2 O29 1_555 1_555
Mg8_3 O28_2 1_555 1_555
Mg8A_3 O29_2 1_555 1_555
O1A Mg1 1_555 1_555
O2A Mg1 1_555 1_555
O3A Mg1 1_555 1_555
O4A C8A 1_555 1_555
O5A C34A 1_555 1_555
O5_2 Mg2 1_555 1_555
O5A_2 Mg2A 1_555 1_555
O6A C40A 1_555 1_555
O6A_2 Mg2 1_555 1_555
O6_2 Mg2A 1_555 1_555
O7_2 Mg2_2 1_555 1_555
O7A Mg2A 1_555 1_555
O8A C11A 1_555 1_555
O8_2 Mg2 1_555 1_555
O8A_2 Mg2A 1_555 1_555
O9A Mg2_4 1_555 1_555
O9A_2 Mg2 1_555 1_555
O9_2 Mg2A 1_555 1_555
O10A Mg3A 1_555 1_555
O11A Mg3A 1_555 1_555
O12A Mg3A 1_555 1_555
O13A Mg4A 1_555 1_555
O14A C7A 1_555 1_555
O14_2 Mg4 1_555 1_555
O14A_2 Mg4A 1_555 1_555
O15A Mg4A 1_555 1_555
O16_2 C20_2 1_555 1_555
O16A Mg4A 1_555 1_555
O17A Mg4 1_555 1_555
O18_2 Mg5 1_555 1_555
O18A Mg5A 1_555 1_555
O19A Mg5A 1_555 1_555
O20A Mg5A 1_555 1_555
O21A C8A 1_555 1_555
O21_2 Mg5 1_555 1_555
O21A_2 Mg5A 1_555 1_555
O22A Mg5 1_555 1_555
O23A Mg7A 1_555 1_555
O24A Mg6A 1_555 1_555
O25_2 Mg5 1_555 1_555
O25A Mg5A 1_555 1_555
O26A C34A 1_555 1_555
O27_2 Mg7_2 1_555 1_555
O27A Mg7A 1_555 1_555
O28_2 C20_2 1_555 1_555
O28_3 Mg8 1_555 1_555
O28A Mg8A 1_555 1_555
O29_2 C25_2 1_555 1_555
O29A Mg8 1_555 1_555
O29_3 Mg8A 1_555 1_555
O30A Mg8A 1_555 1_555
O31A Mg8A 1_555 1_555
O32_2 H1_2 1_555 1_555
C1A O1A 1_555 1_555
C2A C1A 1_555 1_555
C3A O2A 1_555 1_555
C4A C8A 1_555 1_555
C5A H2A 1_555 1_555
C6A O11A 1_555 1_555
C7A O12A 1_555 1_555
C9_2 H3_2 1_555 1_555
C10A C3A 1_555 1_555
C11A O19A 1_555 1_555
C12A C7A 1_555 1_555
C13A C2A 1_555 1_555
H4A C13A 1_555 1_555
C14A C12A 1_555 1_555
H5A C14A 1_555 1_555
C15A O20A 1_555 1_555
C16A O3A 1_555 1_555
C17A O22A 1_555 1_555
C18_2 C9_2 1_555 1_555
C19_2 C9_2 1_555 1_555
C20_2 C37_2 1_555 1_555
C21A C2A 1_555 1_555
C22A C33A 1_555 1_555
C23_2 O18_2 1_555 1_555
C24A C15A 1_555 1_555
C25_2 O32_2 1_555 1_555
C26_2 O7_2 1_555 1_555
C27A C4A 1_555 1_555
C28A C14A 1_555 1_555
C29A C4A 1_555 1_555
H6A C29A 1_555 1_555
C30A C10A 1_555 1_555
H7A C30A 1_555 1_555
C31_2 H8_2 1_555 1_555
C32_2 C19_2 1_555 1_555
C33A C5A 1_555 1_555
C34A C28A 1_555 1_555
C35A C5A 1_555 1_555
C36A C22A 1_555 1_555
H9A C36A 1_555 1_555
C37_2 C18_2 1_555 1_555
C38A C35A 1_555 1_555
C39A O10A 1_555 1_555
C40A O9A 1_555 1_555
O33A Mg3A 1_555 1_555
H10A O33A 1_555 1_555
H11A O33A 1_555 1_555
O34A Mg6A 1_555 1_555
H12A O34A 1_555 1_555
H13A O34A 1_555 1_555
O35A Mg6A 1_555 1_555
H14A O35A 1_555 1_555
H15A O35A 1_555 1_555
O36A Mg7A 1_555 1_555
H16A O36A 1_555 1_555
H17A O36A 1_555 1_555
O37A Mg7A 1_555 1_555
H18A O37A 1_555 1_555
H19A O37A 1_555 1_555
O38A Mg8A 1_555 1_555
H20A O38A 1_555 1_555
H21A O38A 1_555 1_555
Mg3 O2 1_555 1_555
Mg6 O18_2 1_555 1_555
Mg7 O5_2 1_555 1_555
O9 Mg2A_2 1_555 1_555
O15 C16 1_555 1_555
O24 C15 1_555 1_555
O25 Mg5_2 1_555 1_555
O27 C26 1_555 1_555
O30 C6 1_555 1_555
O31 C39 1_555 1_555
C6 C21 1_555 1_555
C10 C12 1_555 1_555
C11 C35 1_555 1_555
C13 C27 1_555 1_555
C16 C33 1_555 1_555
C17 C27 1_555 1_555
C18 C25 1_555 1_555
C19 C26 1_555 1_555
C20 C37 1_555 1_555
C21 C29 1_555 1_555
C22 C39 1_555 1_555
C24 C28 1_555 1_555
C24 C30 1_555 1_555
C31 C32 1_555 1_555
C31 C37 1_555 1_555
C36 C38 1_555 1_555
Mg3A O2A 1_555 1_555
Mg6A O18A 1_555 1_555
Mg6A O19A 1_555 1_555
Mg7A O5A_2 1_555 1_555
O13A C1A 1_555 1_555
O15A C16A 1_555 1_555
O17A C3A 1_555 1_555
O23A C17A 1_555 1_555
O24A C15A 1_555 1_555
O25_2 C23_2 1_555 1_555
O27_2 C26_2 1_555 1_555
O30A C6A 1_555 1_555
O31A C39A 1_555 1_555
C6A C21A 1_555 1_555
C10A C12A 1_555 1_555
C11A C35A 1_555 1_555
C13A C27A 1_555 1_555
C16A C33A 1_555 1_555
C17A C27A 1_555 1_555
C18_2 C25_2 1_555 1_555
C19_2 C26_2 1_555 1_555
C21A C29A 1_555 1_555
C22A C39A 1_555 1_555
C23_2 C32_2 1_555 1_555
C24A C28A 1_555 1_555
C24A C30A 1_555 1_555
C31_2 C32_2 1_555 1_555
C31_2 C37_2 1_555 1_555
C36A C38A 1_555 1_555
C38A C40A 1_555 1_555

#END
