
#######################################################################
#
#                 Cambridge Crystallographic Data Centre
#                                CCDC 
#
#######################################################################
#
# If this CIF has been generated from an entry in the Cambridge 
# Structural Database, then it will include bibliographic, chemical, 
# crystal, experimental, refinement or atomic coordinate data resulting 
# from the CCDC's data processing and validation procedures.
#
#######################################################################

data_ORUSUQ
_chemical_formula_moiety         '(C36 H24 Co3 N8 O14)n,2n(H2 O1)'
_chemical_name_systematic        
'catena-((\m~6~-benzene-1,2,4,5-tetracarboxylato)-bis(\m~4~-3,5-bis(imidazol-1-yl)benzoato)-diaqua-tri-cobalt(ii) dihydrate)'
_symmetry_cell_setting           triclinic
_symmetry_space_group_name_H-M   'P -1'
_symmetry_Int_Tables_number      2
_space_group_name_Hall           '-P 1'
loop_
_symmetry_equiv_pos_site_id
_symmetry_equiv_pos_as_xyz
1 x,y,z
2 -x,-y,-z
_cell_length_a                   8.550(4)
_cell_length_b                   10.077(3)
_cell_length_c                   11.255(4)
_cell_angle_alpha                77.672(13)
_cell_angle_beta                 73.974(17)
_cell_angle_gamma                88.701(17)
_cell_volume                     909.855
_exptl_crystal_colour            red
_exptl_crystal_description       block
_cell_formula_units_Z            1
loop_
_atom_site_label
_atom_site_type_symbol
_atom_site_fract_x
_atom_site_fract_y
_atom_site_fract_z
Co1 Co 1.0000 0.0000 0.0000
Co2 Co 0.99323(3) -0.23263(2) -0.137750(19)
O1 O 0.93401(15) -0.02767(12) -0.15614(11)
O2 O 0.8417(2) 0.1426(2) -0.27428(18)
O3 O 0.86081(15) 0.17322(13) 0.02266(12)
O4 O 0.65463(19) 0.31130(16) 0.05526(18)
O5 O 1.19461(16) 0.29828(13) -0.02519(12)
O6 O 1.18705(15) 0.12698(13) -0.12251(11)
O7 O 1.1033(2) -0.42256(15) -0.11099(17)
H1 H 1.071(4) -0.479(3) -0.083(3)
H2 H 1.196(4) -0.402(3) -0.094(3)
N1 N 1.66420(19) 0.21049(15) -0.50907(14)
N2 N 1.81232(19) 0.17935(16) -0.69428(14)
N3 N 1.69782(19) 0.58337(15) -0.30931(14)
N4 N 1.8451(2) 0.71303(16) -0.24397(15)
C1 C 1.5940(2) 0.28155(18) -0.41105(16)
C2 C 1.6722(2) 0.40041(19) -0.41061(17)
H5 H 1.7643 0.4360 -0.4754
C3 C 1.6100(2) 0.46505(18) -0.31147(16)
C4 C 1.4736(2) 0.41337(17) -0.21343(16)
H6 H 1.4342 0.4573 -0.1470
C5 C 1.3969(2) 0.29453(17) -0.21645(15)
C6 C 1.4569(2) 0.22809(17) -0.31509(16)
H7 H 1.4054 0.1484 -0.3165
C7 C 1.7437(2) 0.27007(19) -0.62931(17)
H8 H 1.7495 0.3632 -0.6622
C8 C 1.7749(2) 0.05540(19) -0.61144(18)
H9 H 1.8074 -0.0279 -0.6311
C9 C 1.6838(3) 0.0726(2) -0.49693(19)
H10 H 1.6428 0.0051 -0.4247
C10 C 1.7450(2) 0.60602(19) -0.21058(17)
H11 H 1.7110 0.5527 -0.1290
C11 C 1.8626(3) 0.7615(2) -0.3714(2)
H12 H 1.9264 0.8375 -0.4214
C12 C 1.7735(3) 0.6824(2) -0.4127(2)
H13 H 1.7648 0.6928 -0.4948
C13 C 1.2468(2) 0.23478(16) -0.11261(15)
C14 C 0.6554(2) 0.02566(19) -0.08539(17)
C15 C 0.6042(2) 0.09995(19) 0.00933(17)
C16 C 0.5515(2) -0.07397(19) -0.09289(17)
H14 H 0.5864 -0.1245 -0.1549
C17 C 0.8211(2) 0.0517(2) -0.18158(17)
C18 C 0.7123(2) 0.20361(19) 0.03014(17)
Co1_2 Co 0.0000 0.0000 0.0000
Co2A Co 0.00677(3) 0.23263(2) 0.137750(19)
Co2A_2 Co 1.00677(3) 0.23263(2) 0.137750(19)
Co2A_3 Co 2.00677(3) 0.23263(2) -0.862250(19)
Co2_2 Co 1.99323(3) 0.76737(2) -0.137750(19)
Co2_3 Co -0.00677(3) -0.23263(2) -0.137750(19)
Co2_4 Co -0.00677(3) -0.23263(2) 0.862250(19)
Co2A_4 Co 0.00677(3) -0.76737(2) 0.137750(19)
O1A O 0.06599(15) 0.02767(12) 0.15614(11)
O1A_2 O 1.06599(15) 0.02767(12) 0.15614(11)
O2A O 0.1583(2) -0.1426(2) 0.27428(18)
O3A O 0.13919(15) -0.17322(13) -0.02266(12)
O3A_2 O 1.13919(15) -0.17322(13) -0.02266(12)
O3_2 O -0.13919(15) 0.17322(13) 0.02266(12)
O4A O 0.34537(19) -0.31130(16) -0.05526(18)
O5A O 0.80539(16) -0.29828(13) 0.02519(12)
O5_2 O 0.19461(16) 0.29828(13) -0.02519(12)
O6A O 0.81295(15) -0.12698(13) 0.12251(11)
O7A O -0.1033(2) 0.42256(15) 0.11099(17)
H1A H -0.071(4) 0.479(3) 0.083(3)
H2A H -0.196(4) 0.402(3) 0.094(3)
N1A N 0.33580(19) -0.21049(15) 0.50907(14)
N2A N 0.18768(19) -0.17935(16) 0.69428(14)
N2A_2 N 1.18768(19) -0.17935(16) -0.30572(14)
N2_2 N -0.18768(19) 0.17935(16) 0.30572(14)
N3A N 0.30218(19) -0.58337(15) 0.30931(14)
N4A N 0.1549(2) -0.71303(16) 0.24397(15)
N4_2 N 0.8451(2) -0.28697(16) -0.24397(15)
N4A_2 N 0.1549(2) 0.28697(16) 0.24397(15)
C1A C 0.4060(2) -0.28155(18) 0.41105(16)
C2A C 0.3278(2) -0.40041(19) 0.41061(17)
H5A H 0.2357 -0.4360 0.4754
C3A C 0.3900(2) -0.46505(18) 0.31147(16)
C4A C 0.5264(2) -0.41337(17) 0.21343(16)
H6A H 0.5658 -0.4573 0.1470
C5A C 0.6031(2) -0.29453(17) 0.21645(15)
C6A C 0.5431(2) -0.22809(17) 0.31509(16)
H7A H 0.5946 -0.1484 0.3165
C7A C 0.2563(2) -0.27007(19) 0.62931(17)
H8A H 0.2505 -0.3632 0.6622
C8A C 0.2251(2) -0.05540(19) 0.61144(18)
H9A H 0.1926 0.0279 0.6311
C9A C 0.3162(3) -0.0726(2) 0.49693(19)
H10A H 0.3572 -0.0051 0.4247
C10A C 0.2550(2) -0.60602(19) 0.21058(17)
H11A H 0.2890 -0.5527 0.1290
C11A C 0.1374(3) -0.7615(2) 0.3714(2)
H12A H 0.0736 -0.8375 0.4214
C12A C 0.2265(3) -0.6824(2) 0.4127(2)
H13A H 0.2352 -0.6928 0.4948
C13A C 0.7532(2) -0.23478(16) 0.11261(15)
C14A C 0.3446(2) -0.02566(19) 0.08539(17)
C15A C 0.3958(2) -0.09995(19) -0.00933(17)
C16A C 0.4485(2) 0.07397(19) 0.09289(17)
H14A H 0.4136 0.1245 0.1549
C17A C 0.1789(2) -0.0517(2) 0.18158(17)
C18A C 0.2877(2) -0.20361(19) -0.03014(17)
O8 O 0.9593(4) 0.6028(4) 0.2996(4)
H3 H 1.010(7) 0.684(6) 0.291(5)
H4 H 1.005(7) 0.629(6) 0.216(5)
loop_
_geom_bond_atom_site_label_1
_geom_bond_atom_site_label_2
_geom_bond_site_symmetry_1
_geom_bond_site_symmetry_2
Co1 O1 1_555 1_555
Co2 O1 1_555 1_555
O1 C17 1_555 1_555
O2 C17 1_555 1_555
O3 Co1 1_555 1_555
O4 C18 1_555 1_555
O5 C13 1_555 1_555
O6 Co1 1_555 1_555
O7 Co2 1_555 1_555
H1 O7 1_555 1_555
H2 O7 1_555 1_555
O8 H3 1_555 1_555
H4 O8 1_555 1_555
N1 C1 1_555 1_555
N2 C7 1_555 1_555
N3 C3 1_555 1_555
N4 C10 1_555 1_555
C1 C2 1_555 1_555
C2 H5 1_555 1_555
C3 C2 1_555 1_555
C4 C3 1_555 1_555
H6 C4 1_555 1_555
C5 C4 1_555 1_555
C6 C1 1_555 1_555
H7 C6 1_555 1_555
C7 N1 1_555 1_555
H8 C7 1_555 1_555
C8 N2 1_555 1_555
H9 C8 1_555 1_555
C9 N1 1_555 1_555
H10 C9 1_555 1_555
C10 N3 1_555 1_555
H11 C10 1_555 1_555
C11 N4 1_555 1_555
H12 C11 1_555 1_555
C12 N3 1_555 1_555
H13 C12 1_555 1_555
C13 O6 1_555 1_555
C14 C15 1_555 1_555
C15 C18 1_555 1_555
C16 C14 1_555 1_555
H14 C16 1_555 1_555
C17 C14 1_555 1_555
C18 O3 1_555 1_555
Co1_2 O1A 1_555 1_555
Co2A O1A 1_555 1_555
Co2A_2 O3 1_555 1_555
Co2A_3 N2 1_555 1_555
Co2_2 N4 1_555 1_555
Co2_3 O3A 1_555 1_555
Co2_4 N2A 1_555 1_555
Co2A_4 N4A 1_555 1_555
O1A C17A 1_555 1_555
O1A_2 Co1 1_555 1_555
O2A C17A 1_555 1_555
O3A Co1_2 1_555 1_555
O3A_2 Co1 1_555 1_555
O3_2 Co1_2 1_555 1_555
O4A C18A 1_555 1_555
O5A Co2 1_555 1_555
O5_2 Co2A 1_555 1_555
O6A Co1 1_555 1_555
O7A Co2A 1_555 1_555
H1A O7A 1_555 1_555
H2A O7A 1_555 1_555
N1A C1A 1_555 1_555
N2A C7A 1_555 1_555
N2A_2 Co2 1_555 1_555
N2_2 Co2A 1_555 1_555
N3A C3A 1_555 1_555
N4A C10A 1_555 1_555
N4_2 Co2 1_555 1_555
N4A_2 Co2A 1_555 1_555
C1A C2A 1_555 1_555
C2A H5A 1_555 1_555
C3A C2A 1_555 1_555
C4A C3A 1_555 1_555
H6A C4A 1_555 1_555
C5A C4A 1_555 1_555
C6A C1A 1_555 1_555
H7A C6A 1_555 1_555
C7A N1A 1_555 1_555
H8A C7A 1_555 1_555
C8A N2A 1_555 1_555
H9A C8A 1_555 1_555
C9A N1A 1_555 1_555
H10A C9A 1_555 1_555
C10A N3A 1_555 1_555
H11A C10A 1_555 1_555
C11A N4A 1_555 1_555
H12A C11A 1_555 1_555
C12A N3A 1_555 1_555
H13A C12A 1_555 1_555
C13A O5A 1_555 1_555
C14A C15A 1_555 1_555
C15A C16 1_555 1_555
C16A C15 1_555 1_555
H14A C16A 1_555 1_555
C17A C14A 1_555 1_555
C18A O3A 1_555 1_555
Co2 O3A_2 1_555 1_555
O5 Co2A_2 1_555 1_555
C5 C6 1_555 1_555
C5 C13 1_555 1_555
C8 C9 1_555 1_555
C11 C12 1_555 1_555
Co2A O3_2 1_555 1_555
Co2A_2 O1A_2 1_555 1_555
O6A C13A 1_555 1_555
C5A C6A 1_555 1_555
C5A C13A 1_555 1_555
C8A C9A 1_555 1_555
C11A C12A 1_555 1_555
C14A C16A 1_555 1_555
C15A C18A 1_555 1_555

#END
