
#######################################################################
#
#                 Cambridge Crystallographic Data Centre
#                                CCDC 
#
#######################################################################
#
# If this CIF has been generated from an entry in the Cambridge 
# Structural Database, then it will include bibliographic, chemical, 
# crystal, experimental, refinement or atomic coordinate data resulting 
# from the CCDC's data processing and validation procedures.
#
#######################################################################

data_FOTNIN
_chemical_name_common            PCN-777
_chemical_formula_moiety         '(C48 H46 N6 O32 Zr6)n,90(H2 O1)'
_chemical_name_systematic        
"catena-[bis(\m-4,4',4''-s-triazine-2,4,6-triyl-tribenzoato)-tetrakis(\m-hydroxo)-tetrakis(\m-oxo)-hexakis(hydroxo)-hexa-aqua-hexa-zirconium nonacontahydrate]"
_symmetry_cell_setting           cubic
_symmetry_space_group_name_H-M   'F -4 3 m'
_symmetry_Int_Tables_number      216
_space_group_name_Hall           'F -4 2 3'
loop_
_symmetry_equiv_pos_site_id
_symmetry_equiv_pos_as_xyz
1 x,y,z
2 y,-x,-z
3 -x,-y,z
4 -y,x,-z
5 -x,z,-y
6 x,-y,-z
7 -x,-z,y
8 -z,-y,x
9 -x,y,-z
10 z,-y,-x
11 z,x,y
12 y,z,x
13 -y,-z,x
14 z,-x,-y
15 -y,z,-x
16 -z,-x,y
17 -z,x,-y
18 y,-z,-x
19 -y,-x,z
20 y,x,z
21 x,-z,-y
22 x,z,y
23 -z,y,-x
24 z,y,x
25 x,1/2+y,1/2+z
26 1/2+x,y,1/2+z
27 1/2+x,1/2+y,z
28 y,1/2-x,1/2-z
29 1/2+y,-x,1/2-z
30 1/2+y,1/2-x,-z
31 -x,1/2-y,1/2+z
32 1/2-x,-y,1/2+z
33 1/2-x,1/2-y,z
34 -y,1/2+x,1/2-z
35 1/2-y,x,1/2-z
36 1/2-y,1/2+x,-z
37 -x,1/2+z,1/2-y
38 1/2-x,z,1/2-y
39 1/2-x,1/2+z,-y
40 x,1/2-y,1/2-z
41 1/2+x,-y,1/2-z
42 1/2+x,1/2-y,-z
43 -x,1/2-z,1/2+y
44 1/2-x,-z,1/2+y
45 1/2-x,1/2-z,y
46 -z,1/2-y,1/2+x
47 1/2-z,-y,1/2+x
48 1/2-z,1/2-y,x
49 -x,1/2+y,1/2-z
50 1/2-x,y,1/2-z
51 1/2-x,1/2+y,-z
52 z,1/2-y,1/2-x
53 1/2+z,-y,1/2-x
54 1/2+z,1/2-y,-x
55 z,1/2+x,1/2+y
56 1/2+z,x,1/2+y
57 1/2+z,1/2+x,y
58 y,1/2+z,1/2+x
59 1/2+y,z,1/2+x
60 1/2+y,1/2+z,x
61 -y,1/2-z,1/2+x
62 1/2-y,-z,1/2+x
63 1/2-y,1/2-z,x
64 z,1/2-x,1/2-y
65 1/2+z,-x,1/2-y
66 1/2+z,1/2-x,-y
67 -y,1/2+z,1/2-x
68 1/2-y,z,1/2-x
69 1/2-y,1/2+z,-x
70 -z,1/2-x,1/2+y
71 1/2-z,-x,1/2+y
72 1/2-z,1/2-x,y
73 -z,1/2+x,1/2-y
74 1/2-z,x,1/2-y
75 1/2-z,1/2+x,-y
76 y,1/2-z,1/2-x
77 1/2+y,-z,1/2-x
78 1/2+y,1/2-z,-x
79 -y,1/2-x,1/2+z
80 1/2-y,-x,1/2+z
81 1/2-y,1/2-x,z
82 y,1/2+x,1/2+z
83 1/2+y,x,1/2+z
84 1/2+y,1/2+x,z
85 x,1/2-z,1/2-y
86 1/2+x,-z,1/2-y
87 1/2+x,1/2-z,-y
88 x,1/2+z,1/2+y
89 1/2+x,z,1/2+y
90 1/2+x,1/2+z,y
91 -z,1/2+y,1/2-x
92 1/2-z,y,1/2-x
93 1/2-z,1/2+y,-x
94 z,1/2+y,1/2+x
95 1/2+z,y,1/2+x
96 1/2+z,1/2+y,x
_cell_length_a                   55.5686(2)
_cell_length_b                   55.5686(2)
_cell_length_c                   55.5686(2)
_cell_angle_alpha                90
_cell_angle_beta                 90
_cell_angle_gamma                90
_cell_volume                     171589
_exptl_crystal_colour            colorless
_exptl_crystal_description       Octahedron
_cell_formula_units_Z            16
loop_
_atom_site_label
_atom_site_type_symbol
_atom_site_fract_x
_atom_site_fract_y
_atom_site_fract_z
Zr1 Zr 0.654450 0.109000 0.345550
Zr2 Zr 0.640520 0.095180 0.404820
O1 O 0.631840 0.086840 0.368160
O2 O 0.662730 0.117520 0.382480
O3 O 0.646450 0.146450 0.353550
O4 O 0.603180 0.103180 0.396820
O5 O 0.678930 0.079290 0.351110
O6 O 0.665370 0.065530 0.404820
O7 O 0.657820 0.128750 0.312220
C1 C 0.646070 0.146070 0.302090
C2 C 0.653570 0.153570 0.277460
C3 C 0.673120 0.142190 0.265870
C4 C 0.681520 0.150600 0.243590
C5 C 0.670600 0.170600 0.232350
C6 C 0.680680 0.180680 0.209650
N1 N 0.670810 0.199530 0.199530
H1 H 0.682330 0.127100 0.274250
H2 H 0.696920 0.141690 0.235440
O8 O 0.619630 0.090560 0.436630
C7 C 0.602310 0.102310 0.446760
C8 C 0.594810 0.094810 0.471390
C9 C 0.606190 0.075260 0.482980
C10 C 0.597780 0.066860 0.505260
C11 C 0.577780 0.077780 0.516500
C12 C 0.567700 0.067700 0.539200
N2 N 0.549320 0.077570 0.549320
H3 H 0.621280 0.066050 0.474600
H4 H 0.606690 0.051460 0.513410
O7U O 0.657820 0.312220 0.128750
C1U C 0.646070 0.302090 0.146070
C2U C 0.653570 0.277460 0.153570
C3U C 0.673120 0.265870 0.142190
C4U C 0.681520 0.243590 0.150600
C5U C 0.670600 0.232350 0.170600
C6U C 0.680680 0.209650 0.180680
H1U H 0.682330 0.274250 0.127100
H2U H 0.696920 0.235440 0.141690
O7DB O 0.812220 0.157820 0.128750
C1DB C 0.802090 0.146070 0.146070
C2DB C 0.777460 0.153570 0.153570
C3DB C 0.765870 0.173120 0.142190
C4DB C 0.743590 0.181520 0.150600
C5DB C 0.732350 0.170600 0.170600
C6DB C 0.709650 0.180680 0.180680
N1DB N 0.699530 0.170810 0.199530
H1DB H 0.774250 0.182330 0.127100
H2DB H 0.735440 0.196920 0.141690
O7FB O 0.628750 0.312220 0.157820
C3FB C 0.642190 0.265870 0.173120
C4FB C 0.650600 0.243590 0.181520
N1FB N 0.699530 0.199530 0.170810
H1FB H 0.627100 0.274250 0.182330
H2FB H 0.641690 0.235440 0.196920
O7EC O 0.628750 0.157820 0.312220
C3EC C 0.642190 0.173120 0.265870
C4EC C 0.650600 0.181520 0.243590
H1EC H 0.627100 0.182330 0.274250
H2EC H 0.641690 0.196920 0.235440
O7PC O 0.812220 0.128750 0.157820
C3PC C 0.765870 0.142190 0.173120
C4PC C 0.743590 0.150600 0.181520
H1PC H 0.774250 0.127100 0.182330
H2PC H 0.735440 0.141690 0.196920
O8W O 0.436630 0.090560 0.619630
C7W C 0.446760 0.102310 0.602310
C8W C 0.471390 0.094810 0.594810
C9W C 0.482980 0.075260 0.606190
C10W C 0.505260 0.066860 0.597780
C11W C 0.516500 0.077780 0.577780
C12W C 0.539200 0.067700 0.567700
H3W H 0.474600 0.066050 0.621280
H4W H 0.513410 0.051460 0.606690
O8BB O 0.436630 0.119630 0.590560
C9BB C 0.482980 0.106190 0.575260
C10BB C 0.505260 0.097780 0.566860
N2BB N 0.549320 0.049320 0.577570
H3BB H 0.474600 0.121280 0.566050
H4BB H 0.513410 0.106690 0.551460
O8GB O 0.590560 -0.063370 0.619630
C7GB C 0.602310 -0.053240 0.602310
C8GB C 0.594810 -0.028610 0.594810
C9GB C 0.575260 -0.017020 0.606190
C10GB C 0.566860 0.005260 0.597780
C11GB C 0.577780 0.016500 0.577780
C12GB C 0.567700 0.039200 0.567700
N2GB N 0.577570 0.049320 0.549320
H3GB H 0.566050 -0.025400 0.621280
H4GB H 0.551460 0.013410 0.606690
O8EC O 0.590560 0.119630 0.436630
C9EC C 0.575260 0.106190 0.482980
C10EC C 0.566860 0.097780 0.505260
H3EC H 0.566050 0.121280 0.474600
H4EC H 0.551460 0.106690 0.513410
O8IC O 0.619630 -0.063370 0.590560
C9IC C 0.606190 -0.017020 0.575260
C10IC C 0.597780 0.005260 0.566860
H3IC H 0.621280 -0.025400 0.566050
H4IC H 0.606690 0.013410 0.551460
Zr1E Zr 0.654450 -0.109000 0.654450
Zr2E Zr 0.640520 -0.095180 0.595180
O1E O 0.631840 -0.086840 0.631840
O2E O 0.662730 -0.117520 0.617520
O5E O 0.678930 -0.079290 0.648890
O6E O 0.665370 -0.065530 0.595180
Zr2G Zr 0.595180 -0.095180 0.640520
O2G O 0.617520 -0.117520 0.662730
O5G O 0.648890 -0.079290 0.678930
O6G O 0.595180 -0.065530 0.665370
O5V O 0.648890 0.079290 0.321070
Zr1TB Zr 0.654450 0.154450 0.391000
O1TB O 0.631840 0.131840 0.413160
O5FC O 0.678930 0.148890 0.420710
O6FC O 0.665370 0.095180 0.434470
O6IC O 0.665370 -0.095180 0.565530
O6GB O 0.565530 -0.095180 0.665370
O5TB O 0.648890 0.178930 0.420710
Zr1O Zr 0.654450 0.345550 0.109000
Zr1BA Zr 0.609000 0.345550 0.154450
Zr1CA Zr 0.609000 -0.154450 0.654450
Zr1RA Zr 0.845550 0.154450 0.109000
Zr1WA Zr 0.845550 0.109000 0.154450
Zr1QB Zr 0.654450 -0.154450 0.609000
Zr1YB Zr 0.609000 0.154450 0.345550
Zr2V Zr 0.595180 0.095180 0.359480
Zr2W Zr 0.404820 0.095180 0.640520
Zr2IA Zr 0.404820 0.140520 0.595180
Zr2TB Zr 0.595180 0.140520 0.404820
O1CA O 0.586840 -0.131840 0.631840
O1QB O 0.631840 -0.131840 0.586840
O2V O 0.617520 0.117520 0.337270
O2TB O 0.617520 0.162730 0.382480
O3E O 0.646450 -0.146450 0.646450
O4E O 0.603180 -0.103180 0.603180
O7E O 0.657820 -0.128750 0.687780
O7G O 0.687780 -0.128750 0.657820
O7V O 0.687780 0.128750 0.342180
O7TB O 0.687780 0.157820 0.371250
O7FC O 0.657820 0.187780 0.371250
O8E O 0.619630 -0.090560 0.563370
O8G O 0.563370 -0.090560 0.619630
O8FC O 0.619630 0.063370 0.409440
O9 O 0.908720 0.664310 0.870779
O10 O 0.960383 0.571763 0.514996
O11 O 0.216359 0.122959 0.176846
O12 O 0.083719 0.755107 0.120790
O13 O 0.956174 0.146301 0.995049
O14 O 0.301478 0.114669 0.582217
O15 O 0.354959 0.476453 0.890914
O16 O 0.234926 0.059427 0.693542
O17 O 0.155254 0.781906 0.055186
O18 O 0.066977 0.471275 0.681437
O19 O 0.209210 0.108071 0.962171
O20 O 0.850472 0.201830 0.739401
O21 O 0.113604 0.021020 0.178460
O22 O 0.139278 0.091962 0.051930
O23 O 0.144757 0.028779 0.823192
loop_
_geom_bond_atom_site_label_1
_geom_bond_atom_site_label_2
_geom_bond_site_symmetry_1
_geom_bond_site_symmetry_2
Zr1 O1 1_555 1_555
Zr2 O1 1_555 1_555
O1 Zr2V 1_555 1_555
O2 Zr1 1_555 1_555
O3 Zr1 1_555 1_555
O4 Zr2 1_555 1_555
O5 Zr1 1_555 1_555
O6 Zr2 1_555 1_555
O7 Zr1 1_555 1_555
C1 O7 1_555 1_555
C2 C1 1_555 1_555
C3 C2 1_555 1_555
C4 C3 1_555 1_555
C5 C4 1_555 1_555
C6 C5 1_555 1_555
N1 C6 1_555 1_555
H1 C3 1_555 1_555
H2 C4 1_555 1_555
O8 Zr2 1_555 1_555
C7 O8 1_555 1_555
C8 C7 1_555 1_555
C9 C8 1_555 1_555
C10 C9 1_555 1_555
C11 C10 1_555 1_555
C12 C11 1_555 1_555
N2 C12 1_555 1_555
H3 C9 1_555 1_555
H4 C10 1_555 1_555
O7U C1U 1_555 1_555
C1U C2U 1_555 1_555
C2U C3U 1_555 1_555
C3U C4U 1_555 1_555
C4U C5U 1_555 1_555
C5U C6U 1_555 1_555
C6U N1 1_555 1_555
H1U C3U 1_555 1_555
H2U C4U 1_555 1_555
O7DB C1DB 1_555 1_555
C1DB C2DB 1_555 1_555
C2DB C3DB 1_555 1_555
C3DB C4DB 1_555 1_555
C4DB C5DB 1_555 1_555
C5DB C6DB 1_555 1_555
C6DB N1DB 1_555 1_555
N1DB C6 1_555 1_555
H1DB C3DB 1_555 1_555
H2DB C4DB 1_555 1_555
O7FB C1U 1_555 1_555
C3FB C2U 1_555 1_555
C4FB C5U 1_555 1_555
N1FB C6U 1_555 1_555
H1FB C3FB 1_555 1_555
H2FB C4FB 1_555 1_555
O7EC C1 1_555 1_555
C3EC C2 1_555 1_555
C4EC C5 1_555 1_555
H1EC C3EC 1_555 1_555
H2EC C4EC 1_555 1_555
O7PC C1DB 1_555 1_555
C3PC C2DB 1_555 1_555
C4PC C5DB 1_555 1_555
H1PC C3PC 1_555 1_555
H2PC C4PC 1_555 1_555
O8W C7W 1_555 1_555
C7W C8W 1_555 1_555
C8W C9W 1_555 1_555
C9W C10W 1_555 1_555
C10W C11W 1_555 1_555
C11W C12W 1_555 1_555
C12W N2 1_555 1_555
H3W C9W 1_555 1_555
H4W C10W 1_555 1_555
O8BB C7W 1_555 1_555
C9BB C8W 1_555 1_555
C10BB C11W 1_555 1_555
N2BB C12W 1_555 1_555
H3BB C9BB 1_555 1_555
H4BB C10BB 1_555 1_555
O8GB C7GB 1_555 1_555
C7GB C8GB 1_555 1_555
C8GB C9GB 1_555 1_555
C9GB C10GB 1_555 1_555
C10GB C11GB 1_555 1_555
C11GB C12GB 1_555 1_555
C12GB N2BB 1_555 1_555
N2GB C12 1_555 1_555
H3GB C9GB 1_555 1_555
H4GB C10GB 1_555 1_555
O8EC C7 1_555 1_555
C9EC C8 1_555 1_555
C10EC C11 1_555 1_555
H3EC C9EC 1_555 1_555
H4EC C10EC 1_555 1_555
O8IC C7GB 1_555 1_555
C9IC C8GB 1_555 1_555
C10IC C11GB 1_555 1_555
H3IC C9IC 1_555 1_555
H4IC C10IC 1_555 1_555
Zr1E O1E 1_555 1_555
Zr2E O8IC 1_555 1_555
O1E Zr2E 1_555 1_555
O2E Zr1E 1_555 1_555
O5E Zr1E 1_555 1_555
O6E Zr2E 1_555 1_555
Zr2G O8GB 1_555 1_555
O2G Zr1E 1_555 1_555
O5G Zr1E 1_555 1_555
O6G Zr2G 1_555 1_555
O5V Zr1 1_555 1_555
Zr1TB O2 1_555 1_555
O1TB Zr2 1_555 1_555
O5FC Zr1TB 1_555 1_555
O6FC Zr2 1_555 1_555
O6IC Zr2E 1_555 1_555
O6GB Zr2G 1_555 1_555
O5TB Zr1TB 1_555 1_555
Zr1O O7U 1_555 1_555
Zr1BA O7FB 1_555 1_555
Zr1CA O2G 1_555 1_555
Zr1RA O7DB 1_555 1_555
Zr1WA O7PC 1_555 1_555
Zr1QB O2E 1_555 1_555
Zr1YB O3 1_555 1_555
Zr2V O4 1_555 1_555
Zr2W O8W 1_555 1_555
Zr2IA O8BB 1_555 1_555
Zr2TB O4 1_555 1_555
O1CA Zr2G 1_555 1_555
O1QB Zr2E 1_555 1_555
O2V Zr1 1_555 1_555
O2TB Zr1TB 1_555 1_555
O3E Zr1E 1_555 1_555
O4E Zr2E 1_555 1_555
O7E Zr1E 1_555 1_555
O7G Zr1E 1_555 1_555
O7V Zr1 1_555 1_555
O7TB Zr1TB 1_555 1_555
O7FC Zr1TB 1_555 1_555
O8E Zr2E 1_555 1_555
O8G Zr2G 1_555 1_555
O8FC Zr2 1_555 1_555
Zr2 O2 1_555 1_555
O3 Zr1TB 1_555 1_555
C6DB N1FB 1_555 1_555
C3FB C4FB 1_555 1_555
O7EC Zr1YB 1_555 1_555
C3EC C4EC 1_555 1_555
C3PC C4PC 1_555 1_555
C9BB C10BB 1_555 1_555
C12GB N2GB 1_555 1_555
O8EC Zr2TB 1_555 1_555
C9EC C10EC 1_555 1_555
C9IC C10IC 1_555 1_555
Zr2E O2E 1_555 1_555
O1E Zr2G 1_555 1_555
Zr2G O2G 1_555 1_555
Zr2G O4E 1_555 1_555
Zr1TB O1TB 1_555 1_555
O1TB Zr2TB 1_555 1_555
Zr1CA O1CA 1_555 1_555
Zr1CA O3E 1_555 1_555
Zr1QB O1QB 1_555 1_555
Zr1QB O3E 1_555 1_555
Zr1YB O2V 1_555 1_555
Zr1YB O2TB 1_555 1_555
Zr2V O2V 1_555 1_555
Zr2TB O2TB 1_555 1_555

#END
