
#######################################################################
#
#                 Cambridge Crystallographic Data Centre
#                                CCDC 
#
#######################################################################
#
# If this CIF has been generated from an entry in the Cambridge 
# Structural Database, then it will include bibliographic, chemical, 
# crystal, experimental, refinement or atomic coordinate data resulting 
# from the CCDC's data processing and validation procedures.
#
#######################################################################

data_ZOZHIH
_chemical_formula_moiety         '(C36 H18 Ce1 Co1 N6 O12)n,26(H2 O1)'
_chemical_name_systematic        
"catena-(tris(\m-2,2'-Bipyridine-4,4'-dicarboxylato)-cobalt(iii)-cerium(iii) hexacosahydrate)"
_symmetry_cell_setting           orthorhombic
_symmetry_space_group_name_H-M   'F d d d'
_symmetry_Int_Tables_number      70
_space_group_name_Hall           '-F 2uv 2vw'
loop_
_symmetry_equiv_pos_site_id
_symmetry_equiv_pos_as_xyz
1 x,y,z
2 1/4-x,3/4-y,1/2+z
3 x,1/4-y,1/4-z
4 1/4-x,y,1/4-z
5 x,1/2+y,1/2+z
6 1/4-x,1/4-y,z
7 x,3/4-y,3/4-z
8 1/4-x,1/2+y,3/4-z
9 1/2+x,y,1/2+z
10 3/4-x,3/4-y,z
11 1/2+x,1/4-y,3/4-z
12 3/4-x,y,3/4-z
13 1/2+x,1/2+y,z
14 3/4-x,1/4-y,1/2+z
15 1/2+x,3/4-y,1/4-z
16 3/4-x,1/2+y,1/4-z
17 -x,-y,-z
18 3/4+x,1/4+y,1/2-z
19 -x,3/4+y,3/4+z
20 3/4+x,-y,3/4+z
21 -x,1/2-y,1/2-z
22 3/4+x,3/4+y,-z
23 -x,1/4+y,1/4+z
24 3/4+x,1/2-y,1/4+z
25 1/2-x,-y,1/2-z
26 1/4+x,1/4+y,-z
27 1/2-x,3/4+y,1/4+z
28 1/4+x,-y,1/4+z
29 1/2-x,1/2-y,-z
30 1/4+x,3/4+y,1/2-z
31 1/2-x,1/4+y,3/4+z
32 1/4+x,1/2-y,3/4+z
_cell_length_a                   23.420(7)
_cell_length_b                   28.043(8)
_cell_length_c                   36.241(10)
_cell_angle_alpha                90
_cell_angle_beta                 90
_cell_angle_gamma                90
_cell_volume                     23801.9
_exptl_crystal_colour            yellow
_exptl_crystal_description       block
_cell_formula_units_Z            16
loop_
_atom_site_label
_atom_site_type_symbol
_atom_site_fract_x
_atom_site_fract_y
_atom_site_fract_z
_atom_site_U_iso_or_equiv
_atom_site_thermal_displace_type
Ce1 Ce 0.352123(18) 0.6250 0.1250 0.0106 Uani
Co1 Co 0.6250 0.39217(3) 0.1250 0.0103 Uani
O1 O 0.44179(17) 0.58246(15) 0.10074(11) 0.0177 Uani
O2 O 0.41979(19) 0.56238(16) 0.15804(12) 0.0220 Uani
O3 O 0.5011(3) 0.4275(3) 0.29381(14) 0.0423 Uani
O4 O 0.5732(2) 0.38061(17) 0.31159(11) 0.0253 Uani
O5 O 0.4158(2) 0.21833(17) 0.10670(15) 0.0320 Uani
O6 O 0.4851(3) 0.17943(18) 0.13509(15) 0.0360 Uani
N1 N 0.56830(19) 0.44218(15) 0.12182(13) 0.0117 Uani
N2 N 0.6076(2) 0.39385(16) 0.17708(13) 0.0120 Uani
N3 N 0.57032(19) 0.34120(17) 0.12041(13) 0.0137 Uani
C1 C 0.5510(3) 0.4649(2) 0.09137(16) 0.0157 Uani
C2 C 0.5117(3) 0.5017(3) 0.09249(17) 0.0180 Uani
C3 C 0.4902(3) 0.51608(19) 0.12621(17) 0.0153 Uani
C4 C 0.5080(3) 0.4927(2) 0.15799(16) 0.0160 Uani
C5 C 0.5464(3) 0.45525(19) 0.15500(15) 0.0127 Uani
C6 C 0.5665(3) 0.42648(19) 0.18610(15) 0.0130 Uani
C7 C 0.5458(3) 0.4305(3) 0.22173(16) 0.0180 Uani
C8 C 0.5679(3) 0.4012(3) 0.24883(17) 0.0207 Uani
C9 C 0.6104(3) 0.3685(3) 0.23978(17) 0.0227 Uani
C10 C 0.6288(3) 0.36555(19) 0.20347(16) 0.0177 Uani
C11 C 0.4475(3) 0.55668(19) 0.12869(16) 0.0147 Uani
C12 C 0.5450(3) 0.4038(3) 0.28836(18) 0.0247 Uani
C13 C 0.5135(3) 0.3447(2) 0.11682(17) 0.0177 Uani
C14 C 0.4785(3) 0.3053(3) 0.11585(18) 0.0223 Uani
C15 C 0.5020(3) 0.2602(2) 0.11925(17) 0.0187 Uani
C16 C 0.5610(3) 0.2558(2) 0.12307(19) 0.0207 Uani
C17 C 0.5939(3) 0.29675(19) 0.12297(17) 0.0153 Uani
C18 C 0.4650(3) 0.2159(3) 0.12083(19) 0.0253 Uani
H1 H 0.5643 0.4529 0.0667 0.0070 Uiso
H2 H 0.4965 0.5181 0.0683 0.0113 Uiso
H3 H 0.4920 0.5030 0.1827 0.0292 Uiso
H4 H 0.5169 0.4530 0.2275 0.0217 Uiso
H5 H 0.6266 0.3486 0.2582 0.0271 Uiso
H6 H 0.6572 0.3428 0.1972 0.0213 Uiso
H7 H 0.4968 0.3755 0.1149 0.0213 Uiso
H8 H 0.4384 0.3090 0.1129 0.0271 Uiso
H9 H 0.5782 0.2253 0.1257 0.0245 Uiso
O5C O 0.8342(2) 0.21833(17) 0.14330(15) 0.0320 Uani
O6C O 0.7649(3) 0.17943(18) 0.11491(15) 0.0360 Uani
N3C N 0.67968(19) 0.34120(17) 0.12959(13) 0.0137 Uani
C13C C 0.7365(3) 0.3447(2) 0.13318(17) 0.0177 Uani
C14C C 0.7715(3) 0.3053(3) 0.13415(18) 0.0223 Uani
C15C C 0.7480(3) 0.2602(2) 0.13075(17) 0.0187 Uani
C16C C 0.6890(3) 0.2558(2) 0.12693(19) 0.0207 Uani
C17C C 0.6561(3) 0.29675(19) 0.12703(17) 0.0153 Uani
C18C C 0.7850(3) 0.2159(3) 0.12917(19) 0.0253 Uani
H7C H 0.7532 0.3755 0.1351 0.0213 Uiso
H8C H 0.8116 0.3090 0.1371 0.0271 Uiso
H9C H 0.6718 0.2253 0.1243 0.0245 Uiso
O1B O 0.44179(17) 0.66754(15) 0.14926(11) 0.0177 Uani
O2B O 0.41979(19) 0.68762(16) 0.09196(12) 0.0220 Uani
O3B O 0.5011(3) 0.8225(3) -0.04381(14) 0.0423 Uani
O4B O 0.5732(2) 0.86939(17) -0.06159(11) 0.0253 Uani
N1B N 0.56830(19) 0.80782(15) 0.12818(13) 0.0117 Uani
N2B N 0.6076(2) 0.85615(16) 0.07292(13) 0.0120 Uani
C1B C 0.5510(3) 0.7851(2) 0.15863(16) 0.0157 Uani
C2B C 0.5117(3) 0.7483(3) 0.15751(17) 0.0180 Uani
C3B C 0.4902(3) 0.73392(19) 0.12379(17) 0.0153 Uani
C4B C 0.5080(3) 0.7573(2) 0.09201(16) 0.0160 Uani
C5B C 0.5464(3) 0.79475(19) 0.09500(15) 0.0127 Uani
C6B C 0.5665(3) 0.82352(19) 0.06390(15) 0.0130 Uani
C7B C 0.5458(3) 0.8195(3) 0.02827(16) 0.0180 Uani
C8B C 0.5679(3) 0.8488(3) 0.00117(17) 0.0207 Uani
C9B C 0.6104(3) 0.8815(3) 0.01022(17) 0.0227 Uani
C10B C 0.6288(3) 0.88445(19) 0.04653(16) 0.0177 Uani
C11B C 0.4475(3) 0.69332(19) 0.12131(16) 0.0147 Uani
C12B C 0.5450(3) 0.8462(3) -0.03836(18) 0.0247 Uani
H1B H 0.5643 0.7971 0.1833 0.0070 Uiso
H2B H 0.4965 0.7319 0.1817 0.0113 Uiso
H3B H 0.4920 0.7470 0.0673 0.0292 Uiso
H4B H 0.5169 0.7970 0.0225 0.0217 Uiso
H5B H 0.6266 0.9014 -0.0082 0.0271 Uiso
H6B H 0.6572 0.9072 0.0528 0.0213 Uiso
Ce1AA Ce 0.602123(18) 0.3750 0.3750 0.0106 Uani
Ce1EA Ce 0.602123(18) 0.8750 -0.1250 0.0106 Uani
Ce1I Ce 0.397877(18) 0.1250 0.1250 0.0106 Uani
Ce1L Ce 0.852123(18) 0.1250 0.1250 0.0106 Uani
Co1B Co 0.6250 0.85783(3) 0.1250 0.0103 Uani
O4S O 0.3232(2) 0.61939(17) 0.06159(11) 0.0253 Uani
O4Q O 0.3232(2) 0.63061(17) 0.18841(11) 0.0253 Uani
O5I O 0.3342(2) 0.53167(17) 0.10670(15) 0.0320 Uani
O5O O 0.3342(2) 0.71833(17) 0.14330(15) 0.0320 Uani
O6I O 0.2649(3) 0.57057(18) 0.13509(15) 0.0360 Uani
O6O O 0.2649(3) 0.67943(18) 0.11491(15) 0.0360 Uani
N1C N 0.68170(19) 0.44218(15) 0.12818(13) 0.0117 Uani
N2C N 0.6424(2) 0.39385(16) 0.07292(13) 0.0120 Uani
O7 O 0.0919(7) 0.6495(10) 0.0847(7) 0.3283 Uani
O8 O 0.9164(5) 0.9091(3) 0.0676(3) 0.1103 Uani
O9 O 0.7957(3) 0.7190(3) -0.00208(18) 0.0597 Uani
O10 O 0.7106(4) 0.6282(4) 0.0666(3) 0.0967 Uani
O11 O 0.8782(4) 0.2636(3) 0.0503(3) 0.0870 Uani
O12 O 0.3837(4) 0.2591(3) 0.04022(19) 0.0623 Uani
O13 O 0.4143(5) 0.8431(4) 0.0912(6) 0.2083 Uani
O14 O 0.1218(5) 0.1869(4) 0.0872(6) 0.2110 Uani
O15 O 0.4938(5) 0.3835(5) 0.0156(7) 0.2523 Uani
O16 O 0.2021(9) 0.6881(9) 0.0480(5) 0.2753 Uani
O17 O 0.4838(9) 0.9469(9) 0.0348(5) 0.2700 Uani
O18 O 0.0692(9) 0.7541(7) 0.0212(4) 0.2117 Uani
O19 O 0.7717(10) 0.9523(7) 0.0017(5) 0.2490 Uani
loop_
_atom_site_aniso_label
_atom_site_aniso_U_11
_atom_site_aniso_U_22
_atom_site_aniso_U_33
_atom_site_aniso_U_23
_atom_site_aniso_U_13
_atom_site_aniso_U_12
Ce1 0.0106(2) 0.00945(19) 0.0117(2) -0.00174(17) 0.0000 0.0000
Co1 0.0103(5) 0.0072(5) 0.0134(5) 0.0000 -0.0013(5) 0.0000
O1 0.011(2) 0.021(2) 0.021(2) 0.0014(17) 0.0004(17) 0.0053(17)
O2 0.022(3) 0.024(3) 0.020(3) -0.0032(18) 0.0027(18) 0.0126(19)
O3 0.031(3) 0.073(5) 0.023(3) 0.008(3) 0.006(3) 0.021(3)
O4 0.035(3) 0.028(3) 0.013(2) 0.0053(18) -0.0015(19) 0.005(3)
O5 0.017(3) 0.026(3) 0.053(4) -0.003(3) 0.000(3) -0.008(2)
O6 0.034(3) 0.031(3) 0.043(4) 0.015(3) -0.018(3) -0.018(3)
N1 0.013(2) 0.008(2) 0.014(3) -0.0006(18) -0.0039(19) -0.0007(17)
N2 0.011(3) 0.010(2) 0.015(3) 0.0046(18) 0.0007(18) 0.0012(17)
N3 0.007(2) 0.018(3) 0.016(3) 0.0015(19) 0.0040(19) 0.0030(18)
C1 0.018(3) 0.017(3) 0.012(3) 0.003(3) -0.002(3) 0.003(3)
C2 0.019(3) 0.018(3) 0.017(3) 0.004(3) -0.003(3) 0.006(3)
C3 0.014(3) 0.014(3) 0.018(3) -0.001(3) 0.003(3) 0.003(2)
C4 0.019(3) 0.015(3) 0.014(3) -0.003(3) 0.002(3) 0.005(3)
C5 0.014(3) 0.012(3) 0.012(3) 0.001(2) -0.001(2) 0.000(3)
C6 0.013(3) 0.011(3) 0.015(3) 0.003(2) -0.001(3) 0.003(2)
C7 0.018(3) 0.021(3) 0.015(3) 0.002(3) 0.001(3) 0.008(3)
C8 0.022(4) 0.024(4) 0.016(3) 0.005(3) -0.002(3) 0.001(3)
C9 0.026(4) 0.021(4) 0.021(3) 0.007(3) -0.003(3) 0.007(3)
C10 0.015(3) 0.014(3) 0.024(3) 0.007(3) 0.001(3) 0.001(3)
C11 0.014(3) 0.011(3) 0.019(3) 0.001(3) 0.007(3) 0.002(2)
C12 0.026(4) 0.030(4) 0.018(3) 0.003(3) 0.000(3) 0.000(3)
C13 0.010(3) 0.016(3) 0.027(4) -0.002(3) -0.004(3) 0.001(3)
C14 0.016(3) 0.020(3) 0.031(4) -0.004(3) -0.001(3) -0.005(3)
C15 0.019(3) 0.018(3) 0.019(3) -0.001(3) -0.001(3) -0.006(3)
C16 0.023(3) 0.011(3) 0.028(3) 0.002(3) 0.000(3) -0.003(3)
C17 0.014(3) 0.012(3) 0.020(3) 0.002(3) -0.001(3) 0.002(2)
C18 0.024(4) 0.024(3) 0.028(4) -0.005(3) 0.006(3) -0.013(3)
O5C 0.017 0.026 0.053 0.003 0 0.008
O6C 0.034 0.031 0.043 -0.015 -0.018 0.018
N3C 0.007 0.018 0.016 -0.0015 0.004 -0.003
C13C 0.01 0.016 0.027 0.002 -0.004 -0.001
C14C 0.016 0.02 0.031 0.004 -0.001 0.005
C15C 0.019 0.018 0.019 0.001 -0.001 0.006
C16C 0.023 0.011 0.028 -0.002 0 0.003
C17C 0.014 0.012 0.02 -0.002 -0.001 -0.002
C18C 0.024 0.024 0.028 0.005 0.006 0.013
O1B 0.011 0.021 0.021 0.0014 -0.0004 -0.0053
O2B 0.022 0.024 0.02 -0.0032 -0.0027 -0.0126
O3B 0.031 0.073 0.023 0.008 -0.006 -0.021
O4B 0.035 0.028 0.013 0.0053 0.0015 -0.005
N1B 0.013 0.008 0.014 -0.0006 0.0039 0.0007
N2B 0.011 0.01 0.015 0.0046 -0.0007 -0.0012
C1B 0.018 0.017 0.012 0.003 0.002 -0.003
C2B 0.019 0.018 0.017 0.004 0.003 -0.006
C3B 0.014 0.014 0.018 -0.001 -0.003 -0.003
C4B 0.019 0.015 0.014 -0.003 -0.002 -0.005
C5B 0.014 0.012 0.012 0.001 0.001 0
C6B 0.013 0.011 0.015 0.003 0.001 -0.003
C7B 0.018 0.021 0.015 0.002 -0.001 -0.008
C8B 0.022 0.024 0.016 0.005 0.002 -0.001
C9B 0.026 0.021 0.021 0.007 0.003 -0.007
C10B 0.015 0.014 0.024 0.007 -0.001 -0.001
C11B 0.014 0.011 0.019 0.001 -0.007 -0.002
C12B 0.026 0.03 0.018 0.003 0 0
Ce1AA 0.0106 0.00945 0.0117 0.00174 0 0
Ce1EA 0.0106 0.00945 0.0117 0.00174 0 0
Ce1I 0.0106 0.00945 0.0117 0.00174 0 0
Ce1L 0.0106 0.00945 0.0117 -0.00174 0 0
Co1B 0.0103 0.0072 0.0134 0 0.0013 0
O4S 0.035 0.028 0.013 -0.0053 -0.0015 -0.005
O4Q 0.035 0.028 0.013 -0.0053 0.0015 0.005
O5I 0.017 0.026 0.053 0.003 0 -0.008
O5O 0.017 0.026 0.053 0.003 0 0.008
O6I 0.034 0.031 0.043 -0.015 0.018 -0.018
O6O 0.034 0.031 0.043 -0.015 -0.018 0.018
N1C 0.013 0.008 0.014 0.0006 -0.0039 0.0007
N2C 0.011 0.01 0.015 -0.0046 0.0007 -0.0012
O7 0.145(14) 0.53(5) 0.31(3) -0.25(3) -0.085(15) 0.17(2)
O8 0.124(9) 0.065(6) 0.142(9) 0.030(6) -0.076(8) -0.036(6)
O9 0.067(5) 0.071(5) 0.041(4) -0.008(4) -0.009(4) 0.003(4)
O10 0.054(5) 0.138(9) 0.098(7) -0.023(7) -0.020(5) -0.030(6)
O11 0.084(6) 0.076(6) 0.101(7) 0.039(5) -0.044(6) -0.025(5)
O12 0.065(5) 0.063(5) 0.059(5) -0.008(4) -0.013(4) -0.002(4)
O13 0.077(8) 0.098(8) 0.45(3) -0.131(13) -0.097(12) 0.042(7)
O14 0.068(7) 0.085(8) 0.48(3) 0.029(12) -0.062(14) -0.010(7)
O15 0.059(7) 0.128(11) 0.57(4) 0.144(17) 0.010(13) -0.004(8)
O16 0.25(2) 0.40(3) 0.176(15) -0.188(19) -0.147(15) 0.17(2)
O17 0.29(3) 0.38(3) 0.140(13) 0.124(16) 0.109(15) 0.19(3)
O18 0.28(2) 0.239(18) 0.116(11) 0.023(11) 0.000(12) -0.185(17)
O19 0.33(3) 0.218(18) 0.199(17) 0.064(15) -0.188(19) -0.105(18)
loop_
_geom_bond_atom_site_label_1
_geom_bond_atom_site_label_2
_geom_bond_site_symmetry_1
_geom_bond_site_symmetry_2
Ce1 O1 1_555 1_555
Co1 N1 1_555 1_555
O1 C11 1_555 1_555
O2 Ce1 1_555 1_555
O3 C12 1_555 1_555
O4 C12 1_555 1_555
O5 C18 1_555 1_555
O6 C18 1_555 1_555
N1 C1 1_555 1_555
N2 Co1 1_555 1_555
N3 Co1 1_555 1_555
C1 C2 1_555 1_555
C2 C3 1_555 1_555
C3 C4 1_555 1_555
C4 C5 1_555 1_555
C5 N1 1_555 1_555
C6 N2 1_555 1_555
C7 C6 1_555 1_555
C8 C7 1_555 1_555
C9 C8 1_555 1_555
C10 N2 1_555 1_555
C11 O2 1_555 1_555
C12 C8 1_555 1_555
C13 N3 1_555 1_555
C14 C13 1_555 1_555
C15 C14 1_555 1_555
C16 C15 1_555 1_555
C17 N3 1_555 1_555
C18 C15 1_555 1_555
H1 C1 1_555 1_555
H2 C2 1_555 1_555
H3 C4 1_555 1_555
H4 C7 1_555 1_555
H5 C9 1_555 1_555
H6 C10 1_555 1_555
H7 C13 1_555 1_555
H8 C14 1_555 1_555
H9 C16 1_555 1_555
O5C C18C 1_555 1_555
O6C C18C 1_555 1_555
N3C Co1 1_555 1_555
C13C N3C 1_555 1_555
C14C C13C 1_555 1_555
C15C C14C 1_555 1_555
C16C C15C 1_555 1_555
C17C C17 1_555 1_555
C18C C15C 1_555 1_555
H7C C13C 1_555 1_555
H8C C14C 1_555 1_555
H9C C16C 1_555 1_555
O1B Ce1 1_555 1_555
O2B Ce1 1_555 1_555
O3B C12B 1_555 1_555
O4B C12B 1_555 1_555
N1B C1B 1_555 1_555
N2B C6B 1_555 1_555
C1B C2B 1_555 1_555
C2B C3B 1_555 1_555
C3B C4B 1_555 1_555
C4B C5B 1_555 1_555
C5B N1B 1_555 1_555
C6B C5B 1_555 1_555
C7B C6B 1_555 1_555
C8B C7B 1_555 1_555
C9B C8B 1_555 1_555
C10B N2B 1_555 1_555
C11B O1B 1_555 1_555
C12B C8B 1_555 1_555
H1B C1B 1_555 1_555
H2B C2B 1_555 1_555
H3B C4B 1_555 1_555
H4B C7B 1_555 1_555
H5B C9B 1_555 1_555
H6B C10B 1_555 1_555
Ce1AA O4 1_555 1_555
Ce1EA O4B 1_555 1_555
Ce1I O5 1_555 1_555
Ce1L O5C 1_555 1_555
Co1B N1B 1_555 1_555
O4S Ce1 1_555 1_555
O4Q Ce1 1_555 1_555
O5I Ce1 1_555 1_555
O5O Ce1 1_555 1_555
O6I Ce1 1_555 1_555
O6O Ce1 1_555 1_555
N1C Co1 1_555 1_555
N2C Co1 1_555 1_555
O6 Ce1I 1_555 1_555
C3 C11 1_555 1_555
C5 C6 1_555 1_555
C9 C10 1_555 1_555
C16 C17 1_555 1_555
O6C Ce1L 1_555 1_555
N3C C17C 1_555 1_555
C16C C17C 1_555 1_555
O2B C11B 1_555 1_555
N2B Co1B 1_555 1_555
C3B C11B 1_555 1_555
C9B C10B 1_555 1_555

#END
