
#######################################################################
#
#                 Cambridge Crystallographic Data Centre
#                                CCDC 
#
#######################################################################
#
# If this CIF has been generated from an entry in the Cambridge 
# Structural Database, then it will include bibliographic, chemical, 
# crystal, experimental, refinement or atomic coordinate data resulting 
# from the CCDC's data processing and validation procedures.
#
#######################################################################

data_LOZHEQ
_chemical_name_common            TIFSIX-2-Ni-i
_chemical_formula_moiety         '(C24 H16 F6 N4 Ni1 Ti1)n'
_chemical_name_systematic        
catena-[bis(\m-4,4'-(ethyne-1,2-diyl)dipyridine)-bis(\m-fluoro)-tetrafluoro-nickel-titanium]
_symmetry_cell_setting           tetragonal
_symmetry_space_group_name_H-M   'I 4/m m m'
_symmetry_Int_Tables_number      139
_space_group_name_Hall           '-I 4 2'
loop_
_symmetry_equiv_pos_site_id
_symmetry_equiv_pos_as_xyz
1 x,y,z
2 -x,-y,z
3 -y,x,z
4 y,-x,z
5 -x,y,-z
6 x,-y,-z
7 y,x,-z
8 -y,-x,-z
9 1/2+x,1/2+y,1/2+z
10 1/2-x,1/2-y,1/2+z
11 1/2-y,1/2+x,1/2+z
12 1/2+y,1/2-x,1/2+z
13 1/2-x,1/2+y,1/2-z
14 1/2+x,1/2-y,1/2-z
15 1/2+y,1/2+x,1/2-z
16 1/2-y,1/2-x,1/2-z
17 -x,-y,-z
18 x,y,-z
19 y,-x,-z
20 -y,x,-z
21 x,-y,z
22 -x,y,z
23 -y,-x,z
24 y,x,z
25 1/2-x,1/2-y,1/2-z
26 1/2+x,1/2+y,1/2-z
27 1/2+y,1/2-x,1/2-z
28 1/2-y,1/2+x,1/2-z
29 1/2+x,1/2-y,1/2+z
30 1/2-x,1/2+y,1/2+z
31 1/2-y,1/2-x,1/2+z
32 1/2+y,1/2+x,1/2+z
_cell_length_a                   13.897(2)
_cell_length_b                   13.897(2)
_cell_length_c                   7.8613(16)
_cell_angle_alpha                90
_cell_angle_beta                 90
_cell_angle_gamma                90
_cell_volume                     1518.23
_cell_formula_units_Z            2
loop_
_atom_site_label
_atom_site_type_symbol
_atom_site_fract_x
_atom_site_fract_y
_atom_site_fract_z
Ni1 Ni 0.5000 0.5000 0.5000
F1 F 0.5000 0.5000 0.7585(7)
N1 N 0.6515(4) 0.5000 0.5000
Ti1 Ti 0.5000 0.5000 0.0000
C1 C 0.5000(10) 0.7038 0.6475(18)
F2 F 0.4056(3) 0.4056(3) 0.0000
C2 C 0.5000(11) 0.8017 0.653(2)
H1 H 0.5000 0.6691 0.7531
C3 C 0.5000(6) 0.8533 0.5000
H2 H 0.5000 0.8349 0.7603
C4 C 0.5000(7) 0.9567 0.5000
N1A N 0.3485(4) 0.5000 0.5000
F1D F 0.5000 0.5000 0.2415(7)
N1B N 0.5000 0.6515(4) 0.5000
N1C N 0.5000 0.3485(4) 0.5000
C1D C 0.5000(10) 0.7038 0.3525(18)
C1A C 0.5000(10) 0.2962 0.6475(18)
C1E C 0.5000(10) 0.2962 0.3525(18)
F1_2 F 0.5000 0.5000 -0.2415(7)
F2A F 0.5944(3) 0.5944(3) 0.0000
F2B F 0.5944(3) 0.4056(3) 0.0000
F2C F 0.4056(3) 0.5944(3) 0.0000
C2D C 0.5000(11) 0.8017 0.347(2)
H1D H 0.5000 0.6691 0.2469
C2A C 0.5000(11) 0.1983 0.653(2)
H1A H 0.5000 0.3309 0.7531
C2E C 0.5000(11) 0.1983 0.347(2)
H1E H 0.5000 0.3309 0.2469
Ni1_2 Ni 0.5000 0.5000 -0.5000
H2D H 0.5000 0.8349 0.2397
C3A C 0.5000(6) 0.1467 0.5000
H2A H 0.5000 0.1651 0.7603
H2E H 0.5000 0.1651 0.2397
C4A C 0.5000(7) 0.0433 0.5000
C4A_2 C 0.5000(7) 1.0433 0.5000
C4_2 C 0.5000(7) -0.0433 0.5000
C3A_2 C 0.5000(6) 1.1467 0.5000
C3_2 C 0.5000(6) -0.1467 0.5000
C2A_2 C 0.5000(11) 1.1983 0.653(2)
C2E_2 C 0.5000(11) 1.1983 0.347(2)
C2_2 C 0.5000(11) -0.1983 0.653(2)
C2D_2 C 0.5000(11) -0.1983 0.347(2)
C1A_2 C 0.5000(10) 1.2962 0.6475(18)
H2A_2 H 0.5000 1.1651 0.7603
C1E_2 C 0.5000(10) 1.2962 0.3525(18)
H2E_2 H 0.5000 1.1651 0.2397
C1_2 C 0.5000(10) -0.2962 0.6475(18)
H2_2 H 0.5000 -0.1651 0.7603
C1D_2 C 0.5000(10) -0.2962 0.3525(18)
H2D_2 H 0.5000 -0.1651 0.2397
N1C_2 N 0.5000 1.3485(4) 0.5000
H1A_2 H 0.5000 1.3309 0.7531
H1E_2 H 0.5000 1.3309 0.2469
N1B_2 N 0.5000 -0.3485(4) 0.5000
H1_2 H 0.5000 -0.3309 0.7531
H1D_2 H 0.5000 -0.3309 0.2469
Ni1_3 Ni 0.5000 1.5000 0.5000
Ni1_4 Ni 0.5000 -0.5000 0.5000
C5? C 0.7010(9) 0.5387(11) 0.3690(15)
H3? H 0.6655 0.5677 0.2777
C6? C 0.8010(10) 0.5366(12) 0.3613(17)
H4? H 0.8340 0.5617 0.2635
loop_
_geom_bond_atom_site_label_1
_geom_bond_atom_site_label_2
_geom_bond_site_symmetry_1
_geom_bond_site_symmetry_2
Ni1 F1 1_555 1_555
N1 Ni1 1_555 1_555
Ti1 F2 1_555 1_555
C1 C2 1_555 1_555
C2 C3 1_555 1_555
H1 C1 1_555 1_555
C3 C4 1_555 1_555
H2 C2 1_555 1_555
C4 C4A_2 1_555 1_555
N1A Ni1 1_555 1_555
F1D Ni1 1_555 1_555
N1B Ni1 1_555 1_555
N1C Ni1 1_555 1_555
C1D N1B 1_555 1_555
C1A N1C 1_555 1_555
C1E N1C 1_555 1_555
F1_2 Ti1 1_555 1_555
F2A Ti1 1_555 1_555
F2B Ti1 1_555 1_555
F2C Ti1 1_555 1_555
C2D C3 1_555 1_555
H1D C1D 1_555 1_555
C2A C1A 1_555 1_555
H1A C1A 1_555 1_555
C2E C1E 1_555 1_555
H1E C1E 1_555 1_555
Ni1_2 F1_2 1_555 1_555
H2D C2D 1_555 1_555
C3A C2A 1_555 1_555
H2A C2A 1_555 1_555
H2E C2E 1_555 1_555
C4A C3A 1_555 1_555
C4A_2 C3A_2 1_555 1_555
C4_2 C4A 1_555 1_555
C3A_2 C2A_2 1_555 1_555
C3_2 C4_2 1_555 1_555
C2A_2 C1A_2 1_555 1_555
C2E_2 C3A_2 1_555 1_555
C2_2 C3_2 1_555 1_555
C2D_2 C3_2 1_555 1_555
C1A_2 N1C_2 1_555 1_555
H2A_2 C2A_2 1_555 1_555
C1E_2 C2E_2 1_555 1_555
H2E_2 C2E_2 1_555 1_555
C1_2 C2_2 1_555 1_555
H2_2 C2_2 1_555 1_555
C1D_2 C2D_2 1_555 1_555
H2D_2 C2D_2 1_555 1_555
N1C_2 C1E_2 1_555 1_555
H1A_2 C1A_2 1_555 1_555
H1E_2 C1E_2 1_555 1_555
N1B_2 C1_2 1_555 1_555
H1_2 C1_2 1_555 1_555
H1D_2 C1D_2 1_555 1_555
Ni1_3 N1C_2 1_555 1_555
Ni1_4 N1B_2 1_555 1_555
Ti1 F1D 1_555 1_555
C1 N1B 1_555 1_555
C1D C2D 1_555 1_555
C2E C3A 1_555 1_555
C1D_2 N1B_2 1_555 1_555

#END
