
#######################################################################
#
#                 Cambridge Crystallographic Data Centre
#                                CCDC 
#
#######################################################################
#
# If this CIF has been generated from an entry in the Cambridge 
# Structural Database, then it will include bibliographic, chemical, 
# crystal, experimental, refinement or atomic coordinate data resulting 
# from the CCDC's data processing and validation procedures.
#
#######################################################################

data_JAMSOI
_chemical_formula_moiety         '(C57 H38 Cd2 N4 O8)n,4(H2 O1)'
_chemical_name_systematic        
"catena-((\m-2,2'-(1,4-phenylene)diacetato)-(\m-4-(2',7,7'-tris(pyridin-4-yl)-9,9'-spirobi[fluoren]-2-yl)pyridine)-bis(formato)-di-cadmium unknown solvate tetrahydrate)"
_symmetry_cell_setting           monoclinic
_symmetry_space_group_name_H-M   'P 2/c'
_symmetry_Int_Tables_number      13
_space_group_name_Hall           '-P 2yc'
loop_
_symmetry_equiv_pos_site_id
_symmetry_equiv_pos_as_xyz
1 x,y,z
2 -x,y,1/2-z
3 -x,-y,-z
4 x,-y,1/2+z
_cell_length_a                   10.5785(5)
_cell_length_b                   14.4939(6)
_cell_length_c                   20.5000(9)
_cell_angle_alpha                90
_cell_angle_beta                 97.355(2)
_cell_angle_gamma                90
_cell_volume                     3117.27
_exptl_crystal_colour            'pale yellow'
_exptl_crystal_description       block
_cell_formula_units_Z            2
loop_
_atom_site_label
_atom_site_type_symbol
_atom_site_fract_x
_atom_site_fract_y
_atom_site_fract_z
Cd1 Cd -0.19095(2) 0.33828(2) 0.55194(2)
O1 O -0.05319(18) 0.23366(15) 0.60155(10)
N1 N -0.2008(2) 0.45125(19) 0.47519(14)
C1 C -0.5000 0.8371(2) 0.2500
O2 O 0.0094(2) 0.28813(15) 0.51053(12)
N2 N -0.6833(2) 1.22669(18) 0.00388(13)
C2 C -0.3820(2) 0.77824(18) 0.26986(13)
O3 O -0.1845(3) 0.4416(2) 0.63990(15)
C3 C -0.3661(2) 0.71117(18) 0.31764(13)
H1 H -0.4320 0.6985 0.3438
O4 O -0.3700(3) 0.3748(2) 0.60462(16)
C4 C -0.2510(2) 0.66162(18) 0.32728(13)
C5 C -0.1559(2) 0.68208(19) 0.28758(14)
H2 H -0.0780 0.6487 0.2939
C6 C -0.1726(2) 0.74965(19) 0.23942(13)
H3 H -0.1070 0.7629 0.2132
C7 C -0.2871(2) 0.79761(18) 0.23024(13)
C8 C -0.3346(2) 0.87047(19) 0.18335(13)
C9 C -0.2794(2) 0.9156(2) 0.13387(14)
H4 H -0.1965 0.8993 0.1247
C10 C -0.3476(2) 0.9844(2) 0.09851(14)
H5 H -0.3098 1.0158 0.0652
C11 C -0.4711(2) 1.00947(19) 0.11019(13)
C12 C -0.5265(2) 0.96274(18) 0.15954(13)
H6 H -0.6097 0.9784 0.1685
C13 C -0.4585(2) 0.89407(18) 0.19462(12)
C14 C -0.2913(6) 0.5133(5) 0.4728(3)
H7 H -0.3470 0.5108 0.5056
C15 C -0.3113(5) 0.5816(5) 0.4261(3)
H8 H -0.3799 0.6237 0.4271
C16 C -0.2327(2) 0.5892(2) 0.37815(14)
C17 C -0.1330(4) 0.5280(3) 0.3831(2)
H9 H -0.0723 0.5314 0.3528
C18 C -0.1199(3) 0.4617(3) 0.4314(2)
H10 H -0.0490 0.4211 0.4335
C19 C -0.5565(3) 1.2226(3) 0.0077(2)
H11 H -0.5140 1.2691 -0.0139
C20 C -0.4837(3) 1.1544(3) 0.0413(2)
H12 H -0.3935 1.1554 0.0431
C21 C -0.5426(2) 1.0841(2) 0.07256(14)
C22 C -0.6756(3) 1.0884(2) 0.06784(16)
H13 H -0.7211 1.0421 0.0879
C23 C -0.7405(3) 1.1597(2) 0.03411(17)
H14 H -0.8307 1.1614 0.0322
C24 C 0.0231(2) 0.23426(19) 0.55863(15)
C25 C 0.1262(3) 0.1610(2) 0.56399(18)
H15 H 0.1989 0.1815 0.5416
H16 H 0.1576 0.1482 0.6107
C26 C 0.0657(3) 0.07538(19) 0.53103(16)
C27 C 0.0565(3) 0.0645(2) 0.46352(17)
H17 H 0.0946 0.1089 0.4380
C28 C -0.0076(3) -0.0102(2) 0.43263(17)
H18 H -0.0120 -0.0171 0.3863
C29 C -0.3024(5) 0.4246(4) 0.6439(3)
H19 H -0.3399 0.4519 0.6789
O1B O 0.05319(18) -0.23366(15) 0.39845(10)
O2B O -0.0094(2) -0.28813(15) 0.48947(12)
C24B C -0.0231(2) -0.23426(19) 0.44137(15)
C25B C -0.1262(3) -0.1610(2) 0.43601(18)
H15B H -0.1989 -0.1815 0.4584
H16B H -0.1576 -0.1482 0.3893
C26B C -0.0657(3) -0.07538(19) 0.46897(16)
C27B C -0.0565(3) -0.0645(2) 0.53648(17)
H17B H -0.0946 -0.1089 0.5620
C28B C 0.0076(3) 0.0102(2) 0.56737(17)
H18B H 0.0120 0.0171 0.6137
N1A N -0.7992(2) 0.45125(19) 0.02481(14)
N2A N -0.3167(2) 1.22669(18) 0.49612(13)
C2A C -0.6180(2) 0.77824(18) 0.23014(13)
C3A C -0.6339(2) 0.71117(18) 0.18236(13)
H1A H -0.5680 0.6985 0.1562
C4A C -0.7490(2) 0.66162(18) 0.17272(13)
C5A C -0.8441(2) 0.68208(19) 0.21242(14)
H2A H -0.9220 0.6487 0.2061
C6A C -0.8274(2) 0.74965(19) 0.26058(13)
H3A H -0.8930 0.7629 0.2868
C7A C -0.7129(2) 0.79761(18) 0.26976(13)
C8A C -0.6654(2) 0.87047(19) 0.31665(13)
C9A C -0.7206(2) 0.9156(2) 0.36613(14)
H4A H -0.8035 0.8993 0.3753
C10A C -0.6524(2) 0.9844(2) 0.40149(14)
H5A H -0.6902 1.0158 0.4348
C11A C -0.5289(2) 1.00947(19) 0.38981(13)
C12A C -0.4735(2) 0.96274(18) 0.34046(13)
H6A H -0.3903 0.9784 0.3315
C13A C -0.5415(2) 0.89407(18) 0.30538(12)
C14A C -0.7087(6) 0.5133(5) 0.0272(3)
H7A H -0.6530 0.5108 -0.0056
C15A C -0.6887(5) 0.5816(5) 0.0739(3)
H8A H -0.6201 0.6237 0.0729
C16A C -0.7673(2) 0.5892(2) 0.12185(14)
C17A C -0.8670(4) 0.5280(3) 0.1169(2)
H9A H -0.9277 0.5314 0.1472
C18A C -0.8801(3) 0.4617(3) 0.0686(2)
H10A H -0.9510 0.4211 0.0665
C19A C -0.4435(3) 1.2226(3) 0.4923(2)
H11A H -0.4860 1.2691 0.5139
C20A C -0.5163(3) 1.1544(3) 0.4587(2)
H12A H -0.6065 1.1554 0.4569
C21A C -0.4574(2) 1.0841(2) 0.42744(14)
C22A C -0.3244(3) 1.0884(2) 0.43216(16)
H13A H -0.2789 1.0421 0.4121
C23A C -0.2595(3) 1.1597(2) 0.46589(17)
H14A H -0.1693 1.1614 0.4678
Cd1A Cd -0.80905(2) 0.33828(2) -0.05194(2)
O3A O -0.8155(3) 0.4416(2) -0.13990(15)
O4A O -0.6300(3) 0.3748(2) -0.10462(16)
C29A C -0.6976(5) 0.4246(4) -0.1439(3)
H19A H -0.6601 0.4519 -0.1789
Cd1_2 Cd -0.19095(2) 1.33828(2) 0.55194(2)
Cd1A_2 Cd -0.80905(2) 1.33828(2) -0.05194(2)
Cd1B Cd 0.19095(2) -0.33828(2) 0.44806(2)
O1A O -0.94681(18) 0.23366(15) -0.10155(10)
O2A O -1.0094(2) 0.28813(15) -0.01053(12)
N2_2 N -0.6833(2) 0.22669(18) 0.00388(13)
N2A_2 N -0.3167(2) 0.22669(18) 0.49612(13)
O5 O 0.1840(6) 0.2739(4) 0.4163(3)
O6 O -0.0883(8) 0.6024(5) 0.6969(4)
loop_
_geom_bond_atom_site_label_1
_geom_bond_atom_site_label_2
_geom_bond_site_symmetry_1
_geom_bond_site_symmetry_2
Cd1 O1 1_555 1_555
O1 C24 1_555 1_555
N1 Cd1 1_555 1_555
C1 C2 1_555 1_555
O2 Cd1 1_555 1_555
N2 C19 1_555 1_555
C2 C3 1_555 1_555
O3 Cd1 1_555 1_555
C3 H1 1_555 1_555
O4 Cd1 1_555 1_555
C4 C3 1_555 1_555
C5 C4 1_555 1_555
H2 C5 1_555 1_555
C6 C5 1_555 1_555
H3 C6 1_555 1_555
C7 C2 1_555 1_555
C8 C7 1_555 1_555
C9 C8 1_555 1_555
H4 C9 1_555 1_555
C10 C9 1_555 1_555
H5 C10 1_555 1_555
C11 C10 1_555 1_555
C12 C11 1_555 1_555
H6 C12 1_555 1_555
C13 C1 1_555 1_555
C14 N1 1_555 1_555
H7 C14 1_555 1_555
C15 C14 1_555 1_555
H8 C15 1_555 1_555
C16 C4 1_555 1_555
C17 C16 1_555 1_555
H9 C17 1_555 1_555
C18 N1 1_555 1_555
H10 C18 1_555 1_555
C19 H11 1_555 1_555
C20 C19 1_555 1_555
H12 C20 1_555 1_555
C21 C11 1_555 1_555
C22 C21 1_555 1_555
H13 C22 1_555 1_555
C23 N2 1_555 1_555
H14 C23 1_555 1_555
C24 O2 1_555 1_555
C25 C24 1_555 1_555
H15 C25 1_555 1_555
H16 C25 1_555 1_555
C26 C25 1_555 1_555
C27 C26 1_555 1_555
H17 C27 1_555 1_555
C28 C27 1_555 1_555
H18 C28 1_555 1_555
C29 O3 1_555 1_555
H19 C29 1_555 1_555
O1B C24B 1_555 1_555
O2B C24B 1_555 1_555
C24B C25B 1_555 1_555
C25B H15B 1_555 1_555
H16B C25B 1_555 1_555
C26B C28 1_555 1_555
C27B C26B 1_555 1_555
H17B C27B 1_555 1_555
C28B C26 1_555 1_555
H18B C28B 1_555 1_555
N1A C14A 1_555 1_555
N2A C19A 1_555 1_555
C2A C1 1_555 1_555
C3A C2A 1_555 1_555
H1A C3A 1_555 1_555
C4A C3A 1_555 1_555
C5A C4A 1_555 1_555
H2A C5A 1_555 1_555
C6A C5A 1_555 1_555
H3A C6A 1_555 1_555
C7A C2A 1_555 1_555
C8A C7A 1_555 1_555
C9A C8A 1_555 1_555
H4A C9A 1_555 1_555
C10A C9A 1_555 1_555
H5A C10A 1_555 1_555
C11A C10A 1_555 1_555
C12A C11A 1_555 1_555
H6A C12A 1_555 1_555
C13A C1 1_555 1_555
C14A H7A 1_555 1_555
C15A C14A 1_555 1_555
H8A C15A 1_555 1_555
C16A C4A 1_555 1_555
C17A C16A 1_555 1_555
H9A C17A 1_555 1_555
C18A N1A 1_555 1_555
H10A C18A 1_555 1_555
C19A H11A 1_555 1_555
C20A C19A 1_555 1_555
H12A C20A 1_555 1_555
C21A C11A 1_555 1_555
C22A C21A 1_555 1_555
H13A C22A 1_555 1_555
C23A N2A 1_555 1_555
H14A C23A 1_555 1_555
Cd1A N1A 1_555 1_555
O3A Cd1A 1_555 1_555
O4A Cd1A 1_555 1_555
C29A O3A 1_555 1_555
H19A C29A 1_555 1_555
Cd1_2 N2A 1_555 1_555
Cd1A_2 N2 1_555 1_555
Cd1B O1B 1_555 1_555
O1A Cd1A 1_555 1_555
O2A Cd1A 1_555 1_555
N2_2 Cd1A 1_555 1_555
N2A_2 Cd1 1_555 1_555
O4 C29 1_555 1_555
C6 C7 1_555 1_555
C8 C13 1_555 1_555
C12 C13 1_555 1_555
C15 C16 1_555 1_555
C17 C18 1_555 1_555
C20 C21 1_555 1_555
C22 C23 1_555 1_555
O2B Cd1B 1_555 1_555
C25B C26B 1_555 1_555
C27B C28B 1_555 1_555
C6A C7A 1_555 1_555
C8A C13A 1_555 1_555
C12A C13A 1_555 1_555
C15A C16A 1_555 1_555
C17A C18A 1_555 1_555
C20A C21A 1_555 1_555
C22A C23A 1_555 1_555
O4A C29A 1_555 1_555

#END
