
#######################################################################
#
#                 Cambridge Crystallographic Data Centre
#                                CCDC 
#
#######################################################################
#
# If this CIF has been generated from an entry in the Cambridge 
# Structural Database, then it will include bibliographic, chemical, 
# crystal, experimental, refinement or atomic coordinate data resulting 
# from the CCDC's data processing and validation procedures.
#
#######################################################################

data_ZUQMAB
_chemical_formula_moiety         
'(C74 H53 Co4 N15 O22)n,4n(C3 H7 N1 O1),2n(H2 O1)'
_chemical_name_systematic        
"catena-(bis(\m~4~-2-Aminoterephthalato)-bis(\m~3~-N,N',N''-tris(pyridin-3-yl)benzene-1,3,5-tricarboxamide)-bis(\m~3~-formato)-(\m~2~-2-aminoterephthalato)-tetra-cobalt dimethylformamide solvate dihydrate)"
_symmetry_cell_setting           monoclinic
_symmetry_space_group_name_H-M   'P 21/c'
_symmetry_Int_Tables_number      14
_space_group_name_Hall           '-P 2ybc'
loop_
_symmetry_equiv_pos_site_id
_symmetry_equiv_pos_as_xyz
1 x,y,z
2 -x,1/2+y,1/2-z
3 -x,-y,-z
4 x,1/2-y,1/2+z
_cell_length_a                   14.7883(6)
_cell_length_b                   19.4401(8)
_cell_length_c                   19.3386(10)
_cell_angle_alpha                90
_cell_angle_beta                 99.722(3)
_cell_angle_gamma                90
_cell_volume                     5479.73
_exptl_crystal_colour            red
_exptl_crystal_description       prism
_cell_formula_units_Z            2
loop_
_atom_site_label
_atom_site_type_symbol
_atom_site_fract_x
_atom_site_fract_y
_atom_site_fract_z
C38 C 0.7473(5) 0.3113(5) 0.4696(5)
H29 H 0.7476 0.3477 0.5007
C39 C 0.7707(8) 0.1925(6) 0.4526(5)
H30 H 0.7632 0.2071 0.4045
H31 H 0.7213 0.1623 0.4587
H32 H 0.8280 0.1687 0.4648
C40 C 0.7965(9) 0.2442(6) 0.5726(5)
H33 H 0.8432 0.2775 0.5890
H34 H 0.8197 0.1988 0.5843
H35 H 0.7439 0.2524 0.5944
N10 N 0.7701(5) 0.2501(4) 0.4960(4)
O12 O 0.7251(3) 0.3239(3) 0.4052(4)
C41 C 0.6771(14) 0.8010(9) 0.3173(7)
H36 H 0.6928 0.7630 0.2899
H37 H 0.7120 0.8408 0.3084
H38 H 0.6128 0.8109 0.3046
C42 C 0.7953(13) 0.8011(12) 0.4206(13)
H39 H 0.7965 0.8411 0.4498
H40 H 0.8297 0.8100 0.3836
H41 H 0.8222 0.7629 0.4482
C43 C 0.642(2) 0.7569(18) 0.4273(15)
H42 H 0.6619 0.7649 0.4747
N11 N 0.6975(12) 0.7841(7) 0.3894(6)
O13 O 0.5882(18) 0.7322(14) 0.4207(18)
C1 C 1.0131(3) 0.4309(3) 0.3015(3)
C2 C 1.1205(3) 0.5326(3) 0.4888(3)
C3 C 1.3188(3) 0.5206(3) 0.4242(3)
C4 C 0.9697(3) 0.1509(3) 0.1991(3)
C5 C 1.0692(3) 0.3253(3) 0.2489(3)
H1 H 1.1237 0.3486 0.2472
C6 C 0.9982(3) 0.3586(2) 0.2745(3)
C7 C 1.4112(3) 0.5113(3) 0.4627(2)
C8 C 1.4370(3) 0.4491(3) 0.4964(3)
H2 H 1.3930 0.4146 0.4939
C9 C 0.9789(3) 0.2229(2) 0.2266(3)
C10 C 0.3992(4) 0.2225(3) 0.3623(3)
H3 H 0.3743 0.1803 0.3719
C11 C 1.0590(3) 0.2581(3) 0.2262(3)
H4 H 1.1076 0.2362 0.2103
C12 C 1.4773(3) 0.5646(3) 0.4671(3)
C13 C 0.9067(4) 0.2551(3) 0.2527(3)
C14 C 0.6465(3) 0.4928(3) 0.3335(3)
C15 C 0.5231(4) 0.2873(3) 0.3332(3)
H5 H 0.5817 0.2894 0.3218
C16 C 0.5066(3) 0.4181(4) 0.3224(3)
C17 C 0.1391(3) 0.3725(3) 0.4989(3)
H6 H 0.1863 0.4045 0.5081
C18 C 0.9178(4) 0.3236(3) 0.2764(4)
C19 C 0.3835(3) 0.3452(3) 0.3512(3)
H7 H 0.3488 0.3850 0.3522
C20 C 0.0035(3) 0.3288(3) 0.5205(3)
H8 H -0.0442 0.3290 0.5462
C21 C 0.7413(3) 0.4926(3) 0.3541(3)
H9 H 0.7689 0.4517 0.3712
C22 C 0.5368(4) 0.1578(4) 0.3479(4)
C23 C 0.4740(3) 0.3478(3) 0.3365(3)
C24 C 0.3484(4) 0.2812(3) 0.3642(3)
C25 C 0.7329(6) -0.0085(4) 0.3500(4)
H10 H 0.7442 -0.0428 0.3839
C26 C 0.6567(4) 0.0919(3) 0.3067(3)
C27 C 0.7741(5) -0.0109(4) 0.2930(3)
H11 H 0.8147 -0.0466 0.2891
C28 C 0.4873(4) 0.2247(3) 0.3462(3)
C29 C 0.7016(4) 0.0863(3) 0.2504(3)
H12 H 0.6914 0.1198 0.2157
C30 C 0.6739(5) 0.0447(4) 0.3582(4)
H13 H 0.6468 0.0479 0.3981
C31 C 0.7537(4) 0.6055(4) 0.3261(4)
H14 H 0.7895 0.6443 0.3228
C32 C 0.6055(4) 0.5532(4) 0.3098(5)
H15 H 0.5421 0.5558 0.2968
C33 C 0.6592(5) 0.6102(4) 0.3052(5)
H16 H 0.6325 0.6515 0.2884
C34 C 0.1422(3) 0.3245(3) 0.4457(3)
C35 C 0.0695(4) 0.2795(3) 0.4282(3)
H17 H 0.0674 0.2489 0.3910
C36 C 0.0000(4) 0.2817(3) 0.4676(3)
H18 H -0.0490 0.2512 0.4583
C37 C 0.2576(4) 0.2717(3) 0.3858(3)
Co1 Co 0.94135(4) 0.54424(3) 0.38753(3)
Co2 Co 1.16560(4) 0.53489(3) 0.34340(3)
H19 H 1.196(6) 0.537(4) 0.499(4)
N1 N 0.0718(2) 0.3751(2) 0.5376(2)
N2 N 0.2185(3) 0.3273(2) 0.4106(2)
H20 H 0.2416 0.3670 0.4045
N3 N 0.7950(3) 0.5469(2) 0.3509(3)
N4 N 0.5998(3) 0.4309(3) 0.3403(3)
H21 H 0.6332 0.3968 0.3577
N5 N 0.7593(3) 0.0349(2) 0.2430(2)
N6 N 0.6007(3) 0.1504(3) 0.3086(2)
H22 H 0.6089 0.1841 0.2817
N7 N 1.4583(6) 0.6292(5) 0.4401(6)
H23 H 1.4999 0.6606 0.4462
H24 H 1.4047 0.6385 0.4171
N8 N 0.8448(7) 0.3507(6) 0.2981(9)
H25 H 0.8462 0.3928 0.3121
H26 H 0.7964 0.3263 0.2981
N9 N 0.8256(8) 0.2288(7) 0.2646(10)
H27 H 0.8128 0.1862 0.2558
H28 H 0.7871 0.2548 0.2810
O1 O 0.5178(4) 0.1107(3) 0.3858(4)
O2 O 0.2232(3) 0.2138(2) 0.3877(3)
O3 O 0.4534(3) 0.4633(2) 0.2972(3)
O4 O 1.0385(2) 0.12184(17) 0.18018(18)
O5 O 0.8902(2) 0.12408(18) 0.1947(2)
O6 O 0.9480(2) 0.46199(16) 0.32108(18)
O7 O 1.0914(2) 0.45649(17) 0.2994(2)
O8 O 1.2657(2) 0.46852(17) 0.40791(19)
O9 O 1.2880(2) 0.58022(19) 0.40466(18)
O10 O 1.0854(2) 0.54014(15) 0.42600(17)
O11 O 1.0806(2) 0.53181(17) 0.54047(18)
C3B C 1.6812(3) 0.4794(3) 0.5758(3)
C7B C 1.5888(3) 0.4887(3) 0.5373(2)
C8B C 1.5630(3) 0.5509(3) 0.5036(3)
H2B H 1.6070 0.5854 0.5061
C12B C 1.5227(3) 0.4354(3) 0.5329(3)
N7B N 1.5417(6) 0.3708(5) 0.5599(6)
H23B H 1.5001 0.3394 0.5538
H24B H 1.5953 0.3615 0.5829
O8B O 1.7343(2) 0.53148(17) 0.59209(19)
O9B O 1.7120(2) 0.41978(19) 0.59534(18)
C1B C -0.0131(3) 0.5691(3) 0.6985(3)
C2B C -0.1205(3) 0.4674(3) 0.5112(3)
C4B C 0.0303(3) 0.8491(3) 0.8009(3)
C5B C -0.0692(3) 0.6747(3) 0.7511(3)
H1B H -0.1237 0.6514 0.7528
C6B C 0.0018(3) 0.6414(2) 0.7255(3)
C9B C 0.0211(3) 0.7771(2) 0.7734(3)
C10B C 0.6008(4) 0.7775(3) 0.6377(3)
H3B H 0.6257 0.8197 0.6281
C11B C -0.0590(3) 0.7419(3) 0.7738(3)
H4B H -0.1076 0.7638 0.7897
C13B C 0.0933(4) 0.7449(3) 0.7473(3)
C14B C 0.3535(3) 0.5072(3) 0.6665(3)
C15B C 0.4769(4) 0.7127(3) 0.6668(3)
H5B H 0.4183 0.7106 0.6782
C16B C 0.4934(3) 0.5819(4) 0.6776(3)
C17B C 0.8609(3) 0.6275(3) 0.5011(3)
H6B H 0.8137 0.5955 0.4919
C18B C 0.0822(4) 0.6764(3) 0.7236(4)
C19B C 0.6165(3) 0.6548(3) 0.6488(3)
H7B H 0.6512 0.6150 0.6478
C20B C 0.9965(3) 0.6712(3) 0.4795(3)
H8B H 1.0442 0.6710 0.4538
C21B C 0.2587(3) 0.5074(3) 0.6459(3)
H9B H 0.2311 0.5483 0.6288
C22B C 0.4632(4) 0.8422(4) 0.6521(4)
C23B C 0.5260(3) 0.6522(3) 0.6635(3)
C24B C 0.6516(4) 0.7188(3) 0.6358(3)
C25B C 0.2671(6) 1.0085(4) 0.6500(4)
H10B H 0.2558 1.0428 0.6161
C26B C 0.3433(4) 0.9081(3) 0.6933(3)
C27B C 0.2259(5) 1.0109(4) 0.7070(3)
H11B H 0.1853 1.0466 0.7109
C28B C 0.5127(4) 0.7753(3) 0.6538(3)
C29B C 0.2984(4) 0.9137(3) 0.7496(3)
H12B H 0.3086 0.8802 0.7843
C30B C 0.3261(5) 0.9553(4) 0.6418(4)
H13B H 0.3532 0.9521 0.6019
C31B C 0.2463(4) 0.3945(4) 0.6739(4)
H14B H 0.2105 0.3557 0.6772
C32B C 0.3945(4) 0.4468(4) 0.6902(5)
H15B H 0.4579 0.4442 0.7032
C33B C 0.3408(5) 0.3898(4) 0.6948(5)
H16B H 0.3675 0.3485 0.7116
C34B C 0.8578(3) 0.6755(3) 0.5543(3)
C35B C 0.9305(4) 0.7205(3) 0.5718(3)
H17B H 0.9326 0.7511 0.6090
C36B C 1.0000(4) 0.7183(3) 0.5324(3)
H18B H 1.0490 0.7488 0.5417
C37B C 0.7424(4) 0.7283(3) 0.6142(3)
Co1B Co 0.05865(4) 0.45576(3) 0.61247(3)
Co2B Co -0.16560(4) 0.46511(3) 0.65660(3)
H19B H -0.196(6) 0.463(4) 0.501(4)
N1B N 0.9282(2) 0.6249(2) 0.4624(2)
N2B N 0.7815(3) 0.6727(2) 0.5894(2)
H20B H 0.7584 0.6330 0.5955
N3B N 0.2050(3) 0.4531(2) 0.6491(3)
N4B N 0.4002(3) 0.5691(3) 0.6597(3)
H21B H 0.3668 0.6032 0.6423
N5B N 0.2407(3) 0.9651(2) 0.7570(2)
N6B N 0.3993(3) 0.8496(3) 0.6914(2)
H22B H 0.3911 0.8159 0.7183
N8B N 0.1552(7) 0.6493(6) 0.7019(9)
H25B H 0.1538 0.6072 0.6879
H26B H 0.2036 0.6737 0.7019
N9B N 0.1744(8) 0.7712(7) 0.7354(10)
H27B H 0.1872 0.8138 0.7442
H28B H 0.2129 0.7452 0.7190
O1B O 0.4822(4) 0.8893(3) 0.6142(4)
O2B O 0.7768(3) 0.7862(2) 0.6123(3)
O3B O 0.5466(3) 0.5367(2) 0.7028(3)
O4B O -0.0385(2) 0.87816(17) 0.81982(18)
O5B O 0.1098(2) 0.87592(18) 0.8053(2)
O6B O 0.0520(2) 0.53801(16) 0.67892(18)
O7B O -0.0914(2) 0.54351(17) 0.7006(2)
O10B O -0.0854(2) 0.45986(15) 0.57400(17)
O11B O -0.0806(2) 0.46819(17) 0.45953(18)
Co1_2 Co -0.05865(4) 0.54424(3) 0.38753(3)
Co1A Co 1.05865(4) 0.04424(3) 0.11247(3)
Co1B_2 Co 1.05865(4) 0.45576(3) 0.61247(3)
Co1C Co -0.05865(4) 0.95576(3) 0.88753(3)
Co2A Co 0.83440(4) 0.03489(3) 0.15660(3)
Co2B_2 Co 1.83440(4) 0.46511(3) 0.65660(3)
Co2C Co 0.16560(4) 0.96511(3) 0.84340(3)
N5A N 1.2407(3) 0.5349(2) 0.2570(2)
N5C N -0.2407(3) 0.4651(2) 0.7430(2)
O4A O 0.9615(2) 0.62184(17) 0.31982(18)
O4C O 0.0385(2) 0.37816(17) 0.68018(18)
O5A O 1.1098(2) 0.62408(18) 0.3053(2)
O5C O -0.1098(2) 0.37592(18) 0.6947(2)
O8B_2 O -0.2657(2) 0.53148(17) 0.59209(19)
O9B_2 O -0.2880(2) 0.41978(19) 0.59534(18)
O11_2 O 0.0806(2) 0.53181(17) 0.54047(18)
O11B_2 O 0.9194(2) 0.46819(17) 0.45953(18)
loop_
_geom_bond_atom_site_label_1
_geom_bond_atom_site_label_2
_geom_bond_site_symmetry_1
_geom_bond_site_symmetry_2
C1 C6 1_555 1_555
C2 H19 1_555 1_555
C3 C7 1_555 1_555
C4 C9 1_555 1_555
C5 H1 1_555 1_555
C6 C5 1_555 1_555
C7 C8 1_555 1_555
C8 H2 1_555 1_555
C9 C11 1_555 1_555
C10 H3 1_555 1_555
C11 C5 1_555 1_555
H4 C11 1_555 1_555
C12 C7 1_555 1_555
C13 C9 1_555 1_555
C14 C21 1_555 1_555
C15 H5 1_555 1_555
C16 C23 1_555 1_555
C17 H6 1_555 1_555
C18 C6 1_555 1_555
C19 H7 1_555 1_555
C20 H8 1_555 1_555
C21 H9 1_555 1_555
C22 C28 1_555 1_555
C23 C15 1_555 1_555
C24 C10 1_555 1_555
C25 H10 1_555 1_555
C26 C29 1_555 1_555
C27 C25 1_555 1_555
H11 C27 1_555 1_555
C28 C10 1_555 1_555
C29 H12 1_555 1_555
C30 C25 1_555 1_555
H13 C30 1_555 1_555
C31 H14 1_555 1_555
C32 C14 1_555 1_555
H15 C32 1_555 1_555
C33 C31 1_555 1_555
H16 C33 1_555 1_555
C34 C17 1_555 1_555
C35 C34 1_555 1_555
H17 C35 1_555 1_555
C36 C20 1_555 1_555
H18 C36 1_555 1_555
C37 C24 1_555 1_555
Co1 N3 1_555 1_555
Co2 O7 1_555 1_555
N1 C17 1_555 1_555
N2 C34 1_555 1_555
H20 N2 1_555 1_555
N3 C21 1_555 1_555
N4 C14 1_555 1_555
H21 N4 1_555 1_555
N5 C27 1_555 1_555
N6 C22 1_555 1_555
H22 N6 1_555 1_555
N7 C12 1_555 1_555
H23 N7 1_555 1_555
H24 N7 1_555 1_555
N8 C18 1_555 1_555
H25 N8 1_555 1_555
H26 N8 1_555 1_555
N9 C13 1_555 1_555
H27 N9 1_555 1_555
H28 N9 1_555 1_555
O1 C22 1_555 1_555
O2 C37 1_555 1_555
O3 C16 1_555 1_555
O4 C4 1_555 1_555
O5 C4 1_555 1_555
O6 C1 1_555 1_555
O7 C1 1_555 1_555
O8 C3 1_555 1_555
O9 C3 1_555 1_555
O10 C2 1_555 1_555
O11 C2 1_555 1_555
C38 H29 1_555 1_555
C39 H30 1_555 1_555
H31 C39 1_555 1_555
H32 C39 1_555 1_555
C40 H33 1_555 1_555
H34 C40 1_555 1_555
H35 C40 1_555 1_555
N10 C38 1_555 1_555
O12 C38 1_555 1_555
C41 H36 1_555 1_555
H37 C41 1_555 1_555
H38 C41 1_555 1_555
C42 H39 1_555 1_555
H40 C42 1_555 1_555
H41 C42 1_555 1_555
C43 H42 1_555 1_555
N11 C41 1_555 1_555
O13 C43 1_555 1_555
C3B C7B 1_555 1_555
C7B C8B 1_555 1_555
C8B C12 1_555 1_555
H2B C8B 1_555 1_555
C12B C8 1_555 1_555
N7B C12B 1_555 1_555
H23B N7B 1_555 1_555
H24B N7B 1_555 1_555
O8B C3B 1_555 1_555
O9B C3B 1_555 1_555
C1B C6B 1_555 1_555
C2B H19B 1_555 1_555
C4B C9B 1_555 1_555
C5B H1B 1_555 1_555
C6B C5B 1_555 1_555
C9B C11B 1_555 1_555
C10B H3B 1_555 1_555
C11B C5B 1_555 1_555
H4B C11B 1_555 1_555
C13B C9B 1_555 1_555
C14B C21B 1_555 1_555
C15B H5B 1_555 1_555
C16B C23B 1_555 1_555
C17B H6B 1_555 1_555
C18B C6B 1_555 1_555
C19B H7B 1_555 1_555
C20B H8B 1_555 1_555
C21B H9B 1_555 1_555
C22B C28B 1_555 1_555
C23B C15B 1_555 1_555
C24B C10B 1_555 1_555
C25B H10B 1_555 1_555
C26B C29B 1_555 1_555
C27B C25B 1_555 1_555
H11B C27B 1_555 1_555
C28B C10B 1_555 1_555
C29B H12B 1_555 1_555
C30B C25B 1_555 1_555
H13B C30B 1_555 1_555
C31B H14B 1_555 1_555
C32B C14B 1_555 1_555
H15B C32B 1_555 1_555
C33B C31B 1_555 1_555
H16B C33B 1_555 1_555
C34B C17B 1_555 1_555
C35B C34B 1_555 1_555
H17B C35B 1_555 1_555
C36B C20B 1_555 1_555
H18B C36B 1_555 1_555
C37B C24B 1_555 1_555
Co1B N1 1_555 1_555
Co2B O7B 1_555 1_555
N1B Co1 1_555 1_555
N2B C34B 1_555 1_555
H20B N2B 1_555 1_555
N3B C21B 1_555 1_555
N4B C14B 1_555 1_555
H21B N4B 1_555 1_555
N5B C27B 1_555 1_555
N6B C22B 1_555 1_555
H22B N6B 1_555 1_555
N8B C18B 1_555 1_555
H25B N8B 1_555 1_555
H26B N8B 1_555 1_555
N9B C13B 1_555 1_555
H27B N9B 1_555 1_555
H28B N9B 1_555 1_555
O1B C22B 1_555 1_555
O2B C37B 1_555 1_555
O3B C16B 1_555 1_555
O4B C4B 1_555 1_555
O5B C4B 1_555 1_555
O6B C1B 1_555 1_555
O7B C1B 1_555 1_555
O10B C2B 1_555 1_555
O11B C2B 1_555 1_555
Co1_2 O11B 1_555 1_555
Co1A O4 1_555 1_555
Co1B_2 O11 1_555 1_555
Co1C O4B 1_555 1_555
Co2A N5 1_555 1_555
Co2B_2 O8B 1_555 1_555
Co2C N5B 1_555 1_555
N5A Co2 1_555 1_555
N5C Co2B 1_555 1_555
O4A Co1 1_555 1_555
O4C Co1B 1_555 1_555
O5A Co2 1_555 1_555
O5C Co2B 1_555 1_555
O8B_2 Co2B 1_555 1_555
O9B_2 Co2B 1_555 1_555
O11_2 Co1B 1_555 1_555
O11B_2 Co1 1_555 1_555
C13 C18 1_555 1_555
C15 C28 1_555 1_555
C16 N4 1_555 1_555
C19 C23 1_555 1_555
C19 C24 1_555 1_555
C20 N1 1_555 1_555
C26 C30 1_555 1_555
C26 N6 1_555 1_555
C29 N5 1_555 1_555
C31 N3 1_555 1_555
C32 C33 1_555 1_555
C35 C36 1_555 1_555
C37 N2 1_555 1_555
Co1 O6 1_555 1_555
Co1 O10 1_555 1_555
Co2 O8 1_555 1_555
Co2 O9 1_555 1_555
Co2 O10 1_555 1_555
O5 Co2A 1_555 1_555
C39 N10 1_555 1_555
C40 N10 1_555 1_555
C42 N11 1_555 1_555
C43 N11 1_555 1_555
C7B C12B 1_555 1_555
O9B Co2B_2 1_555 1_555
C13B C18B 1_555 1_555
C15B C28B 1_555 1_555
C16B N4B 1_555 1_555
C17B N1B 1_555 1_555
C19B C23B 1_555 1_555
C19B C24B 1_555 1_555
C20B N1B 1_555 1_555
C26B C30B 1_555 1_555
C26B N6B 1_555 1_555
C29B N5B 1_555 1_555
C31B N3B 1_555 1_555
C32B C33B 1_555 1_555
C35B C36B 1_555 1_555
C37B N2B 1_555 1_555
Co1B N3B 1_555 1_555
Co1B O6B 1_555 1_555
Co1B O10B 1_555 1_555
Co2B O10B 1_555 1_555
O5B Co2C 1_555 1_555

#END
