
#######################################################################
#
#                 Cambridge Crystallographic Data Centre
#                                CCDC 
#
#######################################################################
#
# If this CIF has been generated from an entry in the Cambridge 
# Structural Database, then it will include bibliographic, chemical, 
# crystal, experimental, refinement or atomic coordinate data resulting 
# from the CCDC's data processing and validation procedures.
#
#######################################################################

data_FUDQAX
_chemical_formula_moiety         '(C4 H8 Cu1 F6 N2 O2 Si1)n'
_chemical_name_systematic        
catena-((\m~2~-hexafluorosilicato)-(\m~2~-pyrazine)-diaqua-copper(ii))
_symmetry_cell_setting           monoclinic
_symmetry_space_group_name_H-M   'C 2/m'
_symmetry_Int_Tables_number      12
_space_group_name_Hall           '-C 2y'
loop_
_symmetry_equiv_pos_site_id
_symmetry_equiv_pos_as_xyz
1 x,y,z
2 -x,y,-z
3 1/2+x,1/2+y,z
4 1/2-x,1/2+y,-z
5 -x,-y,-z
6 x,-y,z
7 1/2-x,1/2-y,-z
8 1/2+x,1/2-y,z
_cell_length_a                   10.737(2)
_cell_length_b                   6.8406(14)
_cell_length_c                   7.7630(16)
_cell_angle_alpha                90
_cell_angle_beta                 128.12(3)
_cell_angle_gamma                90
_cell_volume                     448.566
_exptl_crystal_colour            blue
_exptl_crystal_description       block
_cell_formula_units_Z            2
loop_
_atom_site_label
_atom_site_type_symbol
_atom_site_fract_x
_atom_site_fract_y
_atom_site_fract_z
Cu1 Cu 1.0000 0.5000 0.5000
O1 O 0.7746(2) 0.5000 0.2518(3)
N1 N 1.0000 0.2031(3) 0.5000
C1 C 1.0572(2) 0.1012(3) 0.4158(3)
Si1 Si 1.0000 0.5000 1.0000
F1 F 0.9219(2) 0.5000 0.7322(2)
F2 F 0.87110(19) 0.6729(2) 0.9506(2)
H1 H 1.101(3) 0.171(4) 0.368(4)
H2 H 0.741(3) 0.588(4) 0.192(4)
Cu1_2 Cu 1.0000 -0.5000 0.5000
Cu1_3 Cu 1.0000 0.5000 1.5000
O1A O 1.2254(2) 0.5000 0.7482(3)
N1D N 1.0000 -0.2031(3) 0.5000
N1D_2 N 1.0000 0.7969(3) 0.5000
C1E C 1.0572(2) -0.1012(3) 0.4158(3)
C1D C 0.9428(2) -0.1012(3) 0.5842(3)
C1A C 0.9428(2) 0.1012(3) 0.5842(3)
F1A F 1.0781(2) 0.5000 1.2678(2)
F1A_2 F 1.0781(2) 0.5000 0.2678(2)
F2A F 1.12890(19) 0.6729(2) 1.0494(2)
F2D F 1.12890(19) 0.3271(2) 1.0494(2)
F2E F 0.87110(19) 0.3271(2) 0.9506(2)
H1A H 0.899(3) 0.171(4) 0.632(4)
H1D H 0.899(3) -0.171(4) 0.632(4)
H1E H 1.101(3) -0.171(4) 0.368(4)
H2E H 0.741(3) 0.412(4) 0.192(4)
H2A H 1.259(3) 0.588(4) 0.808(4)
H2D H 1.259(3) 0.412(4) 0.808(4)
loop_
_geom_bond_atom_site_label_1
_geom_bond_atom_site_label_2
_geom_bond_site_symmetry_1
_geom_bond_site_symmetry_2
Cu1 O1 1_555 1_555
O1 H2 1_555 1_555
N1 Cu1 1_555 1_555
C1 N1 1_555 1_555
Si1 F1 1_555 1_555
F1 Cu1 1_555 1_555
F2 Si1 1_555 1_555
H1 C1 1_555 1_555
Cu1_2 N1D 1_555 1_555
Cu1_3 F1A 1_555 1_555
O1A Cu1 1_555 1_555
N1D C1E 1_555 1_555
N1D_2 Cu1 1_555 1_555
C1E C1 1_555 1_555
C1D N1D 1_555 1_555
C1A N1 1_555 1_555
F1A Si1 1_555 1_555
F1A_2 Cu1 1_555 1_555
F2A Si1 1_555 1_555
F2D Si1 1_555 1_555
F2E Si1 1_555 1_555
H1A C1A 1_555 1_555
H1D C1D 1_555 1_555
H1E C1E 1_555 1_555
H2E O1 1_555 1_555
H2A O1A 1_555 1_555
H2D O1A 1_555 1_555
C1D C1A 1_555 1_555

#END
