
#######################################################################
#
#                 Cambridge Crystallographic Data Centre
#                                CCDC 
#
#######################################################################
#
# If this CIF has been generated from an entry in the Cambridge 
# Structural Database, then it will include bibliographic, chemical, 
# crystal, experimental, refinement or atomic coordinate data resulting 
# from the CCDC's data processing and validation procedures.
#
#######################################################################

data_NADKEK
_chemical_formula_moiety         '(C21 H42 N6 O18 P6 Y2)n,7.75n(H2 O1)'
_chemical_name_systematic        
'catena-(tris(\m~4~-((2-Methylpiperazine-1,4-diyl)bis(methylene))bis(phosphonato))-di-yttrium hydrate)'
_symmetry_cell_setting           trigonal
_symmetry_space_group_name_H-M   'P -3'
_symmetry_Int_Tables_number      147
_space_group_name_Hall           '-P 3'
loop_
_symmetry_equiv_pos_site_id
_symmetry_equiv_pos_as_xyz
1 x,y,z
2 -y,x-y,z
3 -x+y,-x,z
4 -x,-y,-z
5 y,-x+y,-z
6 x-y,x,-z
_cell_length_a                   16.18945(26)
_cell_length_b                   16.18945(26)
_cell_length_c                   10.00355(16)
_cell_angle_alpha                90
_cell_angle_beta                 90
_cell_angle_gamma                120
_cell_volume                     2270.64
_exptl_crystal_colour            white
_cell_formula_units_Z            2
loop_
_atom_site_label
_atom_site_type_symbol
_atom_site_fract_x
_atom_site_fract_y
_atom_site_fract_z
_atom_site_U_iso_or_equiv
_atom_site_thermal_displace_type
Y1 Y 0.6667 0.3333 0.3081(5) 0.0127 Uiso
Y2 Y 0.6667 0.3333 -0.2053(5) 0.0127 Uiso
P1 P 0.6042(5) 0.4511(5) 0.0632(6) 0.0127 Uiso
P2 P 0.2036(5) 0.4715(5) 0.4505(7) 0.0127 Uiso
O1 O 0.6584(7) 0.4414(8) 0.1740(8) 0.0127 Uiso
O2 O 0.6359(5) 0.4274(5) -0.0627(7) 0.0127 Uiso
O3 O 0.6219(9) 0.5518(8) 0.0591(14) 0.0127 Uiso
O4 O 0.2158(7) 0.5405(6) 0.5600(10) 0.0127 Uiso
O5 O 0.2507(5) 0.5245(6) 0.3290(8) 0.0127 Uiso
O6 O 0.1013(6) 0.4018(6) 0.4278(10) 0.0127 Uiso
N1 N 0.4159(7) 0.3839(10) 0.1771(12) 0.0127 Uiso
N2 N 0.3221(8) 0.3835(9) 0.4174(12) 0.0127 Uiso
C1 C 0.4750(7) 0.3600(10) 0.0890(15) 0.0127 Uiso
C2 C 0.3306(10) 0.2946(9) 0.2258(15) 0.0127 Uiso
C3 C 0.2693(8) 0.3169(10) 0.3074(14) 0.0127 Uiso
C4 C 0.2593(10) 0.3999(10) 0.5101(13) 0.0127 Uiso
C5 C 0.4118(9) 0.4681(9) 0.3796(16) 0.0127 Uiso
C6 C 0.4690(7) 0.4553(10) 0.2787(17) 0.0127 Uiso
C7 C 0.1891(11) 0.2301(10) 0.3665(19) 0.0127 Uiso
Y1C Y 0.3333 0.6667 0.6919(5) 0.0127 Uiso
Y1D Y 0.3333 -0.3334 0.6919(5) 0.0127 Uiso
Y1E Y 1.3334 0.6667 0.6919(5) 0.0127 Uiso
Y2C Y 0.3333 0.6667 0.2053(5) 0.0127 Uiso
Y2D Y 0.3333 -0.3334 0.2053(5) 0.0127 Uiso
Y2E Y 1.3334 0.6667 0.2053(5) 0.0127 Uiso
P1A P 0.5489(5) 0.1531(7) 0.0632(6) 0.0127 Uiso
P1B P 0.8469(7) 0.3958(5) 0.0632(6) 0.0127 Uiso
P2A P 0.5285(5) -0.2679(7) 0.4505(7) 0.0127 Uiso
P2B P 1.2679(7) 0.7964(5) 0.4505(7) 0.0127 Uiso
O1A O 0.5586(8) 0.2170(11) 0.1740(8) 0.0127 Uiso
O1B O 0.7830(11) 0.3416(7) 0.1740(8) 0.0127 Uiso
O2A O 0.5726(5) 0.2085(7) -0.0627(7) 0.0127 Uiso
O2B O 0.7915(7) 0.3641(5) -0.0627(7) 0.0127 Uiso
O3A O 0.4482(8) 0.0701(12) 0.0591(14) 0.0127 Uiso
O3B O 0.9299(12) 0.3781(9) 0.0591(14) 0.0127 Uiso
O4A O 0.4595(6) -0.3247(9) 0.5600(10) 0.0127 Uiso
O4B O 1.3247(9) 0.7842(7) 0.5600(10) 0.0127 Uiso
O4C O 0.7842(7) 0.4595(6) 0.4400(10) 0.0127 Uiso
O4D O 0.5405(6) 0.3247(9) 0.4400(10) 0.0127 Uiso
O4E O 0.6753(9) 0.2158(7) 0.4400(10) 0.0127 Uiso
O5A O 0.4755(6) -0.2738(8) 0.3290(8) 0.0127 Uiso
O5B O 1.2738(8) 0.7493(5) 0.3290(8) 0.0127 Uiso
O5C O 0.7493(5) 0.4755(6) -0.3290(8) 0.0127 Uiso
O5D O 0.5245(6) 0.2738(8) -0.3290(8) 0.0127 Uiso
O5E O 0.7262(8) 0.2507(5) -0.3290(8) 0.0127 Uiso
O6A O 0.5982(6) -0.3005(8) 0.4278(10) 0.0127 Uiso
O6B O 1.3005(8) 0.8987(6) 0.4278(10) 0.0127 Uiso
N1A N 0.6161(10) 0.0320(12) 0.1771(12) 0.0127 Uiso
N1B N 0.9680(12) 0.5841(7) 0.1771(12) 0.0127 Uiso
N2A N 0.6165(9) -0.0614(12) 0.4174(12) 0.0127 Uiso
N2B N 1.0614(12) 0.6779(8) 0.4174(12) 0.0127 Uiso
C1A C 0.6400(10) 0.1150(12) 0.0890(15) 0.0127 Uiso
C1B C 0.8850(12) 0.5250(7) 0.0890(15) 0.0127 Uiso
C2A C 0.7054(9) 0.0360(13) 0.2258(15) 0.0127 Uiso
C2B C 0.9640(13) 0.6694(10) 0.2258(15) 0.0127 Uiso
C3A C 0.6831(10) -0.0476(13) 0.3074(14) 0.0127 Uiso
C3B C 1.0476(13) 0.7307(8) 0.3074(14) 0.0127 Uiso
C4A C 0.6001(10) -0.1406(14) 0.5101(13) 0.0127 Uiso
C4B C 1.1406(14) 0.7407(10) 0.5101(13) 0.0127 Uiso
C5A C 0.5319(9) -0.0563(13) 0.3796(16) 0.0127 Uiso
C5B C 1.0563(13) 0.5882(9) 0.3796(16) 0.0127 Uiso
C6A C 0.5447(10) 0.0137(12) 0.2787(17) 0.0127 Uiso
C6B C 0.9863(12) 0.5310(7) 0.2787(17) 0.0127 Uiso
C7A C 0.7699(10) -0.0410(15) 0.3665(19) 0.0127 Uiso
C7B C 1.0410(15) 0.8109(11) 0.3665(19) 0.0127 Uiso
O8 O 0.2841(13) -0.0012(18) 0.2277(16) 0.0600 Uiso
O9 O 0.0300(17) 0.1918(12) 0.0191(26) 0.0600 Uiso
O10 O 0.1174(14) 0.0258(13) 0.3952(21) 0.0600 Uiso
O7? O 0.0000 0.0000 0.1040(26) 0.0600 Uiso
C8? C 0.2781(21) 0.2409(25) 0.1036(26) 0.0127 Uiso
loop_
_geom_bond_atom_site_label_1
_geom_bond_atom_site_label_2
_geom_bond_site_symmetry_1
_geom_bond_site_symmetry_2
Y1 O1 1_555 1_555
Y2 O2 1_555 1_555
P1 O1 1_555 1_555
P2 O4 1_555 1_555
O2 P1 1_555 1_555
O3 P1 1_555 1_555
O4 Y1C 1_555 1_555
O5 P2 1_555 1_555
O6 P2 1_555 1_555
N1 C1 1_555 1_555
N2 C3 1_555 1_555
C1 P1 1_555 1_555
C2 N1 1_555 1_555
C3 C2 1_555 1_555
C4 P2 1_555 1_555
C5 N2 1_555 1_555
C6 N1 1_555 1_555
C7 C3 1_555 1_555
Y1D O4A 1_555 1_555
Y1E O4B 1_555 1_555
Y2C O5 1_555 1_555
Y2D O5A 1_555 1_555
Y2E O5B 1_555 1_555
P1A O1A 1_555 1_555
P1B O1B 1_555 1_555
P2A O4A 1_555 1_555
P2B O4B 1_555 1_555
O1A Y1 1_555 1_555
O1B Y1 1_555 1_555
O2A Y2 1_555 1_555
O2B Y2 1_555 1_555
O3A P1A 1_555 1_555
O3B P1B 1_555 1_555
O4C Y1 1_555 1_555
O4D Y1 1_555 1_555
O4E Y1 1_555 1_555
O5A P2A 1_555 1_555
O5B P2B 1_555 1_555
O5C Y2 1_555 1_555
O5D Y2 1_555 1_555
O5E Y2 1_555 1_555
O6A P2A 1_555 1_555
O6B P2B 1_555 1_555
N1A C1A 1_555 1_555
N1B C1B 1_555 1_555
N2A C3A 1_555 1_555
N2B C3B 1_555 1_555
C1A P1A 1_555 1_555
C1B P1B 1_555 1_555
C2A N1A 1_555 1_555
C2B N1B 1_555 1_555
C3A C2A 1_555 1_555
C3B C2B 1_555 1_555
C4A P2A 1_555 1_555
C4B P2B 1_555 1_555
C5A N2A 1_555 1_555
C5B N2B 1_555 1_555
C6A N1A 1_555 1_555
C6B N1B 1_555 1_555
C7A C3A 1_555 1_555
C7B C3B 1_555 1_555
N2 C4 1_555 1_555
C5 C6 1_555 1_555
P1A O2A 1_555 1_555
P1B O2B 1_555 1_555
N2A C4A 1_555 1_555
N2B C4B 1_555 1_555
C5A C6A 1_555 1_555
C5B C6B 1_555 1_555

#END
