
#######################################################################
#
#                 Cambridge Crystallographic Data Centre
#                                CCDC 
#
#######################################################################
#
# If this CIF has been generated from an entry in the Cambridge 
# Structural Database, then it will include bibliographic, chemical, 
# crystal, experimental, refinement or atomic coordinate data resulting 
# from the CCDC's data processing and validation procedures.
#
#######################################################################

data_IQARAW
_chemical_formula_moiety         '(C13 H8 Cu1 N9 O4 Zn2)n'
_chemical_name_systematic        
'catena-[bis(\m-pyrazole-4-carboxylato)-(\m-7H-purin-6-amine)-copper-di-zinc unknown solvate]'
_symmetry_cell_setting           cubic
_symmetry_space_group_name_H-M   'F m -3 c'
_symmetry_Int_Tables_number      226
_space_group_name_Hall           '-F 4a 2 3'
loop_
_symmetry_equiv_pos_site_id
_symmetry_equiv_pos_as_xyz
1 x,y,z
2 -x,-y,z
3 -x,y,-z
4 x,-y,-z
5 z,x,y
6 z,-x,-y
7 -z,-x,y
8 -z,x,-y
9 y,z,x
10 -y,z,-x
11 y,-z,-x
12 -y,-z,x
13 1/2+y,1/2+x,1/2-z
14 1/2-y,1/2-x,1/2-z
15 1/2+y,1/2-x,1/2+z
16 1/2-y,1/2+x,1/2+z
17 1/2+x,1/2+z,1/2-y
18 1/2-x,1/2+z,1/2+y
19 1/2-x,1/2-z,1/2-y
20 1/2+x,1/2-z,1/2+y
21 1/2+z,1/2+y,1/2-x
22 1/2+z,1/2-y,1/2+x
23 1/2-z,1/2+y,1/2+x
24 1/2-z,1/2-y,1/2-x
25 x,1/2+y,1/2+z
26 -x,1/2-y,1/2+z
27 -x,1/2+y,1/2-z
28 x,1/2-y,1/2-z
29 z,1/2+x,1/2+y
30 z,1/2-x,1/2-y
31 -z,1/2-x,1/2+y
32 -z,1/2+x,1/2-y
33 y,1/2+z,1/2+x
34 -y,1/2+z,1/2-x
35 y,1/2-z,1/2-x
36 -y,1/2-z,1/2+x
37 1/2+y,x,-z
38 1/2-y,-x,-z
39 1/2+y,-x,z
40 1/2-y,x,z
41 1/2+x,z,-y
42 1/2-x,z,y
43 1/2-x,-z,-y
44 1/2+x,-z,y
45 1/2+z,y,-x
46 1/2+z,-y,x
47 1/2-z,y,x
48 1/2-z,-y,-x
49 1/2+x,y,1/2+z
50 1/2-x,-y,1/2+z
51 1/2-x,y,1/2-z
52 1/2+x,-y,1/2-z
53 1/2+z,x,1/2+y
54 1/2+z,-x,1/2-y
55 1/2-z,-x,1/2+y
56 1/2-z,x,1/2-y
57 1/2+y,z,1/2+x
58 1/2-y,z,1/2-x
59 1/2+y,-z,1/2-x
60 1/2-y,-z,1/2+x
61 y,1/2+x,-z
62 -y,1/2-x,-z
63 y,1/2-x,z
64 -y,1/2+x,z
65 x,1/2+z,-y
66 -x,1/2+z,y
67 -x,1/2-z,-y
68 x,1/2-z,y
69 z,1/2+y,-x
70 z,1/2-y,x
71 -z,1/2+y,x
72 -z,1/2-y,-x
73 1/2+x,1/2+y,z
74 1/2-x,1/2-y,z
75 1/2-x,1/2+y,-z
76 1/2+x,1/2-y,-z
77 1/2+z,1/2+x,y
78 1/2+z,1/2-x,-y
79 1/2-z,1/2-x,y
80 1/2-z,1/2+x,-y
81 1/2+y,1/2+z,x
82 1/2-y,1/2+z,-x
83 1/2+y,1/2-z,-x
84 1/2-y,1/2-z,x
85 y,x,1/2-z
86 -y,-x,1/2-z
87 y,-x,1/2+z
88 -y,x,1/2+z
89 x,z,1/2-y
90 -x,z,1/2+y
91 -x,-z,1/2-y
92 x,-z,1/2+y
93 z,y,1/2-x
94 z,-y,1/2+x
95 -z,y,1/2+x
96 -z,-y,1/2-x
97 -x,-y,-z
98 x,y,-z
99 x,-y,z
100 -x,y,z
101 -z,-x,-y
102 -z,x,y
103 z,x,-y
104 z,-x,y
105 -y,-z,-x
106 y,-z,x
107 -y,z,x
108 y,z,-x
109 1/2-y,1/2-x,1/2+z
110 1/2+y,1/2+x,1/2+z
111 1/2-y,1/2+x,1/2-z
112 1/2+y,1/2-x,1/2-z
113 1/2-x,1/2-z,1/2+y
114 1/2+x,1/2-z,1/2-y
115 1/2+x,1/2+z,1/2+y
116 1/2-x,1/2+z,1/2-y
117 1/2-z,1/2-y,1/2+x
118 1/2-z,1/2+y,1/2-x
119 1/2+z,1/2-y,1/2-x
120 1/2+z,1/2+y,1/2+x
121 -x,1/2-y,1/2-z
122 x,1/2+y,1/2-z
123 x,1/2-y,1/2+z
124 -x,1/2+y,1/2+z
125 -z,1/2-x,1/2-y
126 -z,1/2+x,1/2+y
127 z,1/2+x,1/2-y
128 z,1/2-x,1/2+y
129 -y,1/2-z,1/2-x
130 y,1/2-z,1/2+x
131 -y,1/2+z,1/2+x
132 y,1/2+z,1/2-x
133 1/2-y,-x,z
134 1/2+y,x,z
135 1/2-y,x,-z
136 1/2+y,-x,-z
137 1/2-x,-z,y
138 1/2+x,-z,-y
139 1/2+x,z,y
140 1/2-x,z,-y
141 1/2-z,-y,x
142 1/2-z,y,-x
143 1/2+z,-y,-x
144 1/2+z,y,x
145 1/2-x,-y,1/2-z
146 1/2+x,y,1/2-z
147 1/2+x,-y,1/2+z
148 1/2-x,y,1/2+z
149 1/2-z,-x,1/2-y
150 1/2-z,x,1/2+y
151 1/2+z,x,1/2-y
152 1/2+z,-x,1/2+y
153 1/2-y,-z,1/2-x
154 1/2+y,-z,1/2+x
155 1/2-y,z,1/2+x
156 1/2+y,z,1/2-x
157 -y,1/2-x,z
158 y,1/2+x,z
159 -y,1/2+x,-z
160 y,1/2-x,-z
161 -x,1/2-z,y
162 x,1/2-z,-y
163 x,1/2+z,y
164 -x,1/2+z,-y
165 -z,1/2-y,x
166 -z,1/2+y,-x
167 z,1/2-y,-x
168 z,1/2+y,x
169 1/2-x,1/2-y,-z
170 1/2+x,1/2+y,-z
171 1/2+x,1/2-y,z
172 1/2-x,1/2+y,z
173 1/2-z,1/2-x,-y
174 1/2-z,1/2+x,y
175 1/2+z,1/2+x,-y
176 1/2+z,1/2-x,y
177 1/2-y,1/2-z,-x
178 1/2+y,1/2-z,x
179 1/2-y,1/2+z,x
180 1/2+y,1/2+z,-x
181 -y,-x,1/2+z
182 y,x,1/2+z
183 -y,x,1/2-z
184 y,-x,1/2-z
185 -x,-z,1/2+y
186 x,-z,1/2-y
187 x,z,1/2+y
188 -x,z,1/2-y
189 -z,-y,1/2+x
190 -z,y,1/2-x
191 z,-y,1/2-x
192 z,y,1/2+x
_cell_length_a                   43.5489(3)
_cell_length_b                   43.5489(3)
_cell_length_c                   43.5489(3)
_cell_angle_alpha                90
_cell_angle_beta                 90
_cell_angle_gamma                90
_cell_volume                     82590.8
_exptl_crystal_colour            'light blue'
_exptl_crystal_description       block
_cell_formula_units_Z            96
loop_
_atom_site_label
_atom_site_type_symbol
_atom_site_fract_x
_atom_site_fract_y
_atom_site_fract_z
_atom_site_U_iso_or_equiv
_atom_site_thermal_displace_type
Zn1 Zn 0.57997(2) 0.27974(2) 0.62074(2) 0.0302 Uani
O1 O 0.58347(6) 0.31686(6) 0.64531(6) 0.0513 Uani
N1 N 0.59537(6) 0.38222(6) 0.71437(6) 0.0326 Uani
N2 N 0.57996(6) 0.36570(6) 0.73687(6) 0.0324 Uani
O2 O 0.55103(7) 0.29371(7) 0.67716(7) 0.0611 Uani
C1 C 0.57626(8) 0.33933(8) 0.69333(9) 0.0405 Uani
C2 C 0.56853(8) 0.34044(8) 0.72377(8) 0.0393 Uani
H1 H 0.556936 0.325665 0.733928 0.0470 Uiso
C3 C 0.59336(8) 0.36576(8) 0.68846(8) 0.0387 Uani
H2 H 0.602192 0.371276 0.669815 0.0470 Uiso
C4 C 0.56956(9) 0.31494(9) 0.67094(9) 0.0438 Uani
N3 N 0.53185(15) 0.28940(13) 0.53905(8) 0.0987 Uani
C5 C 0.55520(11) 0.28792(18) 0.55955(12) 0.0563 Uani
H3 H 0.575765 0.288322 0.553814 0.0670 Uiso
N4 N 0.54616(7) 0.28587(16) 0.58838(10) 0.0317 Uani
C6 C 0.51439(7) 0.28596(6) 0.58627(6) 0.0413 Uani
C7 C 0.49082(6) 0.28436(6) 0.60840(6) 0.0300 Uani
N5 N 0.49590(10) 0.28216(9) 0.63858(6) 0.0383 Uani
H4 H 0.480669 0.281209 0.651108 0.0460 Uiso
H5 H 0.514402 0.281710 0.645467 0.0460 Uiso
N6 N 0.46144(6) 0.28501(15) 0.59840(10) 0.0347 Uani
C8 C 0.45614(10) 0.28717(18) 0.56818(11) 0.0663 Uani
H6 H 0.435587 0.287562 0.562389 0.0800 Uiso
N7 N 0.47643(14) 0.28884(15) 0.54526(8) 0.0977 Uani
C9 C 0.50536(12) 0.28816(8) 0.55577(5) 0.0813 Uani
Cu1 Cu 0.53149(5) 0.28021(6) 0.500000 0.0623 Uani
N3UC N 0.46815(15) 0.28940(13) 0.53905(8) 0.0987 Uani
C5UC C 0.44480(11) 0.28792(18) 0.55955(12) 0.0563 Uani
H3UC H 0.424235 0.288322 0.553814 0.0670 Uiso
N4UC N 0.45384(7) 0.28587(16) 0.58838(10) 0.0317 Uani
C6UC C 0.48561(7) 0.28596(6) 0.58627(6) 0.0413 Uani
C7UC C 0.50918(6) 0.28436(6) 0.60840(6) 0.0300 Uani
N5UC N 0.50410(10) 0.28216(9) 0.63858(6) 0.0383 Uani
H4UC H 0.519331 0.281209 0.651108 0.0460 Uiso
H5UC H 0.485598 0.281710 0.645467 0.0460 Uiso
N6UC N 0.53856(6) 0.28501(15) 0.59840(10) 0.0347 Uani
C8UC C 0.54386(10) 0.28717(18) 0.56818(11) 0.0663 Uani
H6UC H 0.564413 0.287562 0.562389 0.0800 Uiso
N7UC N 0.52357(14) 0.28884(15) 0.54526(8) 0.0977 Uani
C9UC C 0.49464(12) 0.28816(8) 0.55577(5) 0.0813 Uani
Zn1K Zn 0.72026(2) 0.37926(2) 0.57997(2) 0.0302 Uani
O1K O 0.68314(6) 0.35469(6) 0.58347(6) 0.0513 Uani
N1K N 0.61778(6) 0.28563(6) 0.59537(6) 0.0326 Uani
N2K N 0.63430(6) 0.26313(6) 0.57996(6) 0.0324 Uani
O2K O 0.70629(7) 0.32284(7) 0.55103(7) 0.0611 Uani
C1K C 0.66067(8) 0.30667(9) 0.57626(8) 0.0405 Uani
C2K C 0.65956(8) 0.27623(8) 0.56853(8) 0.0393 Uani
H1K H 0.674335 0.266072 0.556936 0.0470 Uiso
C3K C 0.63424(8) 0.31154(8) 0.59336(8) 0.0387 Uani
H2K H 0.628724 0.330185 0.602192 0.0470 Uiso
C4K C 0.68506(9) 0.32906(9) 0.56956(9) 0.0438 Uani
Zn1E Zn 0.62074(2) 0.42003(2) 0.72026(2) 0.0302 Uani
Zn1QB Zn 0.62074(2) 0.22026(2) 0.57997(2) 0.0302 Uani
Zn1MC Zn 0.57997(2) 0.37926(2) 0.77974(2) 0.0302 Uani
Zn1UC Zn 0.42003(2) 0.27974(2) 0.62074(2) 0.0302 Uani
N1E N 0.71437(6) 0.40463(6) 0.61778(6) 0.0326 Uani
N2TA N 0.76313(6) 0.36570(6) 0.57996(6) 0.0324 Uani
N2LB N 0.57996(6) 0.23687(6) 0.63430(6) 0.0324 Uani
N3SC N 0.53185(15) 0.28940(13) 0.46095(8) 0.0987 Uani
N4K N 0.71413(16) 0.41162(10) 0.54616(7) 0.0317 Uani
N6ZC N 0.71499(15) 0.40160(10) 0.53856(6) 0.0347 Uani
N7B N 0.52357(14) 0.28884(15) 0.45474(8) 0.0977 Uani
Cu1B Cu 0.46851(5) 0.28021(6) 0.500000 0.0623 Uani
Cu2? Cu 0.53236(5) 0.30259(9) 0.500000 0.0856 Uani
loop_
_atom_site_aniso_label
_atom_site_aniso_U_11
_atom_site_aniso_U_22
_atom_site_aniso_U_33
_atom_site_aniso_U_23
_atom_site_aniso_U_13
_atom_site_aniso_U_12
Zn1 0.0294(2) 0.0294(2) 0.0317(2) -0.00285(17) -0.00015(17) -0.00085(17)
O1 0.0549(17) 0.0511(16) 0.0479(16) -0.0139(13) 0.0021(13) -0.0024(13)
N1 0.0316(14) 0.0349(15) 0.0314(14) -0.0034(11) 0.0033(11) -0.0031(12)
N2 0.0324(14) 0.0298(13) 0.0349(14) -0.0007(11) -0.0003(11) -0.0024(11)
O2 0.071(2) 0.0444(16) 0.068(2) -0.0096(14) 0.0032(16) -0.0153(15)
C1 0.0334(18) 0.042(2) 0.046(2) -0.0090(16) -0.0013(16) -0.0043(15)
C2 0.045(2) 0.0365(18) 0.0364(18) -0.0039(15) -0.0032(16) -0.0108(15)
C3 0.0387(19) 0.044(2) 0.0335(18) -0.0137(15) 0.0046(14) -0.0034(16)
C4 0.0345(18) 0.049(2) 0.048(2) -0.0066(17) 0.0003(16) 0.0033(16)
N3 0.039(5) 0.214(13) 0.043(4) 0.005(6) -0.013(3) 0.016(6)
C5 0.031(4) 0.117(8) 0.021(4) -0.015(4) -0.001(3) 0.008(5)
N4 0.021(3) 0.056(4) 0.018(3) -0.008(3) -0.004(3) 0.005(3)
C6 0.027(3) 0.067(5) 0.030(3) -0.003(3) -0.002(2) -0.001(3)
C7 0.023(3) 0.029(3) 0.038(3) -0.002(3) 0.0030(19) 0.000(2)
N5 0.035(4) 0.050(3) 0.030(2) 0.0023(19) 0.002(3) -0.005(3)
N6 0.035(3) 0.039(4) 0.030(4) -0.010(3) -0.010(3) 0.004(3)
C8 0.029(5) 0.132(9) 0.038(5) -0.013(6) -0.006(4) 0.006(5)
N7 0.030(5) 0.227(13) 0.036(4) -0.006(6) 0.009(3) 0.001(6)
C9 0.044(6) 0.173(9) 0.027(3) -0.005(4) -0.019(3) -0.008(5)
Cu1 0.0466(11) 0.0820(15) 0.0584(12) 0.000 0.000 0.0073(12)
N3UC 0.039 0.214 0.043 0.005 0.013 -0.016
C5UC 0.031 0.117 0.021 -0.015 0.001 -0.008
N4UC 0.021 0.056 0.018 -0.008 0.004 -0.005
C6UC 0.027 0.067 0.03 -0.003 0.002 0.001
C7UC 0.023 0.029 0.038 -0.002 -0.003 0
N5UC 0.035 0.05 0.03 0.0023 -0.002 0.005
N6UC 0.035 0.039 0.03 -0.01 0.01 -0.004
C8UC 0.029 0.132 0.038 -0.013 0.006 -0.006
N7UC 0.03 0.227 0.036 -0.006 -0.009 -0.001
C9UC 0.044 0.173 0.027 -0.005 0.019 0.008
Zn1K 0.0294 0.0317 0.0294 0.00015 0.00085 -0.00285
O1K 0.0511 0.0479 0.0549 -0.0021 0.0024 -0.0139
N1K 0.0349 0.0314 0.0316 -0.0033 0.0031 -0.0034
N2K 0.0298 0.0349 0.0324 0.0003 0.0024 -0.0007
O2K 0.0444 0.068 0.071 -0.0032 0.0153 -0.0096
C1K 0.042 0.046 0.0334 0.0013 0.0043 -0.009
C2K 0.0365 0.0364 0.045 0.0032 0.0108 -0.0039
C3K 0.044 0.0335 0.0387 -0.0046 0.0034 -0.0137
C4K 0.049 0.048 0.0345 -0.0003 -0.0033 -0.0066
Zn1E 0.0317 0.0294 0.0294 -0.00085 0.00285 0.00015
Zn1QB 0.0317 0.0294 0.0294 0.00085 -0.00015 0.00285
Zn1MC 0.0294 0.0317 0.0294 0.00285 -0.00085 0.00015
Zn1UC 0.0294 0.0294 0.0317 -0.00285 0.00015 0.00085
N1E 0.0314 0.0316 0.0349 -0.0031 0.0034 -0.0033
N2TA 0.0349 0.0298 0.0324 -0.0024 0.0003 0.0007
N2LB 0.0324 0.0349 0.0298 0.0007 0.0024 -0.0003
N3SC 0.039 0.214 0.043 -0.005 0.013 0.016
N4K 0.056 0.018 0.021 0.004 -0.005 -0.008
N6ZC 0.039 0.03 0.035 -0.01 0.004 -0.01
N7B 0.03 0.227 0.036 0.006 0.009 -0.001
Cu1B 0.0466 0.082 0.0584 0 0 -0.0073
Cu2? 0.0417(12) 0.153(3) 0.0622(14) 0.000 0.000 0.0007(17)
loop_
_geom_bond_atom_site_label_1
_geom_bond_atom_site_label_2
_geom_bond_site_symmetry_1
_geom_bond_site_symmetry_2
Zn1 O1 1_555 1_555
O1 C4 1_555 1_555
N1 N2 1_555 1_555
N2 C2 1_555 1_555
O2 C4 1_555 1_555
C1 C2 1_555 1_555
C2 H1 1_555 1_555
C3 N1 1_555 1_555
H2 C3 1_555 1_555
C4 C1 1_555 1_555
N3 C5 1_555 1_555
C5 H3 1_555 1_555
N4 Zn1 1_555 1_555
C6 N4 1_555 1_555
C7 N5 1_555 1_555
N5 H4 1_555 1_555
H4 N5UC 1_555 1_555
H5 N5 1_555 1_555
N6 C7 1_555 1_555
C8 N6 1_555 1_555
H6 C8 1_555 1_555
N7 C8 1_555 1_555
C9 N3 1_555 1_555
Cu1 N3 1_555 1_555
N3UC C8 1_555 1_555
C5UC C8 1_555 1_555
H3UC C5UC 1_555 1_555
N4UC C8 1_555 1_555
C6UC C6 1_555 1_555
C7UC C7 1_555 1_555
N5UC C7 1_555 1_555
H4UC N5 1_555 1_555
H5UC N5UC 1_555 1_555
N6UC Zn1 1_555 1_555
C8UC N3 1_555 1_555
H6UC C8UC 1_555 1_555
N7UC C5 1_555 1_555
C9UC N3 1_555 1_555
Zn1K O1K 1_555 1_555
O1K C4K 1_555 1_555
N1K Zn1 1_555 1_555
N2K N1K 1_555 1_555
O2K C4K 1_555 1_555
C1K C2K 1_555 1_555
C2K N2K 1_555 1_555
H1K C2K 1_555 1_555
C3K N1K 1_555 1_555
H2K C3K 1_555 1_555
C4K C1K 1_555 1_555
Zn1E N1 1_555 1_555
Zn1QB N2K 1_555 1_555
Zn1MC N2 1_555 1_555
Zn1UC N6 1_555 1_555
N1E Zn1K 1_555 1_555
N2TA Zn1K 1_555 1_555
N2LB Zn1 1_555 1_555
N3SC Cu1 1_555 1_555
N4K Zn1K 1_555 1_555
N6ZC Zn1K 1_555 1_555
N7B Cu1 1_555 1_555
Cu1B N7 1_555 1_555
C1 C3 1_555 1_555
C5 N4 1_555 1_555
C5 C8UC 1_555 1_555
N4 C8UC 1_555 1_555
C6 C9 1_555 1_555
C6 N6UC 1_555 1_555
C6 C8UC 1_555 1_555
C6 C9UC 1_555 1_555
N5 C7UC 1_555 1_555
N6 C6UC 1_555 1_555
C8 C6UC 1_555 1_555
N7 C9 1_555 1_555
N7 C5UC 1_555 1_555
N7 C9UC 1_555 1_555
C9 N3UC 1_555 1_555
C9 C6UC 1_555 1_555
C9 N7UC 1_555 1_555
Cu1 N7UC 1_555 1_555
Cu1 Cu1B 1_555 1_555
N3UC C5UC 1_555 1_555
N3UC C9UC 1_555 1_555
N3UC Cu1B 1_555 1_555
C5UC N4UC 1_555 1_555
N4UC C6UC 1_555 1_555
N4UC Zn1UC 1_555 1_555
C6UC C9UC 1_555 1_555
C7UC N5UC 1_555 1_555
C7UC N6UC 1_555 1_555
N5UC H4UC 1_555 1_555
N6UC C8UC 1_555 1_555
C8UC N7UC 1_555 1_555
N7UC C9UC 1_555 1_555
C1K C3K 1_555 1_555

#END
