
#######################################################################
#
#                 Cambridge Crystallographic Data Centre
#                                CCDC 
#
#######################################################################
#
# If this CIF has been generated from an entry in the Cambridge 
# Structural Database, then it will include bibliographic, chemical, 
# crystal, experimental, refinement or atomic coordinate data resulting 
# from the CCDC's data processing and validation procedures.
#
#######################################################################

data_KIXXOG
_chemical_formula_moiety         '(C15 H13 Ca1 N1 O5)n'
_chemical_name_systematic        
catena-((\m~5~-Naphthalene-1,4-dicarboxylato)-dimethylformamide-calcium)
_symmetry_cell_setting           orthorhombic
_symmetry_space_group_name_H-M   'P 21 21 21'
_symmetry_Int_Tables_number      19
_space_group_name_Hall           'P 2ac 2ab'
loop_
_symmetry_equiv_pos_site_id
_symmetry_equiv_pos_as_xyz
1 x,y,z
2 1/2-x,-y,1/2+z
3 -x,1/2+y,1/2-z
4 1/2+x,1/2-y,-z
_cell_length_a                   6.70170(10)
_cell_length_b                   14.3958(3)
_cell_length_c                   14.9405(3)
_cell_angle_alpha                90
_cell_angle_beta                 90
_cell_angle_gamma                90
_cell_volume                     1441.4
_exptl_crystal_colour            colorless
_exptl_crystal_description       columnar
_cell_formula_units_Z            4
loop_
_atom_site_label
_atom_site_type_symbol
_atom_site_fract_x
_atom_site_fract_y
_atom_site_fract_z
Ca1 Ca 0.13673(5) 0.196138(19) 0.541930(18)
O1 O 0.28126(18) 0.29547(8) 0.42152(7)
O2 O -0.00807(18) 0.34347(8) 0.47472(8)
O3 O 0.2172(2) 0.70052(10) 0.14109(9)
O4 O -0.0076(2) 0.60870(10) 0.07589(9)
C1 C 0.1368(3) 0.35090(10) 0.42122(10)
C2 C 0.1344(3) 0.42701(10) 0.35208(10)
C3 C 0.1353(4) 0.40216(11) 0.26444(11)
H1 H 0.1466 0.3398 0.2488
C4 C 0.1194(4) 0.47014(13) 0.19694(12)
H2 H 0.1087 0.4514 0.1375
C5 C 0.1191(3) 0.56227(11) 0.21649(11)
C6 C 0.1275(3) 0.59147(11) 0.30747(11)
C7 C 0.1278(3) 0.52249(11) 0.37633(10)
C8 C 0.1313(4) 0.68656(12) 0.33362(13)
H3 H 0.1351 0.7325 0.2899
C9 C 0.1295(6) 0.71117(14) 0.42088(16)
H4 H 0.1313 0.7737 0.4364
C10 C 0.1250(7) 0.64334(15) 0.48849(16)
H5 H 0.1216 0.6612 0.5483
C11 C 0.1254(5) 0.55133(13) 0.46656(13)
H6 H 0.1242 0.5069 0.5118
C12 C 0.1086(3) 0.62988(12) 0.13829(11)
O5 O 0.1347(3) 0.08026(12) 0.64603(13)
C13 C 0.1345(7) 0.0199(3) 0.7038(4)
H7 H 0.1390 0.0376 0.7636
N1 N 0.1283(7) -0.0684(3) 0.6842(4)
C14 C 0.1401(14) -0.1436(5) 0.7529(5)
H8 H 0.1584 -0.1165 0.8111
H9 H 0.2508 -0.1836 0.7396
H10 H 0.0188 -0.1790 0.7523
C15 C 0.1259(10) -0.0976(4) 0.5934(3)
H11 H 0.0294 -0.1463 0.5860
H12 H 0.2556 -0.1202 0.5771
H13 H 0.0912 -0.0460 0.5558
Ca1A Ca 0.36327(5) 0.803862(19) 0.041930(18)
Ca1B Ca -0.13673(5) 0.696138(19) -0.041930(18)
Ca1C Ca -0.36327(5) 0.303862(19) 0.458070(18)
Ca1C_2 Ca 0.63673(5) 0.303862(19) 0.458070(18)
O1C O -0.21874(18) 0.20453(8) 0.57848(7)
O2C O 0.49193(18) 0.15653(8) 0.52528(8)
O3A O 0.2828(2) 0.29948(10) 0.64109(9)
O4B O 0.0076(2) 0.10870(10) 0.42411(9)
C16? C 0.1353(10) -0.0093(5) 0.6557(5)
H14? H 0.1390 -0.0483 0.6061
N2? N 0.1307(8) -0.0435(5) 0.7366(5)
C17? C 0.119(3) -0.1380(10) 0.7507(12)
H15? H 0.1152 -0.1695 0.6941
H16? H -0.0002 -0.1520 0.7838
H17? H 0.2334 -0.1583 0.7840
C18? C 0.1245(12) 0.0161(7) 0.8151(5)
H18? H 0.1107 0.0796 0.7966
H19? H 0.2458 0.0090 0.8486
H20? H 0.0130 -0.0010 0.8519
loop_
_geom_bond_atom_site_label_1
_geom_bond_atom_site_label_2
_geom_bond_site_symmetry_1
_geom_bond_site_symmetry_2
Ca1 O1 1_555 1_555
O1 C1 1_555 1_555
O2 Ca1 1_555 1_555
O3 C12 1_555 1_555
O4 C12 1_555 1_555
C1 O2 1_555 1_555
C2 C1 1_555 1_555
C3 C2 1_555 1_555
H1 C3 1_555 1_555
C4 C3 1_555 1_555
H2 C4 1_555 1_555
C5 C4 1_555 1_555
C6 C5 1_555 1_555
C7 C2 1_555 1_555
C8 C6 1_555 1_555
H3 C8 1_555 1_555
C9 C8 1_555 1_555
H4 C9 1_555 1_555
C10 C9 1_555 1_555
H5 C10 1_555 1_555
C11 C7 1_555 1_555
H6 C11 1_555 1_555
C12 C5 1_555 1_555
O5 Ca1 1_555 1_555
C13 O5 1_555 1_555
H7 C13 1_555 1_555
N1 C13 1_555 1_555
C14 N1 1_555 1_555
H8 C14 1_555 1_555
H9 C14 1_555 1_555
H10 C14 1_555 1_555
C15 N1 1_555 1_555
H11 C15 1_555 1_555
H12 C15 1_555 1_555
H13 C15 1_555 1_555
Ca1A O3 1_555 1_555
Ca1B O4 1_555 1_555
Ca1C O2 1_555 1_555
Ca1C_2 O1 1_555 1_555
O1C Ca1 1_555 1_555
O2C Ca1 1_555 1_555
O3A Ca1 1_555 1_555
O4B Ca1 1_555 1_555
C6 C7 1_555 1_555
C10 C11 1_555 1_555
Ca1C O1C 1_555 1_555
Ca1C_2 O2C 1_555 1_555

#END
