
#######################################################################
#
#                 Cambridge Crystallographic Data Centre
#                                CCDC 
#
#######################################################################
#
# If this CIF has been generated from an entry in the Cambridge 
# Structural Database, then it will include bibliographic, chemical, 
# crystal, experimental, refinement or atomic coordinate data resulting 
# from the CCDC's data processing and validation procedures.
#
#######################################################################

data_KIYLUB
_chemical_formula_moiety         '(C12 H11 Li1 O6)n'
_chemical_name_systematic        
'catena-((\m~2~-Hydrogen naphthalene-1,4-dicarboxylato)-diaqua-lithium)'
_symmetry_cell_setting           monoclinic
_symmetry_space_group_name_H-M   'P 21/c'
_symmetry_Int_Tables_number      14
_space_group_name_Hall           '-P 2ybc'
loop_
_symmetry_equiv_pos_site_id
_symmetry_equiv_pos_as_xyz
1 x,y,z
2 -x,1/2+y,1/2-z
3 -x,-y,-z
4 x,1/2-y,1/2+z
_cell_length_a                   8.0959(4)
_cell_length_b                   18.7760(10)
_cell_length_c                   7.9719(4)
_cell_angle_alpha                90
_cell_angle_beta                 111.190(3)
_cell_angle_gamma                90
_cell_volume                     1129.86
_exptl_crystal_colour            colorless
_exptl_crystal_description       lamellar
_cell_formula_units_Z            4
loop_
_atom_site_label
_atom_site_type_symbol
_atom_site_fract_x
_atom_site_fract_y
_atom_site_fract_z
_atom_site_U_iso_or_equiv
_atom_site_thermal_displace_type
Li1 Li 0.2703(3) 1.02603(12) 0.6961(4) 0.0340 Uani
O1 O 0.25966(13) 0.91866(4) 0.68533(15) 0.0339 Uani
O2 O 0.14683(15) 1.05386(6) 0.45334(15) 0.0426 Uani
H1 H 0.1591 1.0281 0.3617 0.0640 Uiso
H2 H 0.0513 1.0757 0.4073 0.0640 Uiso
O3 O 0.54715(13) 0.90021(5) 0.76303(18) 0.0477 Uani
H3 H 0.5484 0.9439 0.7651 0.0570 Uiso
O4 O 0.16200(15) 1.05894(7) 0.85632(15) 0.0465 Uani
H4 H 0.0524 1.0615 0.8409 0.0700 Uiso
H5 H 0.2184 1.0703 0.9627 0.0700 Uiso
O5 O 0.19560(14) 0.54056(5) 0.70364(17) 0.0422 Uani
O6 O 0.47541(14) 0.53513(5) 0.73056(16) 0.0401 Uani
C1 C 0.20416(15) 0.68915(6) 0.56741(16) 0.0219 Uani
C2 C 0.21539(16) 0.76540(6) 0.56973(16) 0.0217 Uani
C3 C 0.07863(17) 0.80402(6) 0.43851(18) 0.0271 Uani
H6 H 0.0860 0.8534 0.4354 0.0330 Uiso
C4 C -0.06306(18) 0.77043(7) 0.31710(19) 0.0318 Uani
H7 H -0.1527 0.7970 0.2344 0.0380 Uiso
C5 C -0.07474(18) 0.69597(7) 0.31597(19) 0.0316 Uani
H8 H -0.1724 0.6733 0.2330 0.0380 Uiso
C6 C 0.05635(17) 0.65665(7) 0.43595(18) 0.0273 Uani
H9 H 0.0484 0.6072 0.4313 0.0330 Uiso
C7 C 0.34402(16) 0.64936(6) 0.69345(17) 0.0239 Uani
C8 C 0.48945(17) 0.68339(6) 0.81066(19) 0.0283 Uani
H10 H 0.5821 0.6567 0.8891 0.0340 Uiso
C9 C 0.50063(18) 0.75815(6) 0.81410(19) 0.0285 Uani
H11 H 0.6000 0.7804 0.8954 0.0340 Uiso
C10 C 0.36632(16) 0.79853(6) 0.69871(17) 0.0239 Uani
C11 C 0.38346(17) 0.87767(6) 0.71377(18) 0.0262 Uani
C12 C 0.33534(17) 0.56946(6) 0.70911(18) 0.0270 Uani
Li1A Li 0.7297(3) 0.52603(12) 0.8039(4) 0.0340 Uani
O6A O 0.52459(14) 1.03513(5) 0.76944(16) 0.0401 Uani
loop_
_atom_site_aniso_label
_atom_site_aniso_U_11
_atom_site_aniso_U_22
_atom_site_aniso_U_33
_atom_site_aniso_U_23
_atom_site_aniso_U_13
_atom_site_aniso_U_12
Li1 0.0312(12) 0.0236(10) 0.0484(14) -0.0008(10) 0.0158(10) 0.0022(9)
O1 0.0279(5) 0.0153(4) 0.0574(7) -0.0019(4) 0.0140(4) 0.0011(4)
O2 0.0471(7) 0.0370(6) 0.0426(6) 0.0019(4) 0.0149(5) 0.0123(5)
O3 0.0276(5) 0.0155(4) 0.0950(10) -0.0018(5) 0.0161(6) -0.0023(4)
O4 0.0369(6) 0.0597(7) 0.0424(6) -0.0053(5) 0.0139(5) 0.0109(5)
O5 0.0324(6) 0.0231(5) 0.0736(8) 0.0124(5) 0.0220(5) -0.0012(4)
O6 0.0287(5) 0.0152(4) 0.0735(8) 0.0011(4) 0.0151(5) 0.0043(4)
C1 0.0237(6) 0.0153(5) 0.0307(6) -0.0002(4) 0.0146(5) -0.0002(4)
C2 0.0232(6) 0.0159(5) 0.0286(6) 0.0005(4) 0.0125(5) 0.0008(4)
C3 0.0299(7) 0.0178(5) 0.0347(7) 0.0034(5) 0.0130(5) 0.0039(5)
C4 0.0283(7) 0.0298(7) 0.0341(7) 0.0039(5) 0.0075(6) 0.0052(5)
C5 0.0271(7) 0.0304(7) 0.0350(7) -0.0042(5) 0.0083(5) -0.0042(5)
C6 0.0298(7) 0.0196(6) 0.0345(7) -0.0025(5) 0.0140(6) -0.0036(5)
C7 0.0253(6) 0.0145(5) 0.0348(7) 0.0018(4) 0.0144(5) 0.0018(4)
C8 0.0258(6) 0.0179(6) 0.0383(7) 0.0032(5) 0.0081(5) 0.0038(5)
C9 0.0253(6) 0.0193(6) 0.0380(7) -0.0014(5) 0.0080(5) -0.0012(5)
C10 0.0252(6) 0.0140(5) 0.0346(7) 0.0002(4) 0.0133(5) -0.0001(4)
C11 0.0268(6) 0.0166(5) 0.0357(7) -0.0002(5) 0.0120(5) -0.0012(5)
C12 0.0266(6) 0.0156(6) 0.0375(7) 0.0020(5) 0.0102(5) 0.0013(4)
Li1A 0.0312 0.0236 0.0484 0.0008 0.0158 -0.0022
O6A 0.0287 0.0152 0.0735 -0.0011 0.0151 -0.0043
loop_
_geom_bond_atom_site_label_1
_geom_bond_atom_site_label_2
_geom_bond_site_symmetry_1
_geom_bond_site_symmetry_2
Li1 O1 1_555 1_555
O1 C11 1_555 1_555
O2 Li1 1_555 1_555
H1 O2 1_555 1_555
H2 O2 1_555 1_555
O3 H3 1_555 1_555
O4 Li1 1_555 1_555
H4 O4 1_555 1_555
H5 O4 1_555 1_555
O5 C12 1_555 1_555
O6 C12 1_555 1_555
C1 C2 1_555 1_555
C2 C3 1_555 1_555
C3 H6 1_555 1_555
C4 C3 1_555 1_555
H7 C4 1_555 1_555
C5 C4 1_555 1_555
H8 C5 1_555 1_555
C6 C1 1_555 1_555
H9 C6 1_555 1_555
C7 C1 1_555 1_555
C8 C7 1_555 1_555
H10 C8 1_555 1_555
C9 C8 1_555 1_555
H11 C9 1_555 1_555
C10 C2 1_555 1_555
C11 O3 1_555 1_555
C12 C7 1_555 1_555
Li1A O6 1_555 1_555
O6A Li1 1_555 1_555
C5 C6 1_555 1_555
C9 C10 1_555 1_555
C10 C11 1_555 1_555

#END
