
#######################################################################
#
#                 Cambridge Crystallographic Data Centre
#                                CCDC 
#
#######################################################################
#
# If this CIF has been generated from an entry in the Cambridge 
# Structural Database, then it will include bibliographic, chemical, 
# crystal, experimental, refinement or atomic coordinate data resulting 
# from the CCDC's data processing and validation procedures.
#
#######################################################################

data_GOXZAW
_chemical_formula_moiety         '(C6 H6 O16 Zr3)n,2.5(H2 O1),0.5(C3 H7 N1 O1)'
_chemical_name_systematic        
'catena-[tetrakis(\m-oxo)-hexakis(\m-acetato)-tri-zirconium N,N-dimethylformamide solvate hydrate]'
_symmetry_cell_setting           orthorhombic
_symmetry_space_group_name_H-M   'C m c m'
_symmetry_Int_Tables_number      63
_space_group_name_Hall           '-C 2c 2'
loop_
_symmetry_equiv_pos_site_id
_symmetry_equiv_pos_as_xyz
1 x,y,z
2 -x,-y,1/2+z
3 x,-y,-z
4 -x,y,1/2-z
5 1/2+x,1/2+y,z
6 1/2-x,1/2-y,1/2+z
7 1/2+x,1/2-y,-z
8 1/2-x,1/2+y,1/2-z
9 -x,-y,-z
10 x,y,1/2-z
11 -x,y,z
12 x,-y,1/2+z
13 1/2-x,1/2-y,-z
14 1/2+x,1/2+y,1/2-z
15 1/2-x,1/2+y,z
16 1/2+x,1/2-y,1/2+z
_cell_length_a                   10.04970(10)
_cell_length_b                   19.9849(3)
_cell_length_c                   19.7712(2)
_cell_angle_alpha                90
_cell_angle_beta                 90
_cell_angle_gamma                90
_cell_volume                     3970.89
_exptl_crystal_colour            colorless
_exptl_crystal_description       plate
_cell_formula_units_Z            8
loop_
_atom_site_label
_atom_site_type_symbol
_atom_site_fract_x
_atom_site_fract_y
_atom_site_fract_z
O10 O 0.0000 0.6154(6) 0.7500
O11 O 0.0000 0.098(2) 0.7500
O12 O 0.5000 0.3453(18) 0.0384(17)
C1 C 0.0000 0.958(2) 0.9092(11)
H1 H 0.0000 0.9121 0.9010
O1 O 0.1090(9) 0.9938(10) 0.9157(5)
O2 O 0.3683(6) 1.1623(3) 0.8962(3)
C2 C 0.2848(10) 1.1347(5) 0.8577(5)
H2 H 0.2404 1.1627 0.8276
O3 O 0.3382(5) 0.9566(3) 0.8056(2)
O4 O 0.2548(6) 1.0742(3) 0.8551(4)
C3 C 0.314(2) 0.9797(9) 0.7500
H3 H 0.2710 1.0209 0.7500
O5 O 0.5000 1.0448(6) 0.8851(7)
O6 O 0.5000 0.9341(6) 0.9375(6)
Zr1 Zr 0.32374(5) 0.98136(3) 0.91244(3)
Zr2 Zr 0.5000 1.11995(4) 0.97395(4)
O7 O 0.3507(11) 1.0519(5) 0.9901(5)
O8 O 0.2511(6) 0.8743(3) 0.9000(3)
O9 O 0.3681(6) 0.8100(3) 0.9723(3)
C4 C 0.2810(10) 0.8202(4) 0.9269(5)
H4 H 0.2342 0.7828 0.9122
O1J O -0.1090(9) 0.9938(10) 0.9157(5)
O3I O 0.3382(5) 0.9566(3) 0.6944(2)
O2B O 0.3683(6) 0.8377(3) 1.1038(3)
C2B C 0.2848(10) 0.8653(5) 1.1423(5)
H2B H 0.2404 0.8373 1.1724
O4B O 0.2548(6) 0.9258(3) 1.1449(4)
Zr1B Zr 0.32374(5) 1.01864(3) 1.08756(3)
O7B O 0.3507(11) 0.9481(5) 1.0099(5)
O8B O 0.2511(6) 1.1257(3) 1.1000(3)
O9B O 0.3681(6) 1.1900(3) 1.0277(3)
C4B C 0.2810(10) 1.1798(4) 1.0731(5)
H4B H 0.2342 1.2172 1.0878
O1B O 0.1090(9) 1.0062(10) 1.0843(5)
O2J O 0.6317(6) 1.1623(3) 0.8962(3)
O3B O 0.3382(5) 1.0434(3) 1.1944(2)
O5B O 0.5000 0.9552(6) 1.1149(7)
O6B O 0.5000 1.0659(6) 1.0625(6)
Zr1I Zr 0.32374(5) 0.98136(3) 0.58756(3)
Zr1J Zr -0.32374(5) 0.98136(3) 0.91244(3)
Zr1J_2 Zr 0.67626(5) 0.98136(3) 0.91244(3)
Zr2B Zr 0.5000 0.88005(4) 1.02605(4)
O7J O 0.6493(11) 1.0519(5) 0.9901(5)
O9H O 0.6319(6) 1.1900(3) 1.0277(3)
C5? C 0.0000 0.985(2) 0.9094(13)
H5? H 0.0000 1.0159 0.8744
O13? O 0.1096(14) 0.9712(13) 0.9248(8)
O14? O 0.5000 0.9122(7) 0.9105(6)
O15? O 0.5000 1.0348(6) 0.9125(7)
O16? O 0.2964(12) 1.0659(5) 0.9836(5)
N1? N 0.933(4) 0.809(2) 0.7500
C6? C 1.0000 0.743(2) 0.7500
C7? C 1.020(8) 0.869(4) 0.7500
C8? C 0.805(4) 0.8148(18) 0.7500
O17? O 0.750(4) 0.758(2) 0.7500
O18? O 0.5000 0.7985(15) 0.7065(12)
loop_
_geom_bond_atom_site_label_1
_geom_bond_atom_site_label_2
_geom_bond_site_symmetry_1
_geom_bond_site_symmetry_2
C1 H1 1_555 1_555
O1 C1 1_555 1_555
O2 C2 1_555 1_555
C2 H2 1_555 1_555
O3 C3 1_555 1_555
O4 C2 1_555 1_555
C3 H3 1_555 1_555
O5 Zr1 1_555 1_555
O6 Zr1 1_555 1_555
Zr1 O1 1_555 1_555
Zr2 O2 1_555 1_555
O7 Zr1 1_555 1_555
O8 Zr1 1_555 1_555
O9 C4 1_555 1_555
C4 O8 1_555 1_555
H4 C4 1_555 1_555
O1J C1 1_555 1_555
O3I C3 1_555 1_555
O2B C2B 1_555 1_555
C2B H2B 1_555 1_555
O4B C2B 1_555 1_555
Zr1B O7 1_555 1_555
O7B Zr1 1_555 1_555
O8B Zr1B 1_555 1_555
O9B Zr2 1_555 1_555
C4B O8B 1_555 1_555
H4B C4B 1_555 1_555
O1B Zr1B 1_555 1_555
O2J Zr2 1_555 1_555
O3B Zr1B 1_555 1_555
O5B Zr1B 1_555 1_555
O6B Zr2 1_555 1_555
Zr1I O3I 1_555 1_555
Zr1J O1J 1_555 1_555
Zr1J_2 O5 1_555 1_555
Zr2B O6 1_555 1_555
O7J Zr2 1_555 1_555
O9H Zr2 1_555 1_555
O3 Zr1 1_555 1_555
O4 Zr1 1_555 1_555
O5 Zr2 1_555 1_555
O6 Zr1J_2 1_555 1_555
Zr2 O7 1_555 1_555
O9 Zr2B 1_555 1_555
O2B Zr2B 1_555 1_555
O4B Zr1B 1_555 1_555
Zr1B O7B 1_555 1_555
Zr1B O6B 1_555 1_555
O7B Zr2B 1_555 1_555
O9B C4B 1_555 1_555
O5B Zr2B 1_555 1_555
Zr1J_2 O7J 1_555 1_555

#END
