
#######################################################################
#
#                 Cambridge Crystallographic Data Centre
#                                CCDC 
#
#######################################################################
#
# If this CIF has been generated from an entry in the Cambridge 
# Structural Database, then it will include bibliographic, chemical, 
# crystal, experimental, refinement or atomic coordinate data resulting 
# from the CCDC's data processing and validation procedures.
#
#######################################################################

data_PORLAL
_chemical_formula_moiety         '(C72 H54 Gd2 N14 O16)n,13n(H2 O1)'
_chemical_name_systematic        
'catena-[bis(\m~3~-1,4-bis(6-Carboxylato-1H-benzimidazol-2-yl)benzene)-(\m~2~-1,4-bis(6-carboxylato-1H-benzimidazol-2-yl)benzene)-diaqua-bis(N,N-dimethylformamide)-di-gadolinium(iii) tridecahydrate]'
_symmetry_cell_setting           monoclinic
_symmetry_space_group_name_H-M   'P 2/c'
_symmetry_Int_Tables_number      13
_space_group_name_Hall           '-P 2yc'
loop_
_symmetry_equiv_pos_site_id
_symmetry_equiv_pos_as_xyz
1 x,y,z
2 -x,y,1/2-z
3 -x,-y,-z
4 x,-y,1/2+z
_cell_length_a                   8.2096(16)
_cell_length_b                   14.998(3)
_cell_length_c                   37.652(7)
_cell_angle_alpha                90
_cell_angle_beta                 101.710(4)
_cell_angle_gamma                90
_cell_volume                     4539.51
_exptl_crystal_colour            yellow
_exptl_crystal_description       rod
_cell_formula_units_Z            2
loop_
_atom_site_label
_atom_site_type_symbol
_atom_site_fract_x
_atom_site_fract_y
_atom_site_fract_z
Gd1 Gd 0.67867(3) 0.09808(2) 0.513217(8)
O1 O -0.1524(5) -0.0879(3) 0.96552(12)
O2 O 0.6085(5) 0.2391(3) 0.54427(13)
O3 O -0.2694(5) -0.2179(3) 0.97208(11)
O4 O 0.4112(5) 0.1708(3) 0.50581(13)
O5 O 0.8220(5) -0.0428(3) 0.52055(13)
H1 H 0.8724 -0.0490 0.5427
H2 H 0.7519 -0.0855 0.5149
O6 O 0.6635(6) 0.0581(3) 0.57720(12)
O7 O 0.9373(6) 0.1414(4) 0.54567(14)
C1 C 0.4553(8) -0.0993(5) 0.65223(17)
C2 C 0.4567(7) 0.2336(4) 0.52811(17)
C3 C 0.0079(7) -0.1841(4) 0.87352(17)
N1 N 0.0675(7) -0.1466(4) 0.84568(14)
H3 H 0.0789 -0.0904 0.8422
C4 C 0.5449(8) -0.0734(5) 0.59712(16)
N2 N 0.0718(7) -0.2920(4) 0.83726(15)
C5 C -0.1101(8) -0.2061(4) 0.92539(17)
C6 C 0.5034(8) -0.0394(5) 0.62815(18)
H4 H 0.5075 0.0216 0.6328
C7 C 0.4598(8) -0.1911(5) 0.64603(17)
N3 N 0.3948(7) -0.0834(4) 0.68299(15)
C8 C 0.1704(8) -0.1995(5) 0.79152(17)
C9 C 0.0103(8) -0.2761(5) 0.86780(18)
C10 C -0.1084(9) -0.2982(5) 0.91963(19)
H5 H -0.1497 -0.3359 0.9353
N4 N 0.4025(7) -0.2295(4) 0.67453(14)
H6 H 0.3932 -0.2856 0.6783
C11 C 0.3636(8) -0.1620(6) 0.69547(19)
C12 C -0.0498(7) -0.1469(4) 0.90250(16)
H7 H -0.0483 -0.0857 0.9064
C13 C 0.2574(10) -0.1037(6) 0.7475(2)
H8 H 0.2741 -0.0465 0.7394
C14 C 0.5119(8) -0.2265(5) 0.61613(17)
H9 H 0.5200 -0.2877 0.6129
C15 C 0.1048(8) -0.2126(5) 0.82485(18)
C16 C 0.5512(7) -0.1660(4) 0.59124(17)
H10 H 0.5823 -0.1870 0.5703
C17 C 0.2952(8) -0.1768(5) 0.72830(17)
C18 C 0.2704(10) -0.2620(6) 0.74066(19)
H11 H 0.2939 -0.3117 0.7278
C19 C -0.0471(10) -0.3349(5) 0.8913(2)
H12 H -0.0442 -0.3962 0.8880
C20 C 0.1943(10) -0.1152(5) 0.7790(2)
H13 H 0.1684 -0.0656 0.7916
C21 C 0.2103(10) -0.2721(6) 0.7723(2)
H14 H 0.1965 -0.3293 0.7807
O8 O 0.5058(5) -0.0234(3) 0.53511(11)
C22 C 0.1700(8) 0.2919(4) 0.51508(18)
H15 H 0.1405 0.2475 0.4977
C23 C 0.3314(8) 0.2994(4) 0.53504(17)
N5 N -0.0476(6) 0.4732(4) 0.54740(16)
N6 N -0.1107(6) 0.3636(4) 0.50731(15)
H16 H -0.1693 0.3307 0.4908
C24 C -0.1653(8) 0.4351(4) 0.52337(17)
C25 C 0.0943(8) 0.4221(4) 0.54746(19)
C26 C 0.5741(7) -0.0103(5) 0.56872(16)
C27 C -0.1794(7) -0.1683(4) 0.95590(15)
C28 C 0.0551(7) 0.3532(4) 0.52207(18)
N7 N 1.1199(8) 0.1855(5) 0.59519(19)
C29 C 0.3740(8) 0.3685(5) 0.56088(19)
H17 H 0.4832 0.3727 0.5737
C30 C 0.2579(8) 0.4304(5) 0.56766(19)
H18 H 0.2871 0.4753 0.5848
C31 C 0.9803(9) 0.1935(6) 0.5715(2)
H19 H 0.9099 0.2406 0.5741
C32 C -0.3380(7) 0.4693(4) 0.51169(16)
C33 C -0.4499(8) 0.4232(4) 0.48477(18)
H20 H -0.4161 0.3713 0.4749
C34 C -0.3885(8) 0.5452(4) 0.52721(18)
H21 H -0.3154 0.5750 0.5455
C35 C 1.1607(16) 0.2492(10) 0.6257(3)
H22 H 1.0860 0.2991 0.6213
H23 H 1.2730 0.2697 0.6278
H24 H 1.1497 0.2202 0.6478
C36 C 1.2335(13) 0.1174(9) 0.5933(4)
H25 H 1.2305 0.0746 0.6121
H26 H 1.3434 0.1420 0.5964
H27 H 1.2050 0.0886 0.5701
O2B O -1.6085(5) 0.7609(3) 0.45573(13)
O4B O -1.4112(5) 0.8292(3) 0.49419(13)
C2B C -1.4567(7) 0.7664(4) 0.47189(17)
C22B C -1.1700(8) 0.7081(4) 0.48492(18)
H15B H -1.1405 0.7525 0.5023
C23B C -1.3314(8) 0.7006(4) 0.46496(17)
N5B N -0.9524(6) 0.5268(4) 0.45260(16)
N6B N -0.8893(6) 0.6364(4) 0.49269(15)
H16B H -0.8307 0.6693 0.5092
C24B C -0.8347(8) 0.5649(4) 0.47663(17)
C25B C -1.0943(8) 0.5779(4) 0.45254(19)
C28B C -1.0551(7) 0.6468(4) 0.47793(18)
C29B C -1.3740(8) 0.6315(5) 0.43912(19)
H17B H -1.4832 0.6273 0.4263
C30B C -1.2579(8) 0.5696(5) 0.43234(19)
H18B H -1.2871 0.5247 0.4152
C32B C -0.6620(7) 0.5307(4) 0.48831(16)
C33B C -0.5501(8) 0.5768(4) 0.51523(18)
H20B H -0.5839 0.6287 0.5251
C34B C -0.6115(8) 0.4548(4) 0.47279(18)
H21B H -0.6846 0.4250 0.4545
Gd1B Gd -1.67867(3) 0.90192(2) 0.486783(8)
O1B O -0.8476(5) 1.0879(3) 0.03448(12)
O3B O -0.7306(5) 1.2179(3) 0.02792(11)
O5B O -1.8220(5) 1.0428(3) 0.47945(13)
H1B H -1.8724 1.0490 0.4573
H2B H -1.7519 1.0855 0.4851
O6B O -1.6635(6) 0.9419(3) 0.42280(12)
O7B O -1.9373(6) 0.8586(4) 0.45433(14)
C1B C -1.4553(8) 1.0993(5) 0.34777(17)
C3B C -1.0079(7) 1.1841(4) 0.12648(17)
N1B N -1.0675(7) 1.1466(4) 0.15432(14)
H3B H -1.0789 1.0904 0.1578
C4B C -1.5449(8) 1.0734(5) 0.40288(16)
N2B N -1.0718(7) 1.2920(4) 0.16274(15)
C5B C -0.8899(8) 1.2061(4) 0.07461(17)
C6B C -1.5034(8) 1.0394(5) 0.37185(18)
H4B H -1.5075 0.9784 0.3672
C7B C -1.4598(8) 1.1911(5) 0.35397(17)
N3B N -1.3948(7) 1.0834(4) 0.31701(15)
C8B C -1.1704(8) 1.1995(5) 0.20848(17)
C9B C -1.0103(8) 1.2761(5) 0.13220(18)
C10B C -0.8916(9) 1.2982(5) 0.08037(19)
H5B H -0.8503 1.3359 0.0647
N4B N -1.4025(7) 1.2295(4) 0.32547(14)
H6B H -1.3932 1.2856 0.3217
C11B C -1.3636(8) 1.1620(6) 0.30453(19)
C12B C -0.9502(7) 1.1469(4) 0.09750(16)
H7B H -0.9517 1.0857 0.0936
C13B C -1.2574(10) 1.1037(6) 0.2525(2)
H8B H -1.2741 1.0465 0.2606
C14B C -1.5119(8) 1.2265(5) 0.38387(17)
H9B H -1.5200 1.2877 0.3871
C15B C -1.1048(8) 1.2126(5) 0.17515(18)
C16B C -1.5512(7) 1.1660(4) 0.40876(17)
H10B H -1.5823 1.1870 0.4297
C17B C -1.2952(8) 1.1768(5) 0.27170(17)
C18B C -1.2704(10) 1.2620(6) 0.25934(19)
H11B H -1.2939 1.3117 0.2722
C19B C -0.9529(10) 1.3349(5) 0.1087(2)
H12B H -0.9558 1.3962 0.1120
C20B C -1.1943(10) 1.1152(5) 0.2210(2)
H13B H -1.1684 1.0656 0.2084
C21B C -1.2103(10) 1.2721(6) 0.2277(2)
H14B H -1.1965 1.3293 0.2193
O8B O -1.5058(5) 1.0234(3) 0.46489(11)
C26B C -1.5741(7) 1.0103(5) 0.43128(16)
C27B C -0.8206(7) 1.1683(4) 0.04410(15)
N7B N -2.1199(8) 0.8145(5) 0.40481(19)
C31B C -1.9803(9) 0.8065(6) 0.4285(2)
H19B H -1.9099 0.7594 0.4259
C35B C -2.1607(16) 0.7508(10) 0.3743(3)
H22B H -2.0860 0.7009 0.3787
H23B H -2.2730 0.7303 0.3722
H24B H -2.1497 0.7798 0.3522
C36B C -2.2335(13) 0.8826(9) 0.4067(4)
H25B H -2.2305 0.9254 0.3879
H26B H -2.3434 0.8580 0.4036
H27B H -2.2050 0.9114 0.4299
Gd1_2 Gd -1.32133(3) 1.09808(2) 0.513217(8)
Gd1A Gd -0.67867(3) 1.09808(2) -0.013217(8)
Gd1B_2 Gd 0.32133(3) -0.09808(2) 0.486783(8)
Gd1C Gd -0.32133(3) -0.09808(2) 1.013217(8)
O1A O -1.8476(5) 0.9121(3) 0.53448(12)
O1C O 0.8476(5) 0.0879(3) 0.46552(12)
O3A O -1.7306(5) 0.7821(3) 0.52792(11)
O3C O 0.7306(5) 0.2179(3) 0.47208(11)
O8_2 O -1.4942(5) 0.9766(3) 0.53511(11)
O8B_2 O 0.4942(5) 0.0234(3) 0.46489(11)
O9 O -0.0996(9) 0.0412(5) 0.6468(2)
H28 H -0.1433 0.0342 0.6245
H29 H -0.1753 0.0509 0.6587
O10 O 0.4116(13) -0.4160(5) 0.6814(3)
H30 H 0.3112 -0.4338 0.6779
H31 H 0.4873 -0.4552 0.6825
O11 O -0.1468(12) 0.4383(7) 0.6188(2)
H32 H -0.1790 0.4412 0.5959
H33 H -0.0411 0.4372 0.6241
O12 O 0.7006(13) 0.2685(10) 0.6223(3)
H34 H 0.7938 0.2694 0.6157
H35 H 0.7144 0.2827 0.6445
O13 O 0.434(2) 0.0880(7) 0.7106(3)
O14 O 0.301(2) 0.1615(13) 0.8170(5)
O15 O -0.307(3) 0.5594(16) 0.6510(6)
O16 O 0.5000 -0.487(3) 0.7500
O17 O 0.177(4) -0.549(2) 0.6661(8)
O18 O -0.019(3) -0.4652(19) 0.8114(8)
O19 O 1.112(5) 0.137(3) 0.7064(12)
O20? O 0.096(5) -0.544(3) 0.7531(17)
H36? H 0.3802 -0.0324 0.6922
H37? H 0.0862 -0.3431 0.8280
H38? H -0.0561 0.5196 0.5603
loop_
_geom_bond_atom_site_label_1
_geom_bond_atom_site_label_2
_geom_bond_site_symmetry_1
_geom_bond_site_symmetry_2
Gd1 O2 1_555 1_555
O1 C27 1_555 1_555
O2 C2 1_555 1_555
O3 C27 1_555 1_555
O4 Gd1 1_555 1_555
O5 Gd1 1_555 1_555
H1 O5 1_555 1_555
H2 O5 1_555 1_555
O6 Gd1 1_555 1_555
O7 Gd1 1_555 1_555
C1 C6 1_555 1_555
C2 O4 1_555 1_555
C3 N1 1_555 1_555
N1 H3 1_555 1_555
C4 C6 1_555 1_555
N2 C9 1_555 1_555
C5 C10 1_555 1_555
C6 H4 1_555 1_555
C7 C1 1_555 1_555
N3 C1 1_555 1_555
C8 C15 1_555 1_555
C9 C3 1_555 1_555
C10 H5 1_555 1_555
N4 C7 1_555 1_555
H6 N4 1_555 1_555
C11 N3 1_555 1_555
C12 C3 1_555 1_555
H7 C12 1_555 1_555
C13 H8 1_555 1_555
C14 C7 1_555 1_555
H9 C14 1_555 1_555
C15 N1 1_555 1_555
C16 C4 1_555 1_555
H10 C16 1_555 1_555
C17 C11 1_555 1_555
C18 C17 1_555 1_555
H11 C18 1_555 1_555
C19 C9 1_555 1_555
H12 C19 1_555 1_555
C20 C8 1_555 1_555
H13 C20 1_555 1_555
C21 C8 1_555 1_555
H14 C21 1_555 1_555
O8 Gd1 1_555 1_555
C22 H15 1_555 1_555
C23 C2 1_555 1_555
N5 C24 1_555 1_555
N6 H16 1_555 1_555
C24 N6 1_555 1_555
C25 N5 1_555 1_555
C26 O6 1_555 1_555
C27 C5 1_555 1_555
C28 C22 1_555 1_555
N7 C31 1_555 1_555
C29 C23 1_555 1_555
H17 C29 1_555 1_555
C30 C25 1_555 1_555
H18 C30 1_555 1_555
C31 O7 1_555 1_555
H19 C31 1_555 1_555
C32 C24 1_555 1_555
C33 C32 1_555 1_555
H20 C33 1_555 1_555
C34 C32 1_555 1_555
H21 C34 1_555 1_555
C35 N7 1_555 1_555
H22 C35 1_555 1_555
H23 C35 1_555 1_555
H24 C35 1_555 1_555
C36 N7 1_555 1_555
H25 C36 1_555 1_555
H26 C36 1_555 1_555
H27 C36 1_555 1_555
O9 H28 1_555 1_555
H29 O9 1_555 1_555
O10 H30 1_555 1_555
H31 O10 1_555 1_555
O11 H32 1_555 1_555
H33 O11 1_555 1_555
O12 H34 1_555 1_555
H35 O12 1_555 1_555
O2B C2B 1_555 1_555
O4B C2B 1_555 1_555
C2B C23B 1_555 1_555
C22B H15B 1_555 1_555
C23B C22B 1_555 1_555
N5B C24B 1_555 1_555
N6B H16B 1_555 1_555
C24B N6B 1_555 1_555
C25B N5B 1_555 1_555
C28B C22B 1_555 1_555
C29B C23B 1_555 1_555
H17B C29B 1_555 1_555
C30B C25B 1_555 1_555
H18B C30B 1_555 1_555
C32B C24B 1_555 1_555
C33B C34 1_555 1_555
H20B C33B 1_555 1_555
C34B C33 1_555 1_555
H21B C34B 1_555 1_555
Gd1B O2B 1_555 1_555
O1B C27B 1_555 1_555
O3B C27B 1_555 1_555
O5B Gd1B 1_555 1_555
H1B O5B 1_555 1_555
H2B O5B 1_555 1_555
O6B Gd1B 1_555 1_555
O7B Gd1B 1_555 1_555
C1B C6B 1_555 1_555
C3B N1B 1_555 1_555
N1B H3B 1_555 1_555
C4B C6B 1_555 1_555
N2B C9B 1_555 1_555
C5B C10B 1_555 1_555
C6B H4B 1_555 1_555
C7B C1B 1_555 1_555
N3B C1B 1_555 1_555
C8B C15B 1_555 1_555
C9B C3B 1_555 1_555
C10B H5B 1_555 1_555
N4B C7B 1_555 1_555
H6B N4B 1_555 1_555
C11B N3B 1_555 1_555
C12B C3B 1_555 1_555
H7B C12B 1_555 1_555
C13B H8B 1_555 1_555
C14B C7B 1_555 1_555
H9B C14B 1_555 1_555
C15B N1B 1_555 1_555
C16B C4B 1_555 1_555
H10B C16B 1_555 1_555
C17B C11B 1_555 1_555
C18B C17B 1_555 1_555
H11B C18B 1_555 1_555
C19B C9B 1_555 1_555
H12B C19B 1_555 1_555
C20B C8B 1_555 1_555
H13B C20B 1_555 1_555
C21B C8B 1_555 1_555
H14B C21B 1_555 1_555
O8B Gd1B 1_555 1_555
C26B O6B 1_555 1_555
C27B C5B 1_555 1_555
N7B C31B 1_555 1_555
C31B O7B 1_555 1_555
H19B C31B 1_555 1_555
C35B N7B 1_555 1_555
H22B C35B 1_555 1_555
H23B C35B 1_555 1_555
H24B C35B 1_555 1_555
C36B N7B 1_555 1_555
H25B C36B 1_555 1_555
H26B C36B 1_555 1_555
H27B C36B 1_555 1_555
Gd1_2 O8B 1_555 1_555
Gd1A O1B 1_555 1_555
Gd1B_2 O8 1_555 1_555
Gd1C O1 1_555 1_555
O1A Gd1B 1_555 1_555
O1C Gd1 1_555 1_555
O3A Gd1B 1_555 1_555
O3C Gd1 1_555 1_555
O8_2 Gd1B 1_555 1_555
O8B_2 Gd1 1_555 1_555
O3 Gd1C 1_555 1_555
C4 C26 1_555 1_555
N2 C15 1_555 1_555
C5 C12 1_555 1_555
C10 C19 1_555 1_555
N4 C11 1_555 1_555
C13 C17 1_555 1_555
C13 C20 1_555 1_555
C14 C16 1_555 1_555
C18 C21 1_555 1_555
O8 C26 1_555 1_555
C22 C23 1_555 1_555
N6 C28 1_555 1_555
C25 C28 1_555 1_555
C29 C30 1_555 1_555
O4B Gd1B 1_555 1_555
N6B C28B 1_555 1_555
C25B C28B 1_555 1_555
C29B C30B 1_555 1_555
C32B C33B 1_555 1_555
C32B C34B 1_555 1_555
O3B Gd1A 1_555 1_555
C4B C26B 1_555 1_555
N2B C15B 1_555 1_555
C5B C12B 1_555 1_555
C10B C19B 1_555 1_555
N4B C11B 1_555 1_555
C13B C17B 1_555 1_555
C13B C20B 1_555 1_555
C14B C16B 1_555 1_555
C18B C21B 1_555 1_555
O8B C26B 1_555 1_555
Gd1_2 O8_2 1_555 1_555
Gd1B_2 O8B_2 1_555 1_555

#END
