
#######################################################################
#
#                 Cambridge Crystallographic Data Centre
#                                CCDC 
#
#######################################################################
#
# If this CIF has been generated from an entry in the Cambridge 
# Structural Database, then it will include bibliographic, chemical, 
# crystal, experimental, refinement or atomic coordinate data resulting 
# from the CCDC's data processing and validation procedures.
#
#######################################################################

data_EFESIT
_chemical_formula_moiety         '(C98 H82 K2 N2 O34 S2 Zn5)n'
_chemical_name_systematic        
"catena-[bis(\m-4,4',4'',4'''-(6,7,9,10,17,18,20,21-octahydrodibenzo[b,k][1,4,7,10,13,16]hexaoxacyclooctadecine-2,3,13,14-tetrayl)tetrabenzoato)-bis(\m-hydroxo)-bis(thiocyanato)-tetra-aqua-penta-zinc(ii)-di-potassium unknown solvate]"
_symmetry_cell_setting           tetragonal
_symmetry_space_group_name_H-M   'P -4 21 c'
_symmetry_Int_Tables_number      114
_space_group_name_Hall           'P -4 2n'
loop_
_symmetry_equiv_pos_site_id
_symmetry_equiv_pos_as_xyz
1 x,y,z
2 1/2+x,1/2-y,1/2-z
3 -x,-y,z
4 1/2-x,1/2+y,1/2-z
5 1/2-y,1/2-x,1/2+z
6 -y,x,-z
7 y,-x,-z
8 1/2+y,1/2+x,1/2+z
_cell_length_a                   25.556(4)
_cell_length_b                   25.556(4)
_cell_length_c                   22.751(5)
_cell_angle_alpha                90
_cell_angle_beta                 90
_cell_angle_gamma                90
_cell_volume                     14858.9
_exptl_crystal_colour            colorless
_exptl_crystal_description       prism
_cell_formula_units_Z            4
loop_
_atom_site_label
_atom_site_type_symbol
_atom_site_fract_x
_atom_site_fract_y
_atom_site_fract_z
C1 C 0.3882(8) 0.1313(5) 0.6317(7)
C2 C 0.3777(6) 0.1816(6) 0.6587(7)
C3 C 0.3236(6) 0.2029(6) 0.6579(7)
H1 H 0.2992 0.1827 0.6378
C4 C 0.3027(7) 0.2519(5) 0.6847(8)
H2 H 0.2687 0.2643 0.6803
C5 C 0.3890(7) 0.2634(5) 0.7188(8)
H3 H 0.4127 0.2849 0.7382
C6 C 0.4083(6) 0.2147(7) 0.6910(7)
H4 H 0.4435 0.2061 0.6957
C7 C 0.2588(6) 0.5918(5) 0.6367(6)
H5 H 0.2232 0.5969 0.6505
H6 H 0.2573 0.5886 0.5943
C8 C 0.2909 0.6424 0.6517
H7 H 0.2739 0.6736 0.6366
H8 H 0.3262 0.6405 0.6362
C9 C 0.2725 0.6016 0.9294
H9 H 0.277 0.6012 0.9717
H10 H 0.2358 0.6065 0.9201
C10 C 0.2627(4) 0.5105(4) 0.9250(5)
H11 H 0.265 0.5096 0.9676
H12 H 0.2263 0.5146 0.9139
C11 C 0.3228(5) 0.6822(4) 0.8067(8)
C12 C 0.3152(5) 0.6873(5) 0.7474(7)
C13 C 0.3673(5) 0.8167(4) 0.7053(5)
C14 C 0.3298(5) 0.8462(6) 0.6796(6)
H13 H 0.2946 0.8382 0.6845
C15 C 0.3451(5) 0.8895(5) 0.6452(6)
H14 H 0.3196 0.9095 0.6266
C16 C 0.3934(5) 0.9018(4) 0.6389(5)
C17 C 0.4330(4) 0.8743(4) 0.6618(5)
H15 H 0.4678 0.8832 0.655
C18 C 0.4193(5) 0.8317(5) 0.6960(5)
H16 H 0.4458 0.8122 0.7136
C19 C 0.4032 0.9477 0.6103
C20 C 0.4915 0.2297 0.5311
O1 O 0.4563(3) 0.0656(2) 0.5407(3)
O2 O 0.3585(4) 0.1082(4) 0.6031(4)
O3 O 0.4391(4) 0.1194(4) 0.6410(4)
O4 O 0.4119(3) 0.9913(3) 0.9191(3)
O5 O 0.4721(3) 0.9464(3) 0.9698(4)
O6 O 0.3684(3) 0.9808(3) 0.5869(3)
O7 O 0.4509(3) 0.9657(2) 0.5983(3)
O8 O 0.1738(6) 0.5626(5) 0.7559(6)
O9 O 0.3906(7) 0.5381(12) 0.7598(13)
S1 S 0.5155 0.2801 0.5424
K1 K 0.28220(18) 0.55128(11) 0.78000(16)
C21 C 0.3422(8) 0.2764(7) 0.7173(7)
C22 C 0.3299(6) 0.3249(5) 0.7528(9)
C23 C 0.3095(6) 0.3661(7) 0.7260(8)
H17 H 0.3069 0.3645 0.6852
C24 C 0.2987(6) 0.4099(7) 0.8138(7)
C25 C 0.3167(5) 0.3706(5) 0.8437(6)
H18 H 0.3165 0.3697 0.8846
C26 C 0.3364(5) 0.3300(5) 0.8099(9)
C27 C 0.3556(7) 0.2845(5) 0.8482(7)
C28 C 0.3278(5) 0.2367(6) 0.8454(7)
H19 H 0.2977 0.2333 0.8228
C29 C 0.3474(6) 0.1952(5) 0.8779(8)
H20 H 0.3312 0.1629 0.873
C30 C 0.3857(5) 0.1973(5) 0.9141(6)
C31 C 0.4137(5) 0.2434(6) 0.9108(6)
H21 H 0.4445 0.246 0.9324
C32 C 0.3997(6) 0.2833(6) 0.8795(6)
H22 H 0.4213 0.3125 0.8789
C33 C 0.4036(5) 0.1505(5) 0.9526(6)
C34 C 0.2698(5) 0.4564(5) 0.6652(9)
H23 H 0.2528 0.4251 0.6504
H24 H 0.3058 0.456 0.6517
C35 C 0.2421(6) 0.5047(5) 0.6398(6)
H25 H 0.2397 0.5026 0.5973
H26 H 0.2072 0.5084 0.656
C36 C 0.3062(6) 0.6427(5) 0.9007(7)
H27 H 0.2967 0.6767 0.9165
H28 H 0.3424 0.6362 0.911
C37 C 0.2836(6) 0.4642(4) 0.9005(6)
H29 H 0.3202 0.4619 0.9115
H30 H 0.2658 0.4346 0.9181
C38 C 0.3311(4) 0.7299(5) 0.7152(5)
H31 H 0.3263 0.7306 0.6747
C39 C 0.3544(4) 0.7716(4) 0.7438(6)
C40 C 0.3628(4) 0.7727(4) 0.8032(6)
C41 C 0.3491(5) 0.7247(4) 0.8362(5)
H32 H 0.3574 0.7219 0.8759
C42 C 0.3854(4) 0.8165(4) 0.8319(5)
C43 C 0.4295(4) 0.8115(4) 0.8692(5)
H33 H 0.4472 0.7798 0.8722
C44 C 0.4464(4) 0.8564(4) 0.9022(6)
H34 H 0.4748 0.8536 0.9276
C45 C 0.4196(4) 0.9054(4) 0.8962(6)
C46 C 0.3790(4) 0.9090(4) 0.8564(5)
H35 H 0.364 0.9414 0.8485
C47 C 0.3601(4) 0.8642(5) 0.8279(5)
H36 H 0.3297 0.8666 0.8055
C48 C 0.4392(5) 0.9514(4) 0.9315(5)
C49 C 0.2923(5) 0.4099(5) 0.7519(8)
N1 N 0.4832 0.1836 0.5026
O10 O 0.2801(3) 0.4601(2) 0.8421(4)
O11 O 0.2939(3) 0.5532(3) 0.9016(4)
O12 O 0.3018(4) 0.6444(3) 0.8382(5)
O13 O 0.2907(3) 0.6414(3) 0.7220(5)
O14 O 0.2757(4) 0.5478(4) 0.6579(4)
O15 O 0.2691(4) 0.4554(3) 0.7269(5)
O16 O 0.3763(3) 0.1109(3) 0.9434(4)
O17 O 0.4391(3) 0.1574(3) 0.9872(4)
Zn1 Zn 0.46017(5) 0.11686(5) 0.47792(7)
Zn2 Zn 0.38301(5) 0.05009(4) 0.55712(6)
Zn3 Zn 0.50000 0.00000 0.53099(8)
C1B C 0.6118(8) -0.1313(5) 0.6317(7)
C2B C 0.6223(6) -0.1816(6) 0.6587(7)
C3B C 0.6764(6) -0.2029(6) 0.6579(7)
H1B H 0.7008 -0.1827 0.6378
C4B C 0.6973(7) -0.2519(5) 0.6847(8)
H2B H 0.7313 -0.2643 0.6803
C5B C 0.6110(7) -0.2634(5) 0.7188(8)
H3B H 0.5873 -0.2849 0.7382
C6B C 0.5917(6) -0.2147(7) 0.6910(7)
H4B H 0.5565 -0.2061 0.6957
C7B C 0.7412(6) -0.5918(5) 0.6367(6)
H5B H 0.7768 -0.5969 0.6505
H6B H 0.7427 -0.5886 0.5943
C8B C 0.7091 -0.6424 0.6517
H7B H 0.7261 -0.6736 0.6366
H8B H 0.6738 -0.6405 0.6362
C9B C 0.7275 -0.6016 0.9294
H9B H 0.723 -0.6012 0.9717
H10B H 0.7642 -0.6065 0.9201
C10B C 0.7373(4) -0.5105(4) 0.9250(5)
H11B H 0.735 -0.5096 0.9676
H12B H 0.7737 -0.5146 0.9139
C11B C 0.6772(5) -0.6822(4) 0.8067(8)
C12B C 0.6848(5) -0.6873(5) 0.7474(7)
C13B C 0.6327(5) -0.8167(4) 0.7053(5)
C14B C 0.6702(5) -0.8462(6) 0.6796(6)
H13B H 0.7054 -0.8382 0.6845
C15B C 0.6549(5) -0.8895(5) 0.6452(6)
H14B H 0.6804 -0.9095 0.6266
C16B C 0.6066(5) -0.9018(4) 0.6389(5)
C17B C 0.5670(4) -0.8743(4) 0.6618(5)
H15B H 0.5322 -0.8832 0.655
C18B C 0.5807(5) -0.8317(5) 0.6960(5)
H16B H 0.5542 -0.8122 0.7136
C19B C 0.5968 -0.9477 0.6103
C20B C 0.5085 -0.2297 0.5311
O1B O 0.5437(3) -0.0656(2) 0.5407(3)
O2B O 0.6415(4) -0.1082(4) 0.6031(4)
O3B O 0.5609(4) -0.1194(4) 0.6410(4)
O4B O 0.5881(3) -0.9913(3) 0.9191(3)
O5B O 0.5279(3) -0.9464(3) 0.9698(4)
O6B O 0.6316(3) -0.9808(3) 0.5869(3)
O7B O 0.5491(3) -0.9657(2) 0.5983(3)
O8B O 0.8262(6) -0.5626(5) 0.7559(6)
O9B O 0.6094(7) -0.5381(12) 0.7598(13)
S1B S 0.4845 -0.2801 0.5424
K1B K 0.71780(18) -0.55128(11) 0.78000(16)
C21B C 0.6578(8) -0.2764(7) 0.7173(7)
C22B C 0.6701(6) -0.3249(5) 0.7528(9)
C23B C 0.6905(6) -0.3661(7) 0.7260(8)
H17B H 0.6931 -0.3645 0.6852
C24B C 0.7013(6) -0.4099(7) 0.8138(7)
C25B C 0.6833(5) -0.3706(5) 0.8437(6)
H18B H 0.6835 -0.3697 0.8846
C26B C 0.6636(5) -0.3300(5) 0.8099(9)
C27B C 0.6444(7) -0.2845(5) 0.8482(7)
C28B C 0.6722(5) -0.2367(6) 0.8454(7)
H19B H 0.7023 -0.2333 0.8228
C29B C 0.6526(6) -0.1952(5) 0.8779(8)
H20B H 0.6688 -0.1629 0.873
C30B C 0.6143(5) -0.1973(5) 0.9141(6)
C31B C 0.5863(5) -0.2434(6) 0.9108(6)
H21B H 0.5555 -0.246 0.9324
C32B C 0.6003(6) -0.2833(6) 0.8795(6)
H22B H 0.5787 -0.3125 0.8789
C33B C 0.5964(5) -0.1505(5) 0.9526(6)
C34B C 0.7302(5) -0.4564(5) 0.6652(9)
H23B H 0.7472 -0.4251 0.6504
H24B H 0.6942 -0.456 0.6517
C35B C 0.7579(6) -0.5047(5) 0.6398(6)
H25B H 0.7603 -0.5026 0.5973
H26B H 0.7928 -0.5084 0.656
C36B C 0.6938(6) -0.6427(5) 0.9007(7)
H27B H 0.7033 -0.6767 0.9165
H28B H 0.6576 -0.6362 0.911
C37B C 0.7164(6) -0.4642(4) 0.9005(6)
H29B H 0.6798 -0.4619 0.9115
H30B H 0.7342 -0.4346 0.9181
C38B C 0.6689(4) -0.7299(5) 0.7152(5)
H31B H 0.6737 -0.7306 0.6747
C39B C 0.6456(4) -0.7716(4) 0.7438(6)
C40B C 0.6372(4) -0.7727(4) 0.8032(6)
C41B C 0.6509(5) -0.7247(4) 0.8362(5)
H32B H 0.6426 -0.7219 0.8759
C42B C 0.6146(4) -0.8165(4) 0.8319(5)
C43B C 0.5705(4) -0.8115(4) 0.8692(5)
H33B H 0.5528 -0.7798 0.8722
C44B C 0.5536(4) -0.8564(4) 0.9022(6)
H34B H 0.5252 -0.8536 0.9276
C45B C 0.5804(4) -0.9054(4) 0.8962(6)
C46B C 0.6210(4) -0.9090(4) 0.8564(5)
H35B H 0.636 -0.9414 0.8485
C47B C 0.6399(4) -0.8642(5) 0.8279(5)
H36B H 0.6703 -0.8666 0.8055
C48B C 0.5608(5) -0.9514(4) 0.9315(5)
C49B C 0.7077(5) -0.4099(5) 0.7519(8)
N1B N 0.5168 -0.1836 0.5026
O10B O 0.7199(3) -0.4601(2) 0.8421(4)
O11B O 0.7061(3) -0.5532(3) 0.9016(4)
O12B O 0.6982(4) -0.6444(3) 0.8382(5)
O13B O 0.7093(3) -0.6414(3) 0.7220(5)
O14B O 0.7243(4) -0.5478(4) 0.6579(4)
O15B O 0.7309(4) -0.4554(3) 0.7269(5)
O16B O 0.6237(3) -0.1109(3) 0.9434(4)
O17B O 0.5609(3) -0.1574(3) 0.9872(4)
Zn1B Zn 0.53983(5) -0.11686(5) 0.47792(7)
Zn2B Zn 0.61699(5) -0.05009(4) 0.55712(6)
O4D O 0.5087(3) 0.0881(3) 0.4191(3)
O4G O 0.4913(3) -0.0881(3) 0.4191(3)
O5D O 0.5536(3) 0.0279(3) 0.4698(4)
O5G O 0.4464(3) -0.0279(3) 0.4698(4)
O6_2 O 0.3684(3) -0.0192(3) 0.5869(3)
O6B_2 O 0.6316(3) 0.0192(3) 0.5869(3)
O7_2 O 0.4509(3) -0.0343(2) 0.5983(3)
O7B_2 O 0.5491(3) 0.0343(2) 0.5983(3)
O16D O 0.3891(3) 0.1237(3) 0.4434(4)
O16G O 0.6109(3) -0.1237(3) 0.4434(4)
O17D O 0.3426(3) 0.0609(3) 0.4872(4)
O17G O 0.6574(3) -0.0609(3) 0.4872(4)
Zn1D Zn 0.38314(5) 0.03983(5) 0.97792(7)
Zn1D_2 Zn 0.38314(5) 1.03983(5) 0.97792(7)
Zn1G Zn 0.61686(5) -1.03983(5) 0.97792(7)
Zn1G_2 Zn 0.61686(5) -0.03983(5) 0.97792(7)
Zn2_2 Zn 0.38301(5) 1.05009(4) 0.55712(6)
Zn2B_2 Zn 0.61699(5) -1.05009(4) 0.55712(6)
Zn2D Zn 0.44991(4) 0.11699(5) 1.05712(6)
Zn2G Zn 0.55009(4) -0.11699(5) 1.05712(6)
Zn3_2 Zn 0.50000 -1.00000 0.53099(8)
Zn3_3 Zn 0.50000 1.00000 0.53099(8)
Zn3D Zn 0.50000 -1.00000 1.03099(8)
Zn3D_2 Zn 0.50000 1.00000 1.03099(8)
C50? C 0.2852 0.5504 0.7814
loop_
_geom_bond_atom_site_label_1
_geom_bond_atom_site_label_2
_geom_bond_site_symmetry_1
_geom_bond_site_symmetry_2
C1 C2 1_555 1_555
C2 C3 1_555 1_555
C3 H1 1_555 1_555
C4 C3 1_555 1_555
H2 C4 1_555 1_555
C5 H3 1_555 1_555
C6 C2 1_555 1_555
H4 C6 1_555 1_555
C7 H5 1_555 1_555
H6 C7 1_555 1_555
C8 C7 1_555 1_555
H7 C8 1_555 1_555
H8 C8 1_555 1_555
C9 H9 1_555 1_555
H10 C9 1_555 1_555
C10 H11 1_555 1_555
H12 C10 1_555 1_555
C11 C12 1_555 1_555
C12 C38 1_555 1_555
C13 C14 1_555 1_555
C14 H13 1_555 1_555
C15 C14 1_555 1_555
H14 C15 1_555 1_555
C16 C15 1_555 1_555
C17 C16 1_555 1_555
H15 C17 1_555 1_555
C18 C13 1_555 1_555
H16 C18 1_555 1_555
C19 C16 1_555 1_555
C20 S1 1_555 1_555
O1 Zn1 1_555 1_555
O2 C1 1_555 1_555
O3 C1 1_555 1_555
O4 C48 1_555 1_555
O5 C48 1_555 1_555
O6 C19 1_555 1_555
O7 C19 1_555 1_555
O8 K1 1_555 1_555
O9 K1 1_555 1_555
K1 O10 1_555 1_555
C21 C4 1_555 1_555
C22 C21 1_555 1_555
C23 C22 1_555 1_555
H17 C23 1_555 1_555
C24 C25 1_555 1_555
C25 H18 1_555 1_555
C26 C22 1_555 1_555
C27 C26 1_555 1_555
C28 C27 1_555 1_555
H19 C28 1_555 1_555
C29 C28 1_555 1_555
H20 C29 1_555 1_555
C30 C29 1_555 1_555
C31 C30 1_555 1_555
H21 C31 1_555 1_555
C32 C27 1_555 1_555
H22 C32 1_555 1_555
C33 C30 1_555 1_555
C34 H23 1_555 1_555
H24 C34 1_555 1_555
C35 C34 1_555 1_555
H25 C35 1_555 1_555
H26 C35 1_555 1_555
C36 C9 1_555 1_555
H27 C36 1_555 1_555
H28 C36 1_555 1_555
C37 C10 1_555 1_555
H29 C37 1_555 1_555
H30 C37 1_555 1_555
C38 H31 1_555 1_555
C39 C13 1_555 1_555
C40 C39 1_555 1_555
C41 C11 1_555 1_555
H32 C41 1_555 1_555
C42 C40 1_555 1_555
C43 C42 1_555 1_555
H33 C43 1_555 1_555
C44 C43 1_555 1_555
H34 C44 1_555 1_555
C45 C44 1_555 1_555
C46 C45 1_555 1_555
H35 C46 1_555 1_555
C47 C42 1_555 1_555
H36 C47 1_555 1_555
C48 C45 1_555 1_555
C49 C23 1_555 1_555
N1 C20 1_555 1_555
O10 C24 1_555 1_555
O11 C9 1_555 1_555
O12 C11 1_555 1_555
O13 C8 1_555 1_555
O14 C7 1_555 1_555
O15 K1 1_555 1_555
O16 C33 1_555 1_555
O17 C33 1_555 1_555
Zn1 N1 1_555 1_555
Zn2 O1 1_555 1_555
Zn3 O1 1_555 1_555
C1B C2B 1_555 1_555
C2B C3B 1_555 1_555
C3B H1B 1_555 1_555
C4B C3B 1_555 1_555
H2B C4B 1_555 1_555
C5B H3B 1_555 1_555
C6B C2B 1_555 1_555
H4B C6B 1_555 1_555
C7B H5B 1_555 1_555
H6B C7B 1_555 1_555
C8B C7B 1_555 1_555
H7B C8B 1_555 1_555
H8B C8B 1_555 1_555
C9B H9B 1_555 1_555
H10B C9B 1_555 1_555
C10B H11B 1_555 1_555
H12B C10B 1_555 1_555
C11B C12B 1_555 1_555
C12B C38B 1_555 1_555
C13B C14B 1_555 1_555
C14B H13B 1_555 1_555
C15B C14B 1_555 1_555
H14B C15B 1_555 1_555
C16B C15B 1_555 1_555
C17B C16B 1_555 1_555
H15B C17B 1_555 1_555
C18B C13B 1_555 1_555
H16B C18B 1_555 1_555
C19B C16B 1_555 1_555
C20B S1B 1_555 1_555
O1B Zn3 1_555 1_555
O2B C1B 1_555 1_555
O3B C1B 1_555 1_555
O4B C48B 1_555 1_555
O5B C48B 1_555 1_555
O6B C19B 1_555 1_555
O7B C19B 1_555 1_555
O8B K1B 1_555 1_555
O9B K1B 1_555 1_555
K1B O10B 1_555 1_555
C21B C4B 1_555 1_555
C22B C21B 1_555 1_555
C23B C22B 1_555 1_555
H17B C23B 1_555 1_555
C24B C25B 1_555 1_555
C25B H18B 1_555 1_555
C26B C22B 1_555 1_555
C27B C26B 1_555 1_555
C28B C27B 1_555 1_555
H19B C28B 1_555 1_555
C29B C28B 1_555 1_555
H20B C29B 1_555 1_555
C30B C29B 1_555 1_555
C31B C30B 1_555 1_555
H21B C31B 1_555 1_555
C32B C27B 1_555 1_555
H22B C32B 1_555 1_555
C33B C30B 1_555 1_555
C34B H23B 1_555 1_555
H24B C34B 1_555 1_555
C35B C34B 1_555 1_555
H25B C35B 1_555 1_555
H26B C35B 1_555 1_555
C36B C9B 1_555 1_555
H27B C36B 1_555 1_555
H28B C36B 1_555 1_555
C37B C10B 1_555 1_555
H29B C37B 1_555 1_555
H30B C37B 1_555 1_555
C38B H31B 1_555 1_555
C39B C13B 1_555 1_555
C40B C39B 1_555 1_555
C41B C11B 1_555 1_555
H32B C41B 1_555 1_555
C42B C40B 1_555 1_555
C43B C42B 1_555 1_555
H33B C43B 1_555 1_555
C44B C43B 1_555 1_555
H34B C44B 1_555 1_555
C45B C44B 1_555 1_555
C46B C45B 1_555 1_555
H35B C46B 1_555 1_555
C47B C42B 1_555 1_555
H36B C47B 1_555 1_555
C48B C45B 1_555 1_555
C49B C23B 1_555 1_555
N1B C20B 1_555 1_555
O10B C24B 1_555 1_555
O11B C9B 1_555 1_555
O12B C11B 1_555 1_555
O13B C8B 1_555 1_555
O14B C7B 1_555 1_555
O15B K1B 1_555 1_555
O16B C33B 1_555 1_555
O17B C33B 1_555 1_555
Zn1B O1B 1_555 1_555
Zn2B O1B 1_555 1_555
O4D Zn1 1_555 1_555
O4G Zn1B 1_555 1_555
O5D Zn3 1_555 1_555
O5G Zn3 1_555 1_555
O6_2 Zn2 1_555 1_555
O6B_2 Zn2B 1_555 1_555
O7_2 Zn3 1_555 1_555
O7B_2 Zn3 1_555 1_555
O16D Zn1 1_555 1_555
O16G Zn1B 1_555 1_555
O17D Zn2 1_555 1_555
O17G Zn2B 1_555 1_555
Zn1D O16 1_555 1_555
Zn1D_2 O4 1_555 1_555
Zn1G O4B 1_555 1_555
Zn1G_2 O16B 1_555 1_555
Zn2_2 O6 1_555 1_555
Zn2B_2 O6B 1_555 1_555
Zn2D O17 1_555 1_555
Zn2G O17B 1_555 1_555
Zn3_2 O7B 1_555 1_555
Zn3_3 O7 1_555 1_555
Zn3D O5B 1_555 1_555
Zn3D_2 O5 1_555 1_555
C5 C6 1_555 1_555
C5 C21 1_555 1_555
C10 O11 1_555 1_555
C12 O13 1_555 1_555
C17 C18 1_555 1_555
O2 Zn2 1_555 1_555
K1 O11 1_555 1_555
K1 O12 1_555 1_555
K1 O13 1_555 1_555
K1 O14 1_555 1_555
C24 C49 1_555 1_555
C25 C26 1_555 1_555
C31 C32 1_555 1_555
C34 O15 1_555 1_555
C35 O14 1_555 1_555
C36 O12 1_555 1_555
C37 O10 1_555 1_555
C38 C39 1_555 1_555
C40 C41 1_555 1_555
C46 C47 1_555 1_555
C49 O15 1_555 1_555
C5B C6B 1_555 1_555
C5B C21B 1_555 1_555
C10B O11B 1_555 1_555
C12B O13B 1_555 1_555
C17B C18B 1_555 1_555
O2B Zn2B 1_555 1_555
K1B O11B 1_555 1_555
K1B O12B 1_555 1_555
K1B O13B 1_555 1_555
K1B O14B 1_555 1_555
C24B C49B 1_555 1_555
C25B C26B 1_555 1_555
C31B C32B 1_555 1_555
C34B O15B 1_555 1_555
C35B O14B 1_555 1_555
C36B O12B 1_555 1_555
C37B O10B 1_555 1_555
C38B C39B 1_555 1_555
C40B C41B 1_555 1_555
C46B C47B 1_555 1_555
C49B O15B 1_555 1_555
N1B Zn1B 1_555 1_555

#END
