
#######################################################################
#
#                 Cambridge Crystallographic Data Centre
#                                CCDC 
#
#######################################################################
#
# If this CIF has been generated from an entry in the Cambridge 
# Structural Database, then it will include bibliographic, chemical, 
# crystal, experimental, refinement or atomic coordinate data resulting 
# from the CCDC's data processing and validation procedures.
#
#######################################################################

data_LUPVID
_chemical_formula_moiety         '(C46 H32 Cl2 Mn1 N4)n,4(C6 H12)'
_chemical_name_systematic        
"catena-[(\m~4~-4,4',4'',4'''-(ethene-1,1,2,2-tetrayltetra-4,1-phenylene)tetrapyridine)-dichloro-manganese tetrakis(2,3-dimethylbut-2-ene)]"
_symmetry_cell_setting           monoclinic
_symmetry_space_group_name_H-M   'P 2/n'
_symmetry_Int_Tables_number      13
_space_group_name_Hall           '-P 2yac'
loop_
_symmetry_equiv_pos_site_id
_symmetry_equiv_pos_as_xyz
1 x,y,z
2 1/2-x,y,1/2-z
3 -x,-y,-z
4 1/2+x,-y,1/2+z
_cell_length_a                   14.5708(13)
_cell_length_b                   12.2088(12)
_cell_length_c                   17.3624(17)
_cell_angle_alpha                90
_cell_angle_beta                 90.061(2)
_cell_angle_gamma                90
_cell_volume                     3088.63
_exptl_crystal_colour            colorless
_exptl_crystal_description       plates
_cell_formula_units_Z            2
loop_
_atom_site_label
_atom_site_type_symbol
_atom_site_fract_x
_atom_site_fract_y
_atom_site_fract_z
Mn1 Mn 0.7500 0.75003(2) 0.7500
Cl1 Cl 0.7500 0.54728(4) 0.7500
Cl2 Cl 0.7500 0.95272(4) 0.7500
N1 N 0.6388(2) 0.7478(6) 0.65329(19)
C1 C 0.6094(5) 0.8433(5) 0.6203(4)
H1 H 0.6294 0.9093 0.6411
C2 C 0.5521(5) 0.8459(5) 0.5585(4)
H2 H 0.5352 0.9133 0.5379
C3 C 0.5188(3) 0.7520(9) 0.5258(2)
C4 C 0.5445(4) 0.6532(4) 0.5618(3)
H3 H 0.5218 0.5866 0.5440
C5 C 0.6045(4) 0.6563(4) 0.6246(3)
H4 H 0.6211 0.5903 0.6475
C6 C 0.46149(11) 0.74966(14) 0.45533(9)
C7 C 0.46873(17) 0.8319(2) 0.40047(15)
H5 H 0.5100 0.8889 0.4083
C8 C 0.41563(16) 0.8306(2) 0.33430(13)
H6 H 0.4233 0.8852 0.2975
C9 C 0.35125(9) 0.74908(12) 0.32214(8)
C10 C 0.34227(16) 0.6671(2) 0.37709(13)
H7 H 0.3001 0.6110 0.3695
C11 C 0.39580(19) 0.6683(2) 0.44322(14)
H8 H 0.3877 0.6140 0.4801
N2 N 0.6377(3) 0.7529(6) -0.1542(2)
C12 C 0.6061(3) 0.8433(3) -0.1229(2)
H9 H 0.6257 0.9097 -0.1434
C13 C 0.5455(3) 0.8465(3) -0.0610(3)
H10 H 0.5230 0.9132 -0.0433
C14 C 0.5187(4) 0.7485(12) -0.0257(3)
C15 C 0.5499(5) 0.6546(6) -0.0583(4)
H11 H 0.5315 0.5873 -0.0385
C16 C 0.6089(5) 0.6582(5) -0.1208(4)
H12 H 0.6299 0.5923 -0.1411
C17 C 0.46142(11) 0.75024(14) 0.04472(9)
C18 C 0.39591(18) 0.8325(2) 0.05695(13)
H13 H 0.3882 0.8873 0.0203
C19 C 0.34245(17) 0.8330(2) 0.12295(12)
H14 H 0.3002 0.8891 0.1306
C20 C 0.35119(9) 0.75102(12) 0.17782(8)
C21 C 0.41578(16) 0.6692(2) 0.16585(14)
H15 H 0.4236 0.6145 0.2026
C22 C 0.46887(17) 0.6683(2) 0.09935(15)
H16 H 0.5103 0.6115 0.0915
C23 C 0.29600(9) 0.74988(12) 0.25017(7)
N1A N -0.1388(2) 0.7478(6) -0.15329(19)
C1A C -0.1094(5) 0.8433(5) -0.1203(4)
H1A H -0.1294 0.9093 -0.1411
C2A C -0.0521(5) 0.8459(5) -0.0585(4)
H2A H -0.0352 0.9133 -0.0379
C3A C -0.0188(3) 0.7520(9) -0.0258(2)
C4A C -0.0445(4) 0.6532(4) -0.0618(3)
H3A H -0.0218 0.5866 -0.0440
C5A C -0.1045(4) 0.6563(4) -0.1246(3)
H4A H -0.1211 0.5903 -0.1475
C6A C 0.03851(11) 0.74966(14) 0.04467(9)
C7A C 0.03127(17) 0.8319(2) 0.09953(15)
H5A H -0.0100 0.8889 0.0917
C8A C 0.08437(16) 0.8306(2) 0.16570(13)
H6A H 0.0767 0.8852 0.2025
C9A C 0.14875(9) 0.74908(12) 0.17786(8)
C10A C 0.15773(16) 0.6671(2) 0.12291(13)
H7A H 0.1999 0.6110 0.1305
C11A C 0.10420(19) 0.6683(2) 0.05678(14)
H8A H 0.1123 0.6140 0.0199
N2A N -0.1377(3) 0.7529(6) 0.6542(2)
C12A C -0.1061(3) 0.8433(3) 0.6229(2)
H9A H -0.1257 0.9097 0.6434
C13A C -0.0455(3) 0.8465(3) 0.5610(3)
H10A H -0.0230 0.9132 0.5433
C14A C -0.0187(4) 0.7485(12) 0.5257(3)
C15A C -0.0499(5) 0.6546(6) 0.5583(4)
H11A H -0.0315 0.5873 0.5385
C16A C -0.1089(5) 0.6582(5) 0.6208(4)
H12A H -0.1299 0.5923 0.6411
C17A C 0.03858(11) 0.75024(14) 0.45528(9)
C18A C 0.10409(18) 0.8325(2) 0.44305(13)
H13A H 0.1118 0.8873 0.4797
C19A C 0.15755(17) 0.8330(2) 0.37705(12)
H14A H 0.1998 0.8891 0.3694
C20A C 0.14881(9) 0.75102(12) 0.32218(8)
C21A C 0.08422(16) 0.6692(2) 0.33415(14)
H15A H 0.0764 0.6145 0.2974
C22A C 0.03113(17) 0.6683(2) 0.40065(15)
H16A H -0.0103 0.6115 0.4085
C23A C 0.20400(9) 0.74988(12) 0.24983(7)
Mn1_2 Mn -0.2500 0.75003(2) -0.2500
Mn1_3 Mn -0.2500 0.75003(2) 0.7500
Mn1_4 Mn 0.7500 0.75003(2) -0.2500
N1A_2 N 0.8612(2) 0.7478(6) 0.84671(19)
N2_2 N 0.6377(3) 0.7529(6) 0.8458(2)
N2A_2 N 0.8623(3) 0.7529(6) 0.6542(2)
C24 C 0.6569(5) 0.4973(10) 0.3366(4)
C25 C 0.7189(7) 0.4991(10) 0.3895(6)
C26 C 0.6118(7) 0.5846(13) 0.3059(5)
H17 H 0.5502 0.5867 0.3255
H18 H 0.6103 0.5779 0.2509
H19 H 0.6432 0.6509 0.3198
C27 C 0.6224(12) 0.3939(13) 0.2998(8)
H20 H 0.6032 0.3436 0.3390
H21 H 0.6706 0.3614 0.2698
H22 H 0.5713 0.4107 0.2668
C28 C 0.7860(7) 0.4557(14) 0.4345(7)
H23 H 0.8373 0.4352 0.4029
H24 H 0.7629 0.3921 0.4606
H25 H 0.8053 0.5090 0.4717
C29 C 0.7412(12) 0.6285(18) 0.4217(13)
H26 H 0.8007 0.6511 0.4041
H27 H 0.7399 0.6294 0.4769
H28 H 0.6955 0.6779 0.4020
C30 C 0.8436(5) 1.0041(10) 0.3355(4)
C31 C 0.7820(7) 1.0018(10) 0.3868(6)
C32 C 0.8874(7) 0.9158(13) 0.3048(5)
H29 H 0.9525 0.9268 0.3077
H30 H 0.8694 0.9072 0.2519
H31 H 0.8711 0.8512 0.3331
C33 C 0.8779(14) 1.1049(15) 0.2978(9)
H32 H 0.8523 1.1105 0.2471
H33 H 0.9436 1.1018 0.2944
H34 H 0.8602 1.1676 0.3277
C34 C 0.7121(7) 1.0474(15) 0.4315(7)
H35 H 0.6579 1.0559 0.4007
H36 H 0.7313 1.1176 0.4505
H37 H 0.6991 0.9998 0.4742
C35 C 0.7477(13) 0.872(2) 0.4204(13)
H38 H 0.6886 0.8536 0.3994
H39 H 0.7441 0.8726 0.4756
H40 H 0.7917 0.8176 0.4046
N3? N 0.6415(5) 0.7533(13) 0.6512(4)
C36? C 0.5879(5) 0.8293(9) 0.6362(5)
H41? H 0.5871 0.8891 0.6695
C37? C 0.5282(6) 0.8316(10) 0.5726(7)
H42? H 0.4897 0.8915 0.5649
C38? C 0.5267(7) 0.744(2) 0.5207(5)
C39? C 0.5828(8) 0.6673(9) 0.5381(5)
H43? H 0.5854 0.6063 0.5062
C40? C 0.6390(8) 0.6698(9) 0.6008(6)
H44? H 0.6777 0.6105 0.6092
C41? C 0.4157(12) 0.8401(9) 0.4330(7)
H45? H 0.4188 0.9036 0.4626
C42? C 0.3646(10) 0.8387(9) 0.3671(6)
H46? H 0.3369 0.9038 0.3518
C43? C 0.3944(9) 0.6598(8) 0.3482(7)
H47? H 0.3905 0.5961 0.3190
C44? C 0.4441(12) 0.6562(8) 0.4153(9)
H48? H 0.4659 0.5895 0.4336
N4? N 0.6450(5) 0.7454(13) -0.1486(4)
C45? C 0.6444(4) 0.8290(7) -0.0984(4)
H49? H 0.6851 0.8868 -0.1058
C46? C 0.5861(5) 0.8322(7) -0.0369(4)
H50? H 0.5891 0.8925 -0.0042
C47? C 0.5258(10) 0.755(3) -0.0211(7)
C48? C 0.5298(11) 0.6699(14) -0.0754(10)
H51? H 0.4900 0.6109 -0.0697
C49? C 0.5883(10) 0.6696(12) -0.1354(9)
H52? H 0.5868 0.6103 -0.1690
C50? C 0.4488(9) 0.8407(8) 0.0873(7)
H53? H 0.4774 0.9054 0.0724
C51? C 0.3943(9) 0.8406(7) 0.1529(7)
H54? H 0.3876 0.9054 0.1805
C52? C 0.3644(10) 0.6619(8) 0.1329(7)
H55? H 0.3350 0.5972 0.1468
C53? C 0.4176(10) 0.6607(8) 0.0689(7)
H56? H 0.4237 0.5959 0.0412
loop_
_geom_bond_atom_site_label_1
_geom_bond_atom_site_label_2
_geom_bond_site_symmetry_1
_geom_bond_site_symmetry_2
Mn1 Cl1 1_555 1_555
Cl2 Mn1 1_555 1_555
N1 Mn1 1_555 1_555
C1 N1 1_555 1_555
H1 C1 1_555 1_555
C2 C1 1_555 1_555
H2 C2 1_555 1_555
C3 C2 1_555 1_555
C4 C3 1_555 1_555
H3 C4 1_555 1_555
C5 N1 1_555 1_555
H4 C5 1_555 1_555
C6 C3 1_555 1_555
C7 C6 1_555 1_555
H5 C7 1_555 1_555
C8 C7 1_555 1_555
H6 C8 1_555 1_555
C9 C8 1_555 1_555
C10 C9 1_555 1_555
H7 C10 1_555 1_555
C11 C6 1_555 1_555
H8 C11 1_555 1_555
N2 C12 1_555 1_555
C12 H9 1_555 1_555
C13 C12 1_555 1_555
H10 C13 1_555 1_555
C14 C13 1_555 1_555
C15 C14 1_555 1_555
H11 C15 1_555 1_555
C16 N2 1_555 1_555
H12 C16 1_555 1_555
C17 C14 1_555 1_555
C18 C17 1_555 1_555
H13 C18 1_555 1_555
C19 C18 1_555 1_555
H14 C19 1_555 1_555
C20 C19 1_555 1_555
C21 C20 1_555 1_555
H15 C21 1_555 1_555
C22 C17 1_555 1_555
H16 C22 1_555 1_555
C23 C9 1_555 1_555
C24 C25 1_555 1_555
C25 C28 1_555 1_555
C26 C24 1_555 1_555
H17 C26 1_555 1_555
H18 C26 1_555 1_555
H19 C26 1_555 1_555
C27 C24 1_555 1_555
H20 C27 1_555 1_555
H21 C27 1_555 1_555
H22 C27 1_555 1_555
C28 H23 1_555 1_555
H24 C28 1_555 1_555
H25 C28 1_555 1_555
C29 C25 1_555 1_555
H26 C29 1_555 1_555
H27 C29 1_555 1_555
H28 C29 1_555 1_555
C30 C31 1_555 1_555
C31 C34 1_555 1_555
C32 C30 1_555 1_555
H29 C32 1_555 1_555
H30 C32 1_555 1_555
H31 C32 1_555 1_555
C33 C30 1_555 1_555
H32 C33 1_555 1_555
H33 C33 1_555 1_555
H34 C33 1_555 1_555
C34 H35 1_555 1_555
H36 C34 1_555 1_555
H37 C34 1_555 1_555
C35 C31 1_555 1_555
H38 C35 1_555 1_555
H39 C35 1_555 1_555
H40 C35 1_555 1_555
N1A C1A 1_555 1_555
C1A H1A 1_555 1_555
C2A C1A 1_555 1_555
H2A C2A 1_555 1_555
C3A C2A 1_555 1_555
C4A C3A 1_555 1_555
H3A C4A 1_555 1_555
C5A N1A 1_555 1_555
H4A C5A 1_555 1_555
C6A C3A 1_555 1_555
C7A C6A 1_555 1_555
H5A C7A 1_555 1_555
C8A C7A 1_555 1_555
H6A C8A 1_555 1_555
C9A C8A 1_555 1_555
C10A C9A 1_555 1_555
H7A C10A 1_555 1_555
C11A C6A 1_555 1_555
H8A C11A 1_555 1_555
N2A C12A 1_555 1_555
C12A H9A 1_555 1_555
C13A C12A 1_555 1_555
H10A C13A 1_555 1_555
C14A C13A 1_555 1_555
C15A C14A 1_555 1_555
H11A C15A 1_555 1_555
C16A N2A 1_555 1_555
H12A C16A 1_555 1_555
C17A C14A 1_555 1_555
C18A C17A 1_555 1_555
H13A C18A 1_555 1_555
C19A C18A 1_555 1_555
H14A C19A 1_555 1_555
C20A C19A 1_555 1_555
C21A C20A 1_555 1_555
H15A C21A 1_555 1_555
C22A C17A 1_555 1_555
H16A C22A 1_555 1_555
C23A C23 1_555 1_555
Mn1_2 N1A 1_555 1_555
Mn1_3 N2A 1_555 1_555
Mn1_4 N2 1_555 1_555
N1A_2 Mn1 1_555 1_555
N2_2 Mn1 1_555 1_555
N2A_2 Mn1 1_555 1_555
C4 C5 1_555 1_555
C10 C11 1_555 1_555
C15 C16 1_555 1_555
C20 C23 1_555 1_555
C21 C22 1_555 1_555
C4A C5A 1_555 1_555
C9A C23A 1_555 1_555
C10A C11A 1_555 1_555
C15A C16A 1_555 1_555
C20A C23A 1_555 1_555
C21A C22A 1_555 1_555

#END
