
#######################################################################
#
#                 Cambridge Crystallographic Data Centre
#                                CCDC 
#
#######################################################################
#
# If this CIF has been generated from an entry in the Cambridge 
# Structural Database, then it will include bibliographic, chemical, 
# crystal, experimental, refinement or atomic coordinate data resulting 
# from the CCDC's data processing and validation procedures.
#
#######################################################################

data_IQARUQ
_chemical_formula_moiety         '(C16 H15 Cu1 N10 O5 Zn2)n'
_chemical_name_systematic        
'catena-[bis(\m-pyrazole-4-carboxylato)-(\m-7H-purin-6-amine)-(N,N-dimethylformamide)-di-zinc-copper unknown solvate]'
_symmetry_cell_setting           cubic
_symmetry_space_group_name_H-M   'F m -3 c'
_symmetry_Int_Tables_number      226
_space_group_name_Hall           '-F 4a 2 3'
loop_
_symmetry_equiv_pos_site_id
_symmetry_equiv_pos_as_xyz
1 x,y,z
2 -x,-y,z
3 -x,y,-z
4 x,-y,-z
5 z,x,y
6 z,-x,-y
7 -z,-x,y
8 -z,x,-y
9 y,z,x
10 -y,z,-x
11 y,-z,-x
12 -y,-z,x
13 1/2+y,1/2+x,1/2-z
14 1/2-y,1/2-x,1/2-z
15 1/2+y,1/2-x,1/2+z
16 1/2-y,1/2+x,1/2+z
17 1/2+x,1/2+z,1/2-y
18 1/2-x,1/2+z,1/2+y
19 1/2-x,1/2-z,1/2-y
20 1/2+x,1/2-z,1/2+y
21 1/2+z,1/2+y,1/2-x
22 1/2+z,1/2-y,1/2+x
23 1/2-z,1/2+y,1/2+x
24 1/2-z,1/2-y,1/2-x
25 x,1/2+y,1/2+z
26 -x,1/2-y,1/2+z
27 -x,1/2+y,1/2-z
28 x,1/2-y,1/2-z
29 z,1/2+x,1/2+y
30 z,1/2-x,1/2-y
31 -z,1/2-x,1/2+y
32 -z,1/2+x,1/2-y
33 y,1/2+z,1/2+x
34 -y,1/2+z,1/2-x
35 y,1/2-z,1/2-x
36 -y,1/2-z,1/2+x
37 1/2+y,x,-z
38 1/2-y,-x,-z
39 1/2+y,-x,z
40 1/2-y,x,z
41 1/2+x,z,-y
42 1/2-x,z,y
43 1/2-x,-z,-y
44 1/2+x,-z,y
45 1/2+z,y,-x
46 1/2+z,-y,x
47 1/2-z,y,x
48 1/2-z,-y,-x
49 1/2+x,y,1/2+z
50 1/2-x,-y,1/2+z
51 1/2-x,y,1/2-z
52 1/2+x,-y,1/2-z
53 1/2+z,x,1/2+y
54 1/2+z,-x,1/2-y
55 1/2-z,-x,1/2+y
56 1/2-z,x,1/2-y
57 1/2+y,z,1/2+x
58 1/2-y,z,1/2-x
59 1/2+y,-z,1/2-x
60 1/2-y,-z,1/2+x
61 y,1/2+x,-z
62 -y,1/2-x,-z
63 y,1/2-x,z
64 -y,1/2+x,z
65 x,1/2+z,-y
66 -x,1/2+z,y
67 -x,1/2-z,-y
68 x,1/2-z,y
69 z,1/2+y,-x
70 z,1/2-y,x
71 -z,1/2+y,x
72 -z,1/2-y,-x
73 1/2+x,1/2+y,z
74 1/2-x,1/2-y,z
75 1/2-x,1/2+y,-z
76 1/2+x,1/2-y,-z
77 1/2+z,1/2+x,y
78 1/2+z,1/2-x,-y
79 1/2-z,1/2-x,y
80 1/2-z,1/2+x,-y
81 1/2+y,1/2+z,x
82 1/2-y,1/2+z,-x
83 1/2+y,1/2-z,-x
84 1/2-y,1/2-z,x
85 y,x,1/2-z
86 -y,-x,1/2-z
87 y,-x,1/2+z
88 -y,x,1/2+z
89 x,z,1/2-y
90 -x,z,1/2+y
91 -x,-z,1/2-y
92 x,-z,1/2+y
93 z,y,1/2-x
94 z,-y,1/2+x
95 -z,y,1/2+x
96 -z,-y,1/2-x
97 -x,-y,-z
98 x,y,-z
99 x,-y,z
100 -x,y,z
101 -z,-x,-y
102 -z,x,y
103 z,x,-y
104 z,-x,y
105 -y,-z,-x
106 y,-z,x
107 -y,z,x
108 y,z,-x
109 1/2-y,1/2-x,1/2+z
110 1/2+y,1/2+x,1/2+z
111 1/2-y,1/2+x,1/2-z
112 1/2+y,1/2-x,1/2-z
113 1/2-x,1/2-z,1/2+y
114 1/2+x,1/2-z,1/2-y
115 1/2+x,1/2+z,1/2+y
116 1/2-x,1/2+z,1/2-y
117 1/2-z,1/2-y,1/2+x
118 1/2-z,1/2+y,1/2-x
119 1/2+z,1/2-y,1/2-x
120 1/2+z,1/2+y,1/2+x
121 -x,1/2-y,1/2-z
122 x,1/2+y,1/2-z
123 x,1/2-y,1/2+z
124 -x,1/2+y,1/2+z
125 -z,1/2-x,1/2-y
126 -z,1/2+x,1/2+y
127 z,1/2+x,1/2-y
128 z,1/2-x,1/2+y
129 -y,1/2-z,1/2-x
130 y,1/2-z,1/2+x
131 -y,1/2+z,1/2+x
132 y,1/2+z,1/2-x
133 1/2-y,-x,z
134 1/2+y,x,z
135 1/2-y,x,-z
136 1/2+y,-x,-z
137 1/2-x,-z,y
138 1/2+x,-z,-y
139 1/2+x,z,y
140 1/2-x,z,-y
141 1/2-z,-y,x
142 1/2-z,y,-x
143 1/2+z,-y,-x
144 1/2+z,y,x
145 1/2-x,-y,1/2-z
146 1/2+x,y,1/2-z
147 1/2+x,-y,1/2+z
148 1/2-x,y,1/2+z
149 1/2-z,-x,1/2-y
150 1/2-z,x,1/2+y
151 1/2+z,x,1/2-y
152 1/2+z,-x,1/2+y
153 1/2-y,-z,1/2-x
154 1/2+y,-z,1/2+x
155 1/2-y,z,1/2+x
156 1/2+y,z,1/2-x
157 -y,1/2-x,z
158 y,1/2+x,z
159 -y,1/2+x,-z
160 y,1/2-x,-z
161 -x,1/2-z,y
162 x,1/2-z,-y
163 x,1/2+z,y
164 -x,1/2+z,-y
165 -z,1/2-y,x
166 -z,1/2+y,-x
167 z,1/2-y,-x
168 z,1/2+y,x
169 1/2-x,1/2-y,-z
170 1/2+x,1/2+y,-z
171 1/2+x,1/2-y,z
172 1/2-x,1/2+y,z
173 1/2-z,1/2-x,-y
174 1/2-z,1/2+x,y
175 1/2+z,1/2+x,-y
176 1/2+z,1/2-x,y
177 1/2-y,1/2-z,-x
178 1/2+y,1/2-z,x
179 1/2-y,1/2+z,x
180 1/2+y,1/2+z,-x
181 -y,-x,1/2+z
182 y,x,1/2+z
183 -y,x,1/2-z
184 y,-x,1/2-z
185 -x,-z,1/2+y
186 x,-z,1/2-y
187 x,z,1/2+y
188 -x,z,1/2-y
189 -z,-y,1/2+x
190 -z,y,1/2-x
191 z,-y,1/2-x
192 z,y,1/2+x
_cell_length_a                   43.54745(12)
_cell_length_b                   43.54745(12)
_cell_length_c                   43.54745(12)
_cell_angle_alpha                90
_cell_angle_beta                 90
_cell_angle_gamma                90
_cell_volume                     82582.5
_exptl_crystal_colour            'dull dark red'
_exptl_crystal_description       block
_cell_formula_units_Z            96
loop_
_atom_site_label
_atom_site_type_symbol
_atom_site_fract_x
_atom_site_fract_y
_atom_site_fract_z
_atom_site_U_iso_or_equiv
_atom_site_thermal_displace_type
Zn1 Zn 0.42024(2) 0.72004(2) 0.62069(2) 0.0197 Uani
O1 O 0.44743(6) 0.70699(5) 0.67715(5) 0.0456 Uani
Cu1 Cu 0.46701(2) 0.71087(2) 0.500000 0.0512 Uani
O2 O 0.41534(5) 0.68313(5) 0.64539(5) 0.0348 Uani
N1 N 0.42002(5) 0.63443(5) 0.73692(5) 0.0228 Uani
N2 N 0.40485(5) 0.61809(5) 0.71457(5) 0.0245 Uani
C1 C 0.40666(6) 0.63422(6) 0.68849(6) 0.0285 Uani
H1 H 0.397920 0.628369 0.669905 0.0340 Uiso
C2 C 0.42340(6) 0.66085(6) 0.69310(6) 0.0281 Uani
C3 C 0.43130(6) 0.65984(6) 0.72402(6) 0.0286 Uani
H2 H 0.442775 0.674685 0.734213 0.0340 Uiso
C4 C 0.42964(6) 0.68538(6) 0.67097(7) 0.0320 Uani
C5 C 0.39014(8) 0.70216(8) 0.4960(3) 0.0723 Uani
H3 H 0.373290 0.714794 0.499593 0.0870 Uiso
O3 O 0.41449(9) 0.71512(9) 0.48997(11) 0.0545 Uani
N3 N 0.38513(8) 0.67142(9) 0.4980(3) 0.0990 Uani
C6 C 0.35578(11) 0.65793(13) 0.5027(6) 0.0743 Uani
H4 H 0.340960 0.673765 0.506656 0.1120 Uiso
H5 H 0.356654 0.644216 0.519939 0.1120 Uiso
H6 H 0.349908 0.646705 0.484665 0.1120 Uiso
C7 C 0.41053(16) 0.65031(9) 0.4882(4) 0.1177 Uani
H7 H 0.416955 0.655556 0.467782 0.1770 Uiso
H8 H 0.403312 0.629482 0.488517 0.1770 Uiso
H9 H 0.427578 0.652383 0.502031 0.1770 Uiso
N4 N 0.46830(17) 0.7102(2) 0.53887(14) 0.0353 Uani
C8 C 0.44532(13) 0.71159(17) 0.55942(15) 0.0293 Uani
H10 H 0.424782 0.711124 0.553577 0.0360 Uiso
N5 N 0.45383(11) 0.71365(16) 0.58850(14) 0.0230 Uani
C9 C 0.48559(9) 0.71390(11) 0.58717(9) 0.0233 Uani
C10 C 0.50936(9) 0.71594(10) 0.60904(10) 0.0200 Uani
N6 N 0.50504(12) 0.71859(8) 0.63917(8) 0.0196 Uani
H11 H 0.520574 0.719867 0.651300 0.0240 Uiso
H12 H 0.486715 0.719027 0.646521 0.0240 Uiso
N7 N 0.53894(11) 0.71533(14) 0.59819(12) 0.0203 Uani
C11 C 0.54424(16) 0.71300(16) 0.56813(16) 0.0293 Uani
H13 H 0.564673 0.712355 0.561948 0.0350 Uiso
N8 N 0.52302(15) 0.7115(2) 0.54606(14) 0.0337 Uani
C12 C 0.49410(13) 0.71187(12) 0.55642(11) 0.0289 Uani
C5SC C 0.39014(8) 0.70216(8) 0.5040(3) 0.0723 Uani
O3SC O 0.41449(9) 0.71512(9) 0.51003(11) 0.0545 Uani
N3SC N 0.38513(8) 0.67142(9) 0.5020(3) 0.0990 Uani
C6SC C 0.35578(11) 0.65793(13) 0.4973(6) 0.0743 Uani
H4SC H 0.340960 0.673765 0.493344 0.1120 Uiso
H5SC H 0.356654 0.644216 0.480061 0.1120 Uiso
H6SC H 0.349908 0.646705 0.515335 0.1120 Uiso
C7SC C 0.41053(16) 0.65031(9) 0.5118(4) 0.1177 Uani
H7SC H 0.416955 0.655556 0.532218 0.1770 Uiso
H8SC H 0.403312 0.629482 0.511483 0.1770 Uiso
H9SC H 0.427578 0.652383 0.497969 0.1770 Uiso
N4UC N 0.53170(17) 0.7102(2) 0.53887(14) 0.0353 Uani
C8UC C 0.55468(13) 0.71159(17) 0.55942(15) 0.0293 Uani
H10UC H 0.575218 0.711124 0.553577 0.0360 Uiso
N5UC N 0.54617(11) 0.71365(16) 0.58850(14) 0.0230 Uani
C9UC C 0.51441(9) 0.71390(11) 0.58717(9) 0.0233 Uani
C10UC C 0.49064(9) 0.71594(10) 0.60904(10) 0.0200 Uani
N6UC N 0.49496(12) 0.71859(8) 0.63917(8) 0.0196 Uani
H11UC H 0.479426 0.719867 0.651300 0.0240 Uiso
H12UC H 0.513285 0.719027 0.646521 0.0240 Uiso
N7UC N 0.46106(11) 0.71533(14) 0.59819(12) 0.0203 Uani
C11UC C 0.45576(16) 0.71300(16) 0.56813(16) 0.0293 Uani
H13UC H 0.435327 0.712355 0.561948 0.0350 Uiso
N8UC N 0.47698(15) 0.7115(2) 0.54606(14) 0.0337 Uani
C12UC C 0.50590(13) 0.71187(12) 0.55642(11) 0.0289 Uani
Zn1OB Zn 0.42024(2) 0.87931(2) 0.72004(2) 0.0197 Uani
O1OB O 0.44743(6) 0.82285(5) 0.70699(5) 0.0456 Uani
O2OB O 0.41534(5) 0.85461(5) 0.68313(5) 0.0348 Uani
N1OB N 0.42002(5) 0.76308(5) 0.63443(5) 0.0228 Uani
N2OB N 0.40485(5) 0.78543(5) 0.61809(5) 0.0245 Uani
C1OB C 0.40666(6) 0.81151(6) 0.63422(6) 0.0285 Uani
H1OB H 0.397920 0.830095 0.628369 0.0340 Uiso
C2OB C 0.42340(6) 0.80690(6) 0.66085(6) 0.0281 Uani
C3OB C 0.43130(6) 0.77598(6) 0.65984(6) 0.0286 Uani
H2OB H 0.442775 0.765787 0.674685 0.0340 Uiso
C4OB C 0.42964(6) 0.82903(7) 0.68538(6) 0.0320 Uani
Zn1F Zn 0.37931(2) 0.57976(2) 0.72004(2) 0.0197 Uani
Zn1SB Zn 0.37931(2) 0.77996(2) 0.57976(2) 0.0197 Uani
Zn1JC Zn 0.42024(2) 0.62069(2) 0.77996(2) 0.0197 Uani
Zn1UC Zn 0.57976(2) 0.72004(2) 0.62069(2) 0.0197 Uani
Cu1B Cu 0.53299(2) 0.71087(2) 0.500000 0.0512 Uani
N1AA N 0.42002(5) 0.86557(5) 0.76308(5) 0.0228 Uani
N2I N 0.38191(5) 0.71457(5) 0.59515(5) 0.0245 Uani
N2KB N 0.38191(5) 0.90485(5) 0.71457(5) 0.0245 Uani
N4SC N 0.46830(17) 0.7102(2) 0.46113(14) 0.0353 Uani
N5OB N 0.45383(11) 0.91150(14) 0.71365(16) 0.0230 Uani
N7DF N 0.46106(11) 0.90181(12) 0.71533(14) 0.0203 Uani
N8B N 0.47698(15) 0.7115(2) 0.45394(14) 0.0337 Uani
loop_
_atom_site_aniso_label
_atom_site_aniso_U_11
_atom_site_aniso_U_22
_atom_site_aniso_U_33
_atom_site_aniso_U_23
_atom_site_aniso_U_13
_atom_site_aniso_U_12
Zn1 0.01893(18) 0.01925(18) 0.02078(18) 0.00212(11) 0.00012(11) 0.00053(11)
O1 0.0545(14) 0.0322(10) 0.0501(13) 0.0143(9) -0.0118(10) -0.0138(10)
Cu1 0.0250(3) 0.0754(5) 0.0531(4) 0.000 0.000 0.0007(3)
O2 0.0368(10) 0.0358(10) 0.0317(10) 0.0120(8) -0.0037(8) -0.0053(8)
N1 0.0242(10) 0.0211(9) 0.0230(10) 0.0009(8) -0.0016(7) -0.0021(7)
N2 0.0245(10) 0.0264(10) 0.0226(10) 0.0028(8) -0.0043(8) -0.0041(8)
C1 0.0298(12) 0.0318(13) 0.0240(12) 0.0091(10) -0.0050(9) -0.0068(10)
C2 0.0249(12) 0.0271(12) 0.0324(13) 0.0073(10) -0.0024(10) -0.0006(10)
C3 0.0328(13) 0.0238(12) 0.0291(12) 0.0040(10) -0.0003(10) -0.0042(10)
C4 0.0296(13) 0.0304(13) 0.0359(14) 0.0104(11) 0.0010(11) 0.0013(10)
C5 0.039(3) 0.074(4) 0.104(8) 0.008(6) -0.008(5) -0.001(3)
O3 0.0294(19) 0.092(4) 0.042(3) -0.004(2) -0.0006(16) -0.005(2)
N3 0.049(3) 0.082(4) 0.166(9) 0.059(8) 0.027(8) 0.009(3)
C6 0.055(3) 0.102(6) 0.066(9) -0.029(9) 0.003(6) -0.018(3)
C7 0.067(5) 0.086(6) 0.20(2) 0.008(8) 0.026(7) 0.003(5)
N4 0.018(4) 0.062(4) 0.026(3) -0.004(3) -0.002(2) 0.002(3)
C8 0.020(3) 0.051(3) 0.017(3) 0.003(3) 0.002(2) 0.003(3)
N5 0.015(2) 0.037(3) 0.017(3) -0.001(3) -0.004(2) 0.002(2)
C9 0.018(2) 0.032(2) 0.020(2) 0.0006(18) 0.0006(18) 0.0008(18)
C10 0.016(2) 0.024(2) 0.020(2) 0.0010(16) 0.0029(14) 0.0007(13)
N6 0.009(5) 0.0304(17) 0.0195(15) -0.0019(12) -0.0014(13) -0.0002(14)
N7 0.018(2) 0.026(2) 0.017(3) 0.002(2) 0.0028(18) -0.003(2)
C11 0.023(4) 0.048(3) 0.017(4) 0.001(3) 0.002(3) -0.002(3)
N8 0.019(5) 0.065(4) 0.017(3) 0.001(3) -0.001(2) 0.006(3)
C12 0.021(5) 0.048(3) 0.0178(19) -0.0012(18) 0.0010(19) -0.001(2)
C5SC 0.039 0.074 0.104 -0.008 0.008 -0.001
O3SC 0.0294 0.092 0.042 0.004 0.0006 -0.005
N3SC 0.049 0.082 0.166 -0.059 -0.027 0.009
C6SC 0.055 0.102 0.066 0.029 -0.003 -0.018
C7SC 0.067 0.086 0.2 -0.008 -0.026 0.003
N4UC 0.018 0.062 0.026 -0.004 0.002 -0.002
C8UC 0.02 0.051 0.017 0.003 -0.002 -0.003
N5UC 0.015 0.037 0.017 -0.001 0.004 -0.002
C9UC 0.018 0.032 0.02 0.0006 -0.0006 -0.0008
C10UC 0.016 0.024 0.02 0.001 -0.0029 -0.0007
N6UC 0.009 0.0304 0.0195 -0.0019 0.0014 0.0002
N7UC 0.018 0.026 0.017 0.002 -0.0028 0.003
C11UC 0.023 0.048 0.017 0.001 -0.002 0.002
N8UC 0.019 0.065 0.017 0.001 0.001 -0.006
C12UC 0.021 0.048 0.0178 -0.0012 -0.001 0.001
Zn1OB 0.01893 0.02078 0.01925 -0.00212 0.00053 -0.00012
O1OB 0.0545 0.0501 0.0322 -0.0143 -0.0138 0.0118
O2OB 0.0368 0.0317 0.0358 -0.012 -0.0053 0.0037
N1OB 0.0242 0.023 0.0211 -0.0009 -0.0021 0.0016
N2OB 0.0245 0.0226 0.0264 -0.0028 -0.0041 0.0043
C1OB 0.0298 0.024 0.0318 -0.0091 -0.0068 0.005
C2OB 0.0249 0.0324 0.0271 -0.0073 -0.0006 0.0024
C3OB 0.0328 0.0291 0.0238 -0.004 -0.0042 0.0003
C4OB 0.0296 0.0359 0.0304 -0.0104 0.0013 -0.001
Zn1F 0.02078 0.01893 0.01925 -0.00053 -0.00212 0.00012
Zn1SB 0.02078 0.01925 0.01893 0.00053 0.00012 0.00212
Zn1JC 0.01893 0.02078 0.01925 -0.00212 -0.00053 0.00012
Zn1UC 0.01893 0.01925 0.02078 0.00212 -0.00012 -0.00053
Cu1B 0.025 0.0754 0.0531 0 0 -0.0007
N1AA 0.0242 0.0211 0.023 0.0009 0.0016 0.0021
N2I 0.0264 0.0226 0.0245 0.0043 -0.0041 -0.0028
N2KB 0.0264 0.0245 0.0226 -0.0043 -0.0028 0.0041
N4SC 0.018 0.062 0.026 0.004 0.002 0.002
N5OB 0.015 0.017 0.037 0.001 0.002 0.004
N7DF 0.018 0.017 0.026 -0.002 0.003 0.0028
N8B 0.019 0.065 0.017 -0.001 -0.001 -0.006
loop_
_geom_bond_atom_site_label_1
_geom_bond_atom_site_label_2
_geom_bond_site_symmetry_1
_geom_bond_site_symmetry_2
Zn1 O2 1_555 1_555
O1 C4 1_555 1_555
Cu1 O3 1_555 1_555
O2 C4 1_555 1_555
N1 N2 1_555 1_555
N2 C1 1_555 1_555
C1 H1 1_555 1_555
C2 C1 1_555 1_555
C3 N1 1_555 1_555
H2 C3 1_555 1_555
C4 C2 1_555 1_555
C5 H3 1_555 1_555
H3 C5SC 1_555 1_555
O3 C5 1_555 1_555
N3 C5 1_555 1_555
C6 N3 1_555 1_555
H4 C6 1_555 1_555
H5 C6 1_555 1_555
H6 C6 1_555 1_555
C7 N3 1_555 1_555
H7 C7 1_555 1_555
H8 C7 1_555 1_555
H9 C7 1_555 1_555
N4 Cu1 1_555 1_555
C8 N4 1_555 1_555
H10 C8 1_555 1_555
N5 Zn1 1_555 1_555
C9 N5 1_555 1_555
C10 N6 1_555 1_555
N6 H11 1_555 1_555
H11 N6UC 1_555 1_555
H12 N6 1_555 1_555
N7 C10 1_555 1_555
C11 N7 1_555 1_555
H13 C11 1_555 1_555
N8 C11 1_555 1_555
C12 N4 1_555 1_555
C5SC O3 1_555 1_555
O3SC Cu1 1_555 1_555
N3SC C5 1_555 1_555
C6SC N3 1_555 1_555
H4SC C6 1_555 1_555
H5SC C6 1_555 1_555
H6SC C6 1_555 1_555
C7SC N3 1_555 1_555
H7SC C7SC 1_555 1_555
H8SC C7SC 1_555 1_555
H9SC C7 1_555 1_555
N4UC C11 1_555 1_555
C8UC C11 1_555 1_555
H10UC C8UC 1_555 1_555
N5UC C11 1_555 1_555
C9UC C9 1_555 1_555
C10UC C10 1_555 1_555
N6UC C10 1_555 1_555
H11UC N6 1_555 1_555
H12UC N6UC 1_555 1_555
N7UC Zn1 1_555 1_555
C11UC N4 1_555 1_555
H13UC C11UC 1_555 1_555
N8UC Cu1 1_555 1_555
C12UC N4 1_555 1_555
Zn1OB O2OB 1_555 1_555
O1OB C4OB 1_555 1_555
O2OB C4OB 1_555 1_555
N1OB Zn1 1_555 1_555
N2OB N1OB 1_555 1_555
C1OB N2OB 1_555 1_555
H1OB C1OB 1_555 1_555
C2OB C1OB 1_555 1_555
C3OB N1OB 1_555 1_555
H2OB C3OB 1_555 1_555
C4OB C2OB 1_555 1_555
Zn1F N2 1_555 1_555
Zn1SB N2OB 1_555 1_555
Zn1JC N1 1_555 1_555
Zn1UC N7 1_555 1_555
Cu1B N8 1_555 1_555
N1AA Zn1OB 1_555 1_555
N2I Zn1 1_555 1_555
N2KB Zn1OB 1_555 1_555
N4SC Cu1 1_555 1_555
N5OB Zn1OB 1_555 1_555
N7DF Zn1OB 1_555 1_555
N8B Cu1 1_555 1_555
C2 C3 1_555 1_555
C5 O3SC 1_555 1_555
O3 O3SC 1_555 1_555
N3 C5SC 1_555 1_555
C6 N3SC 1_555 1_555
H4 C6SC 1_555 1_555
H5 C6SC 1_555 1_555
H6 C6SC 1_555 1_555
C7 N3SC 1_555 1_555
C7 C7SC 1_555 1_555
H9 C7SC 1_555 1_555
C8 N5 1_555 1_555
C8 C11UC 1_555 1_555
C8 N8UC 1_555 1_555
N5 C11UC 1_555 1_555
C9 C12 1_555 1_555
C9 N7UC 1_555 1_555
C9 C11UC 1_555 1_555
C9 C12UC 1_555 1_555
N6 C10UC 1_555 1_555
N7 C9UC 1_555 1_555
C11 C9UC 1_555 1_555
N8 C12 1_555 1_555
N8 C8UC 1_555 1_555
N8 C12UC 1_555 1_555
C12 N4UC 1_555 1_555
C12 C9UC 1_555 1_555
C12 N8UC 1_555 1_555
C5SC O3SC 1_555 1_555
C5SC N3SC 1_555 1_555
N3SC C6SC 1_555 1_555
N3SC C7SC 1_555 1_555
C6SC H4SC 1_555 1_555
C6SC H5SC 1_555 1_555
C6SC H6SC 1_555 1_555
C7SC H9SC 1_555 1_555
N4UC C8UC 1_555 1_555
N4UC C12UC 1_555 1_555
N4UC Cu1B 1_555 1_555
C8UC N5UC 1_555 1_555
N5UC C9UC 1_555 1_555
N5UC Zn1UC 1_555 1_555
C9UC C12UC 1_555 1_555
C10UC N6UC 1_555 1_555
C10UC N7UC 1_555 1_555
N6UC H11UC 1_555 1_555
N7UC C11UC 1_555 1_555
C11UC N8UC 1_555 1_555
N8UC C12UC 1_555 1_555
C2OB C3OB 1_555 1_555

#END
