
#######################################################################
#
#                 Cambridge Crystallographic Data Centre
#                                CCDC 
#
#######################################################################
#
# If this CIF has been generated from an entry in the Cambridge 
# Structural Database, then it will include bibliographic, chemical, 
# crystal, experimental, refinement or atomic coordinate data resulting 
# from the CCDC's data processing and validation procedures.
#
#######################################################################

data_PARNIH
_chemical_formula_moiety         '(C31 H25 Cu2 N1 O12)n,3n(H2 O1)'
_chemical_name_systematic        
"catena-(bis(\m~4~-4,4'-oxydibenzoato)-aqua-(N,N-dimethylformamide)-di-copper(ii) trihydrate)"
_symmetry_cell_setting           monoclinic
_symmetry_space_group_name_H-M   'C 2/c'
_symmetry_Int_Tables_number      15
_space_group_name_Hall           '-C 2yc'
loop_
_symmetry_equiv_pos_site_id
_symmetry_equiv_pos_as_xyz
1 x,y,z
2 -x,y,1/2-z
3 1/2+x,1/2+y,z
4 1/2-x,1/2+y,1/2-z
5 -x,-y,-z
6 x,-y,1/2+z
7 1/2-x,1/2-y,-z
8 1/2+x,1/2-y,1/2+z
_cell_length_a                   27.912(6)
_cell_length_b                   16.272(8)
_cell_length_c                   33.504(9)
_cell_angle_alpha                90
_cell_angle_beta                 139.655(13)
_cell_angle_gamma                90
_cell_volume                     9851.3
_exptl_crystal_colour            colorless
_exptl_crystal_description       prism
_cell_formula_units_Z            8
loop_
_atom_site_label
_atom_site_type_symbol
_atom_site_fract_x
_atom_site_fract_y
_atom_site_fract_z
Cu1 Cu -0.05533(9) 0.25234(9) 0.18678(7)
Cu2 Cu 0.54406(9) -0.49040(9) 0.49488(7)
O1 O 0.4732(6) -0.3990(6) 0.4352(5)
O2 O 0.3986(5) -0.4156(5) 0.4444(4)
O3 O 0.0035(6) 0.3444(6) 0.1999(5)
O4 O 0.1065(6) 0.3335(6) 0.3069(5)
O5 O 0.2183(6) 0.6090(7) 0.2506(6)
O6 O 0.1016(6) 0.9090(6) 0.0647(4)
O7 O 0.0263(6) 0.9252(6) 0.0729(4)
O8 O 0.0226(6) 0.1723(6) 0.2115(5)
O9 O 0.1038(6) 0.1618(6) 0.3145(5)
O10 O 0.2640(8) -0.0785(7) 0.2845(6)
O11 O -0.1298(7) 0.2511(7) 0.0854(5)
C1 C 0.1081(7) 0.4309(8) 0.2528(6)
C2 C 0.0696(8) 0.3651(8) 0.2535(7)
C3 C 0.1312(7) 0.0816(9) 0.2725(6)
C4 C 0.1760(9) 0.7741(8) 0.1489(8)
H2 H 0.1924 0.7930 0.1335
C5 C 0.4207(7) -0.3770(8) 0.4263(6)
C6 C 0.2093(9) 0.7029(10) 0.1888(7)
C7 C 0.3942(9) -0.2559(9) 0.3624(7)
H5 H 0.4304 -0.2773 0.3672
C8 C 0.1807(8) 0.5525(9) 0.2514(6)
C9 C 0.1183(8) 0.8175(8) 0.1316(7)
C10 C 0.1269(9) 0.7233(11) 0.1958(8)
H6 H 0.1105 0.7041 0.2112
O12 O 0.6175(10) -0.4827(8) 0.4845(8)
C11 C 0.1827(9) 0.6787(9) 0.2104(7)
C12 C 0.3766(8) -0.3010(8) 0.3874(6)
C13 C 0.1079(9) 0.0575(8) 0.2181(7)
H7 H 0.0627 0.0794 0.1785
C14 C 0.1503(10) 0.0030(8) 0.2220(8)
H8 H 0.1351 -0.0122 0.1860
C15 C 0.1869(8) 0.4508(9) 0.3076(7)
H9 H 0.2163 0.4208 0.3454
C16 C 0.2186(9) -0.0298(9) 0.2828(7)
C17 C 0.0694(8) 0.4710(9) 0.1977(7)
H10 H 0.0194 0.4545 0.1606
C18 C 0.0848(7) 0.1435(8) 0.2689(7)
C19 C 0.1977(8) 0.0505(9) 0.3298(7)
H11 H 0.2142 0.0671 0.3662
C20 C 0.0950(9) 0.7938(10) 0.1579(8)
H12 H 0.0597 0.8266 0.1495
N1 N -0.1380(8) 0.2673(11) 0.0111(6)
C21 C 0.3558(10) -0.1795(9) 0.3291(9)
H13 H 0.3680 -0.1484 0.3131
C22 C 0.2995(9) -0.1477(9) 0.3210(7)
C23 C 0.0774(8) 0.8905(8) 0.0851(6)
C24 C 0.2406(9) -0.0056(9) 0.3351(7)
H14 H 0.2851 -0.0281 0.3748
C25 C 0.2191(8) 0.5145(9) 0.3048(7)
H15 H 0.2694 0.5307 0.3414
C26 C 0.3200(10) -0.2684(9) 0.3772(8)
H16 H 0.3089 -0.2974 0.3946
C27 C 0.2802(9) -0.1940(10) 0.3423(8)
H17 H 0.2403 -0.1759 0.3336
C28 C 0.1012(8) 0.5343(10) 0.1953(7)
H18 H 0.0722 0.5657 0.1581
C29 C -0.1029(12) 0.2724(16) 0.0703(9)
H19 H -0.0536 0.2943 0.1020
C30 C -0.2076(17) 0.244(2) -0.0381(12)
H20 H -0.2266 0.2267 -0.0246
H21 H -0.2400 0.2843 -0.0704
H22 H -0.2046 0.1973 -0.0533
C31 C -0.0989(18) 0.298(3) -0.0028(15)
H23 H -0.1297 0.2907 -0.0454
H24 H -0.0878 0.3554 0.0070
H25 H -0.0537 0.2679 0.0227
Cu1A Cu 0.05533(9) 0.25234(9) 0.31322(7)
Cu2D Cu 0.45594(9) -0.50960(9) 0.50512(7)
Cu2G Cu 0.04406(9) 0.99040(9) -0.00512(7)
Cu2C Cu -0.04406(9) 1.00960(9) 0.00512(7)
O2D O 0.6014(5) -0.5844(5) 0.5556(4)
O4A O -0.1065(6) 0.3335(6) 0.1931(5)
O6G O 0.6016(6) -0.4090(6) 0.5647(4)
O7C O 0.4737(6) -0.5748(6) 0.4271(4)
O9A O -0.1038(6) 0.1618(6) 0.1855(5)
O13 O 0.700(3) 0.5289(19) 0.480(3)
H1? H 0.0925 0.3401 0.2910
H3? H 0.2615 0.7128 0.2242
H4? H 0.2027 0.6574 0.1672
loop_
_geom_bond_atom_site_label_1
_geom_bond_atom_site_label_2
_geom_bond_site_symmetry_1
_geom_bond_site_symmetry_2
Cu1 O3 1_555 1_555
Cu2 O1 1_555 1_555
O1 C5 1_555 1_555
O2 C5 1_555 1_555
O3 C2 1_555 1_555
O4 C2 1_555 1_555
O5 C8 1_555 1_555
O6 C23 1_555 1_555
O7 C23 1_555 1_555
O8 Cu1 1_555 1_555
O9 C18 1_555 1_555
O10 C16 1_555 1_555
O11 Cu1 1_555 1_555
C1 C2 1_555 1_555
C3 C13 1_555 1_555
C4 H2 1_555 1_555
C5 C12 1_555 1_555
C6 C4 1_555 1_555
C7 H5 1_555 1_555
C8 C25 1_555 1_555
C9 C4 1_555 1_555
C10 H6 1_555 1_555
O12 Cu2 1_555 1_555
C11 O5 1_555 1_555
C12 C7 1_555 1_555
C13 H7 1_555 1_555
C14 C13 1_555 1_555
H8 C14 1_555 1_555
C15 C1 1_555 1_555
H9 C15 1_555 1_555
C16 C14 1_555 1_555
C17 C1 1_555 1_555
H10 C17 1_555 1_555
C18 O8 1_555 1_555
C19 C3 1_555 1_555
H11 C19 1_555 1_555
C20 C9 1_555 1_555
H12 C20 1_555 1_555
N1 C29 1_555 1_555
C21 C7 1_555 1_555
H13 C21 1_555 1_555
C22 O10 1_555 1_555
C23 C9 1_555 1_555
C24 C16 1_555 1_555
H14 C24 1_555 1_555
C25 C15 1_555 1_555
H15 C25 1_555 1_555
C26 C12 1_555 1_555
H16 C26 1_555 1_555
C27 C22 1_555 1_555
H17 C27 1_555 1_555
C28 C8 1_555 1_555
H18 C28 1_555 1_555
C29 O11 1_555 1_555
H19 C29 1_555 1_555
C30 N1 1_555 1_555
H20 C30 1_555 1_555
H21 C30 1_555 1_555
H22 C30 1_555 1_555
C31 N1 1_555 1_555
H23 C31 1_555 1_555
H24 C31 1_555 1_555
H25 C31 1_555 1_555
Cu1A O4 1_555 1_555
Cu2D O2 1_555 1_555
Cu2G O6 1_555 1_555
Cu2C O7 1_555 1_555
O2D Cu2 1_555 1_555
O4A Cu1 1_555 1_555
O6G Cu2 1_555 1_555
O7C Cu2 1_555 1_555
O9A Cu1 1_555 1_555
O9 Cu1A 1_555 1_555
C3 C18 1_555 1_555
C6 C11 1_555 1_555
C10 C11 1_555 1_555
C10 C20 1_555 1_555
C17 C28 1_555 1_555
C19 C24 1_555 1_555
C21 C22 1_555 1_555
C26 C27 1_555 1_555

#END
