
#######################################################################
#
#                 Cambridge Crystallographic Data Centre
#                                CCDC 
#
#######################################################################
#
# If this CIF has been generated from an entry in the Cambridge 
# Structural Database, then it will include bibliographic, chemical, 
# crystal, experimental, refinement or atomic coordinate data resulting 
# from the CCDC's data processing and validation procedures.
#
#######################################################################

data_PARNUT
_chemical_formula_moiety         '(C26 H20 Cu2 N2 O7)n'
_chemical_name_systematic        
catena-((\m~4~-4,4'-oxydibenzoato)-bis(\m~2~-pyridin-2-ylmethanolato)-di-copper(ii))
_symmetry_cell_setting           cubic
_symmetry_space_group_name_H-M   'I -4 3 d'
_symmetry_Int_Tables_number      220
_space_group_name_Hall           'I -4bd 2c 3'
loop_
_symmetry_equiv_pos_site_id
_symmetry_equiv_pos_as_xyz
1 x,y,z
2 1/2-x,-y,1/2+z
3 -x,1/2+y,1/2-z
4 1/2+x,1/2-y,-z
5 z,x,y
6 1/2+z,1/2-x,-y
7 1/2-z,-x,1/2+y
8 -z,1/2+x,1/2-y
9 y,z,x
10 -y,1/2+z,1/2-x
11 1/2+y,1/2-z,-x
12 1/2-y,-z,1/2+x
13 1/4+y,1/4+x,1/4+z
14 1/4-y,3/4-x,3/4+z
15 3/4+y,1/4-x,3/4-z
16 3/4-y,3/4+x,1/4-z
17 1/4+x,1/4+z,1/4+y
18 3/4-x,3/4+z,1/4-y
19 1/4-x,3/4-z,3/4+y
20 3/4+x,1/4-z,3/4-y
21 1/4+z,1/4+y,1/4+x
22 3/4+z,1/4-y,3/4-x
23 3/4-z,3/4+y,1/4-x
24 1/4-z,3/4-y,3/4+x
25 1/2+x,1/2+y,1/2+z
26 -x,1/2-y,z
27 1/2-x,y,-z
28 x,-y,1/2-z
29 1/2+z,1/2+x,1/2+y
30 z,-x,1/2-y
31 -z,1/2-x,y
32 1/2-z,x,-y
33 1/2+y,1/2+z,1/2+x
34 1/2-y,z,-x
35 y,-z,1/2-x
36 -y,1/2-z,x
37 3/4+y,3/4+x,3/4+z
38 3/4-y,1/4-x,1/4+z
39 1/4+y,3/4-x,1/4-z
40 1/4-y,1/4+x,3/4-z
41 3/4+x,3/4+z,3/4+y
42 1/4-x,1/4+z,3/4-y
43 3/4-x,1/4-z,1/4+y
44 1/4+x,3/4-z,1/4-y
45 3/4+z,3/4+y,3/4+x
46 1/4+z,3/4-y,1/4-x
47 1/4-z,1/4+y,3/4-x
48 3/4-z,1/4-y,1/4+x
_cell_length_a                   24.557(3)
_cell_length_b                   24.557(3)
_cell_length_c                   24.557(3)
_cell_angle_alpha                90
_cell_angle_beta                 90
_cell_angle_gamma                90
_cell_volume                     14809
_exptl_crystal_colour            blue
_exptl_crystal_description       prism
_cell_formula_units_Z            24
loop_
_atom_site_label
_atom_site_type_symbol
_atom_site_fract_x
_atom_site_fract_y
_atom_site_fract_z
_atom_site_U_iso_or_equiv
_atom_site_thermal_displace_type
Cu1 Cu 0.75701(3) 0.65931(3) 0.92616(3) 0.0258 Uani
O1 O 0.80395(16) 0.66512(15) 0.99141(16) 0.0257 Uani
O2 O 0.5000 0.7500 0.7345(2) 0.0430 Uani
N1 N 0.7725(2) 0.7398(2) 0.9224(2) 0.0320 Uani
O3 O 0.70289(18) 0.6632(2) 0.86744(18) 0.0360 Uani
C1 C 0.8385(3) 0.7105(2) 0.9890(3) 0.0327 Uani
H1 H 0.8723 0.7006 0.9713 0.0390 Uiso
H2 H 0.8468 0.7228 1.0256 0.0390 Uiso
C2 C 0.6140(2) 0.6716(2) 0.8324(2) 0.0270 Uani
C3 C 0.5929(3) 0.7285(3) 0.7547(3) 0.0383 Uani
H3 H 0.6045 0.7492 0.7251 0.0460 Uiso
C4 C 0.5383(3) 0.7228(3) 0.7655(3) 0.0307 Uani
C5 C 0.8233(3) 0.8109(3) 0.9631(3) 0.0493 Uani
H4 H 0.8506 0.8218 0.9870 0.0590 Uiso
C6 C 0.5589(3) 0.6645(3) 0.8410(3) 0.0313 Uani
H5 H 0.5471 0.6421 0.8692 0.0380 Uiso
C7 C 0.6308(3) 0.7030(3) 0.7882(3) 0.0373 Uani
H6 H 0.6677 0.7070 0.7811 0.0450 Uiso
C8 C 0.8109(3) 0.7563(3) 0.9574(3) 0.0317 Uani
C9 C 0.5214(3) 0.6900(3) 0.8087(3) 0.0333 Uani
H7 H 0.4845 0.6854 0.8155 0.0400 Uiso
O4 O 0.63454(19) 0.6199(2) 0.91019(19) 0.0433 Uani
C10 C 0.7457(3) 0.7769(3) 0.8932(3) 0.0403 Uani
H8 H 0.7193 0.7652 0.8688 0.0480 Uiso
C11 C 0.6534(3) 0.6490(2) 0.8735(3) 0.0303 Uani
C12 C 0.7956(4) 0.8482(3) 0.9340(4) 0.0610 Uani
H9 H 0.8033 0.8851 0.9381 0.0730 Uiso
C13 C 0.7555(4) 0.8315(3) 0.8978(3) 0.0547 Uani
H10 H 0.7360 0.8566 0.8772 0.0660 Uiso
Cu1U Cu 0.67616(3) 0.59069(3) 0.99299(3) 0.0258 Uani
Cu1UA Cu 0.82384(3) 0.59069(3) 1.00701(3) 0.0258 Uani
Cu1Y Cu 0.24299(3) 0.84069(3) 0.92616(3) 0.0258 Uani
Cu1TA Cu 0.32384(3) 0.90931(3) 0.99299(3) 0.0258 Uani
O1U O 0.74141(16) 0.58488(15) 0.94605(16) 0.0257 Uani
O1Z O 0.69605(16) 0.66512(15) 1.00859(16) 0.0257 Uani
N1U N 0.6724(2) 0.5102(2) 0.9775(2) 0.0320 Uani
O3Y O 0.29711(18) 0.8368(2) 0.86744(18) 0.0360 Uani
O3U O 0.61744(18) 0.5868(2) 1.04711(18) 0.0360 Uani
C1U C 0.7390(3) 0.5395(2) 0.9115(3) 0.0327 Uani
H1U H 0.7213 0.5494 0.8777 0.0390 Uiso
H2U H 0.7756 0.5272 0.9032 0.0390 Uiso
C2Y C 0.3860(2) 0.8284(2) 0.8324(2) 0.0270 Uani
C3Y C 0.4071(3) 0.7715(3) 0.7547(3) 0.0383 Uani
H3Y H 0.3955 0.7508 0.7251 0.0460 Uiso
C4Y C 0.4617(3) 0.7772(3) 0.7655(3) 0.0307 Uani
C5U C 0.7131(3) 0.4391(3) 0.9267(3) 0.0493 Uani
H4U H 0.7370 0.4282 0.8994 0.0590 Uiso
C6Y C 0.4411(3) 0.8355(3) 0.8410(3) 0.0313 Uani
H5Y H 0.4529 0.8579 0.8692 0.0380 Uiso
C7Y C 0.3692(3) 0.7970(3) 0.7882(3) 0.0373 Uani
H6Y H 0.3323 0.7930 0.7811 0.0450 Uiso
C8U C 0.7074(3) 0.4937(3) 0.9391(3) 0.0317 Uani
C9Y C 0.4786(3) 0.8100(3) 0.8087(3) 0.0333 Uani
H7Y H 0.5155 0.8146 0.8155 0.0400 Uiso
O4Y O 0.36546(19) 0.8801(2) 0.91019(19) 0.0433 Uani
O4UA O 0.83981(19) 0.6301(2) 0.88454(19) 0.0433 Uani
C10U C 0.6432(3) 0.4731(3) 1.0043(3) 0.0403 Uani
H8U H 0.6188 0.4848 1.0307 0.0480 Uiso
C11Y C 0.3466(3) 0.8510(2) 0.8735(3) 0.0303 Uani
C12U C 0.6840(4) 0.4018(3) 0.9544(4) 0.0610 Uani
H9U H 0.6881 0.3649 0.9467 0.0730 Uiso
C13U C 0.6478(3) 0.4185(3) 0.9945(4) 0.0547 Uani
H10U H 0.6272 0.3934 1.0140 0.0660 Uiso
loop_
_atom_site_aniso_label
_atom_site_aniso_U_11
_atom_site_aniso_U_22
_atom_site_aniso_U_33
_atom_site_aniso_U_23
_atom_site_aniso_U_13
_atom_site_aniso_U_12
Cu1 0.0266(4) 0.0233(4) 0.0276(4) 0.0034(3) -0.0039(3) -0.0035(3)
O1 0.030(2) 0.020(2) 0.027(2) 0.0035(17) -0.0014(18) -0.0049(17)
O2 0.036(4) 0.066(5) 0.027(3) 0.000 0.000 0.023(4)
N1 0.032(3) 0.023(3) 0.041(3) 0.006(2) -0.003(2) -0.004(2)
O3 0.028(2) 0.044(3) 0.036(3) 0.008(2) -0.0049(19) -0.006(2)
C1 0.033(3) 0.026(3) 0.039(4) -0.002(3) -0.007(3) -0.004(3)
C2 0.025(3) 0.023(3) 0.033(3) -0.004(3) -0.003(2) -0.001(2)
C3 0.036(3) 0.050(4) 0.029(3) 0.008(3) 0.005(3) 0.006(3)
C4 0.030(3) 0.031(3) 0.031(3) -0.012(3) 0.000(3) 0.009(3)
C5 0.059(5) 0.026(4) 0.063(5) 0.007(3) -0.011(4) -0.010(3)
C6 0.029(3) 0.028(3) 0.037(3) -0.002(3) 0.007(3) 0.000(3)
C7 0.037(4) 0.049(4) 0.026(3) 0.003(3) 0.010(3) 0.006(3)
C8 0.028(3) 0.025(3) 0.042(4) 0.001(3) 0.005(3) -0.005(3)
C9 0.034(4) 0.031(3) 0.035(4) -0.004(3) 0.003(3) 0.001(3)
O4 0.033(2) 0.062(3) 0.035(3) 0.017(2) -0.010(2) -0.008(2)
C10 0.042(4) 0.031(3) 0.048(4) 0.008(3) -0.008(3) -0.004(3)
C11 0.030(3) 0.023(3) 0.038(4) 0.001(3) 0.001(3) -0.007(3)
C12 0.076(6) 0.025(4) 0.082(6) 0.003(4) -0.010(5) -0.015(4)
C13 0.064(5) 0.034(4) 0.066(5) 0.016(4) -0.016(4) 0.003(4)
Cu1U 0.0276 0.0233 0.0266 -0.0035 0.0039 -0.0034
Cu1UA 0.0276 0.0233 0.0266 0.0035 0.0039 0.0034
Cu1Y 0.0266 0.0233 0.0276 -0.0034 0.0039 -0.0035
Cu1TA 0.0276 0.0233 0.0266 0.0035 -0.0039 -0.0034
O1U 0.027 0.02 0.03 -0.0049 0.0014 -0.0035
O1Z 0.03 0.02 0.027 -0.0035 -0.0014 0.0049
N1U 0.041 0.023 0.032 -0.004 0.003 -0.006
O3Y 0.028 0.044 0.036 -0.008 0.0049 -0.006
O3U 0.036 0.044 0.028 -0.006 0.0049 -0.008
C1U 0.039 0.026 0.033 -0.004 0.007 0.002
C2Y 0.025 0.023 0.033 0.004 0.003 -0.001
C3Y 0.036 0.05 0.029 -0.008 -0.005 0.006
C4Y 0.03 0.031 0.031 0.012 0 0.009
C5U 0.063 0.026 0.059 -0.01 0.011 -0.007
C6Y 0.029 0.028 0.037 0.002 -0.007 0
C7Y 0.037 0.049 0.026 -0.003 -0.01 0.006
C8U 0.042 0.025 0.028 -0.005 -0.005 -0.001
C9Y 0.034 0.031 0.035 0.004 -0.003 0.001
O4Y 0.033 0.062 0.035 -0.017 0.01 -0.008
O4UA 0.035 0.062 0.033 0.008 0.01 0.017
C10U 0.048 0.031 0.042 -0.004 0.008 -0.008
C11Y 0.03 0.023 0.038 -0.001 -0.001 -0.007
C12U 0.082 0.025 0.076 -0.015 0.01 -0.003
C13U 0.066 0.034 0.064 0.003 0.016 -0.016
loop_
_geom_bond_atom_site_label_1
_geom_bond_atom_site_label_2
_geom_bond_site_symmetry_1
_geom_bond_site_symmetry_2
Cu1 O1 1_555 1_555
O1 C1 1_555 1_555
O2 C4 1_555 1_555
N1 Cu1 1_555 1_555
O3 Cu1 1_555 1_555
C1 H1 1_555 1_555
H2 C1 1_555 1_555
C2 C6 1_555 1_555
C3 H3 1_555 1_555
C4 C3 1_555 1_555
C5 H4 1_555 1_555
C6 H5 1_555 1_555
C7 C2 1_555 1_555
H6 C7 1_555 1_555
C8 N1 1_555 1_555
C9 C4 1_555 1_555
H7 C9 1_555 1_555
O4 C11 1_555 1_555
C10 N1 1_555 1_555
H8 C10 1_555 1_555
C11 O3 1_555 1_555
C12 C5 1_555 1_555
H9 C12 1_555 1_555
C13 C10 1_555 1_555
H10 C13 1_555 1_555
Cu1U O4 1_555 1_555
Cu1UA O1 1_555 1_555
Cu1Y O3Y 1_555 1_555
Cu1TA O4Y 1_555 1_555
O1U Cu1 1_555 1_555
O1Z Cu1U 1_555 1_555
N1U Cu1U 1_555 1_555
O3Y C11Y 1_555 1_555
O3U Cu1U 1_555 1_555
C1U O1U 1_555 1_555
H1U C1U 1_555 1_555
H2U C1U 1_555 1_555
C2Y C6Y 1_555 1_555
C3Y H3Y 1_555 1_555
C4Y O2 1_555 1_555
C5U H4U 1_555 1_555
C6Y H5Y 1_555 1_555
C7Y C2Y 1_555 1_555
H6Y C7Y 1_555 1_555
C8U N1U 1_555 1_555
C9Y C4Y 1_555 1_555
H7Y C9Y 1_555 1_555
O4Y C11Y 1_555 1_555
O4UA Cu1 1_555 1_555
C10U N1U 1_555 1_555
H8U C10U 1_555 1_555
C11Y C2Y 1_555 1_555
C12U C5U 1_555 1_555
H9U C12U 1_555 1_555
C13U C10U 1_555 1_555
H10U C13U 1_555 1_555
C1 C8 1_555 1_555
C2 C11 1_555 1_555
C3 C7 1_555 1_555
C5 C8 1_555 1_555
C6 C9 1_555 1_555
C12 C13 1_555 1_555
Cu1U O1U 1_555 1_555
C1U C8U 1_555 1_555
C3Y C4Y 1_555 1_555
C3Y C7Y 1_555 1_555
C5U C8U 1_555 1_555
C6Y C9Y 1_555 1_555
C12U C13U 1_555 1_555

#END
