
#######################################################################
#
#                 Cambridge Crystallographic Data Centre
#                                CCDC 
#
#######################################################################
#
# If this CIF has been generated from an entry in the Cambridge 
# Structural Database, then it will include bibliographic, chemical, 
# crystal, experimental, refinement or atomic coordinate data resulting 
# from the CCDC's data processing and validation procedures.
#
#######################################################################

data_PARNON
_chemical_formula_moiety         
'(C34 H30 Cu2 N2 O12)n,0.5n(C3 H7 N1 O1),2n(H2 O1)'
_chemical_name_systematic        
"catena-(bis(\m~4~-4,4'-oxydibenzoato)-bis(N,N-dimethylformamide)-di-copper(ii) N,N-dimethylformamide solvate dihydrate)"
_symmetry_cell_setting           monoclinic
_symmetry_space_group_name_H-M   'C 2/c'
_symmetry_Int_Tables_number      15
_space_group_name_Hall           '-C 2yc'
loop_
_symmetry_equiv_pos_site_id
_symmetry_equiv_pos_as_xyz
1 x,y,z
2 -x,y,1/2-z
3 1/2+x,1/2+y,z
4 1/2-x,1/2+y,1/2-z
5 -x,-y,-z
6 x,-y,1/2+z
7 1/2-x,1/2-y,-z
8 1/2+x,1/2-y,1/2+z
_cell_length_a                   26.257(5)
_cell_length_b                   16.047(3)
_cell_length_c                   20.808(4)
_cell_angle_alpha                90
_cell_angle_beta                 95.45(3)
_cell_angle_gamma                90
_cell_volume                     8727.74
_exptl_crystal_colour            colorless
_exptl_crystal_description       prism
_cell_formula_units_Z            8
loop_
_atom_site_label
_atom_site_type_symbol
_atom_site_fract_x
_atom_site_fract_y
_atom_site_fract_z
_atom_site_U_iso_or_equiv
_atom_site_thermal_displace_type
N3 N 0.6828(7) 0.8290(15) 0.9738(7) 0.1010 Uani
C35 C 0.7046(9) 0.9003(13) 0.9735(8) 0.0877 Uani
H31 H 0.6791 0.9434 0.9701 0.1320 Uiso
H32 H 0.7247 0.9037 0.9373 0.1320 Uiso
H33 H 0.7265 0.9075 1.0127 0.1320 Uiso
C36 C 0.7092(18) 0.750(2) 0.984(3) 0.2005 Uani
H34 H 0.7448 0.7575 0.9778 0.3020 Uiso
H35 H 0.6945 0.7101 0.9531 0.3020 Uiso
H36 H 0.7060 0.7306 1.0267 0.3020 Uiso
O13 O 0.6171(4) 0.7360(7) 0.9786(5) 0.1730 Uiso
C37 C 0.6333(6) 0.8115(11) 0.9827(8) 0.1650 Uiso
O1 O 0.45977(15) 0.5875(2) 0.31613(19) 0.0294 Uani
O2 O 0.43720(15) 0.5792(2) 0.20944(18) 0.0296 Uani
C1 C 0.4317(2) 0.6061(3) 0.2652(3) 0.0250 Uani
C2 C 0.3885(2) 0.6648(3) 0.2735(3) 0.0244 Uani
C3 C 0.3555(2) 0.6886(3) 0.2196(3) 0.0273 Uani
H1 H 0.3609 0.6682 0.1789 0.0330 Uiso
C4 C 0.3148(2) 0.7427(3) 0.2265(3) 0.0293 Uani
H2 H 0.2929 0.7584 0.1907 0.0360 Uiso
C5 C 0.3796(2) 0.6947(3) 0.3332(3) 0.0285 Uani
H3 H 0.4011 0.6783 0.3690 0.0340 Uiso
C6 C 0.3392(2) 0.7490(4) 0.3417(3) 0.0325 Uani
H4 H 0.3336 0.7689 0.3825 0.0390 Uiso
C7 C 0.3073(2) 0.7726(3) 0.2871(3) 0.0308 Uani
O3 O 0.26399(16) 0.8204(3) 0.2908(2) 0.0389 Uani
C8 C 0.2648(2) 0.8942(4) 0.3259(3) 0.0318 Uani
C9 C 0.3085(2) 0.9361(4) 0.3501(3) 0.0343 Uani
H5 H 0.3408 0.9143 0.3453 0.0410 Uiso
C10 C 0.6557(3) 0.4522(6) 0.5067(3) 0.0588 Uani
H6 H 0.6670 0.4243 0.4698 0.0880 Uiso
H7 H 0.6776 0.4990 0.5178 0.0880 Uiso
H8 H 0.6569 0.4143 0.5425 0.0880 Uiso
O4 O 0.69878(16) -0.1790(2) 0.42540(19) 0.0309 Uani
O5 O 0.29197(16) 1.1618(2) 0.44453(18) 0.0298 Uani
O6 O 0.55408(15) 0.4070(2) 0.29871(18) 0.0294 Uani
Cu1 Cu 0.50909(2) 0.49876(3) 0.31369(3) 0.0192 Uani
Cu2 Cu 0.70007(2) -0.25872(4) 0.49695(3) 0.0220 Uani
O7 O 0.53670(16) 0.5006(2) 0.41583(19) 0.0308 Uani
O8 O 0.54857(15) 0.4174(2) 0.19063(18) 0.0295 Uani
O9 O 0.20637(15) 1.1478(2) 0.43667(19) 0.0302 Uani
O10 O 0.78426(16) -0.1621(2) 0.43186(19) 0.0316 Uani
O11 O 0.62037(19) -0.2631(3) 0.5058(3) 0.0536 Uani
O12 O 0.71441(16) 0.1324(3) 0.2419(2) 0.0362 Uani
N1 N 0.60390(19) 0.4809(3) 0.4917(2) 0.0337 Uani
C11 C 0.5658(2) 0.3849(3) 0.2434(3) 0.0237 Uani
C12 C 0.2121(2) 1.0022(3) 0.3638(3) 0.0280 Uani
H9 H 0.1799 1.0243 0.3679 0.0330 Uiso
C13 C 0.2507(2) 1.1241(3) 0.4258(3) 0.0263 Uani
C14 C 0.7389(2) -0.1441(3) 0.4103(3) 0.0293 Uani
C15 C 0.6035(2) 0.3155(3) 0.2428(3) 0.0242 Uani
C16 C 0.7670(2) 0.0408(3) 0.3062(3) 0.0290 Uani
H10 H 0.7951 0.0713 0.2954 0.0340 Uiso
C17 C 0.6613(2) 0.2326(4) 0.1872(3) 0.0320 Uani
H11 H 0.6759 0.2188 0.1496 0.0380 Uiso
C18 C 0.7181(2) 0.0645(3) 0.2832(3) 0.0290 Uani
C19 C 0.7739(2) -0.0289(4) 0.3457(3) 0.0295 Uani
H12 H 0.8068 -0.0457 0.3607 0.0360 Uiso
C20 C 0.7321(2) -0.0734(3) 0.3628(3) 0.0290 Uani
C21 C 0.2556(2) 1.0450(3) 0.3896(3) 0.0276 Uani
C22 C 0.6175(2) 0.2708(4) 0.2993(3) 0.0301 Uani
H13 H 0.6024 0.2838 0.3367 0.0360 Uiso
C23 C 0.6258(2) 0.2955(4) 0.1869(3) 0.0276 Uani
H14 H 0.6167 0.3248 0.1490 0.0330 Uiso
C24 C 0.2165(2) 0.9273(4) 0.3322(3) 0.0314 Uani
H15 H 0.1873 0.8991 0.3152 0.0380 Uiso
C25 C 0.5796(2) 0.4734(4) 0.4328(3) 0.0305 Uani
H16 H 0.5965 0.4452 0.4020 0.0360 Uiso
C26 C 0.6764(2) 0.0189(4) 0.2981(3) 0.0368 Uani
H17 H 0.6436 0.0342 0.2812 0.0450 Uiso
C27 C 0.3033(2) 1.0114(3) 0.3816(3) 0.0317 Uani
H18 H 0.3325 1.0401 0.3978 0.0380 Uiso
C28 C 0.6832(2) -0.0491(4) 0.3378(3) 0.0341 Uani
H19 H 0.6549 -0.0794 0.3481 0.0410 Uiso
C29 C 0.6753(2) 0.1896(4) 0.2444(3) 0.0308 Uani
C30 C 0.6530(2) 0.2082(4) 0.3003(3) 0.0342 Uani
H20 H 0.6619 0.1785 0.3381 0.0410 Uiso
C31 C 0.5816(3) 0.5241(5) 0.5435(3) 0.0425 Uani
H21 H 0.5473 0.5410 0.5290 0.0640 Uiso
H22 H 0.5809 0.4874 0.5799 0.0640 Uiso
H23 H 0.6018 0.5723 0.5560 0.0640 Uiso
N2 N 0.5348(3) -0.2770(6) 0.4880(6) 0.0921 Uani
C32 C 0.5875(5) -0.2785(6) 0.4736(5) 0.0720 Uani
H24 H 0.5935 -0.2946 0.4320 0.0860 Uiso
C33 C 0.5247(6) -0.2543(10) 0.5526(8) 0.1196 Uani
H25 H 0.4885 -0.2560 0.5560 0.1790 Uiso
H26 H 0.5372 -0.1989 0.5619 0.1790 Uiso
H27 H 0.5416 -0.2927 0.5828 0.1790 Uiso
C34 C 0.4967(5) -0.3047(10) 0.4475(9) 0.1477 Uani
H28 H 0.5093 -0.3189 0.4071 0.2220 Uiso
H29 H 0.4710 -0.2621 0.4406 0.2220 Uiso
H30 H 0.4820 -0.3532 0.4654 0.2220 Uiso
O2A O 0.56280(15) 0.5792(2) 0.29056(18) 0.0296 Uani
O5D O 0.70803(16) -0.1618(2) 0.55547(18) 0.0298 Uani
Cu1A Cu 0.49091(2) 0.49876(3) 0.18631(3) 0.0192 Uani
Cu2D Cu 0.29993(2) 1.25872(4) 0.50305(3) 0.0220 Uani
Cu2B Cu 0.20007(2) 1.24128(4) 0.49695(3) 0.0220 Uani
Cu2F Cu 0.79993(2) -0.24128(4) 0.50305(3) 0.0220 Uani
O8A O 0.45143(15) 0.4174(2) 0.30937(18) 0.0295 Uani
O9B O 0.70637(15) -0.3522(2) 0.43667(19) 0.0302 Uani
O10F O 0.71574(16) -0.3379(2) 0.56814(19) 0.0316 Uani
loop_
_atom_site_aniso_label
_atom_site_aniso_U_11
_atom_site_aniso_U_22
_atom_site_aniso_U_33
_atom_site_aniso_U_23
_atom_site_aniso_U_13
_atom_site_aniso_U_12
N3 0.100(13) 0.165(19) 0.038(8) 0.004(9) 0.007(8) -0.087(14)
C35 0.134(18) 0.088(14) 0.043(9) -0.009(9) 0.018(10) -0.063(13)
C36 0.23(5) 0.10(3) 0.25(6) -0.03(3) -0.09(4) 0.08(3)
O1 0.031(2) 0.029(2) 0.028(2) -0.0042(16) 0.0011(16) 0.0052(16)
O2 0.032(2) 0.031(2) 0.026(2) -0.0038(16) 0.0034(16) 0.0072(16)
C1 0.027(3) 0.019(3) 0.029(3) -0.001(2) 0.003(2) -0.003(2)
C2 0.027(3) 0.020(3) 0.027(3) -0.001(2) 0.006(2) 0.003(2)
C3 0.036(3) 0.020(3) 0.026(3) -0.002(2) 0.004(2) 0.002(2)
C4 0.038(3) 0.020(3) 0.029(3) -0.001(2) -0.002(2) 0.005(2)
C5 0.029(3) 0.028(3) 0.028(3) -0.001(2) 0.000(2) 0.003(2)
C6 0.042(3) 0.030(3) 0.025(3) -0.010(2) 0.000(3) 0.010(2)
C7 0.034(3) 0.021(3) 0.037(3) -0.009(2) 0.001(2) 0.009(2)
O3 0.037(2) 0.033(2) 0.044(2) -0.0206(19) -0.0103(19) 0.0145(18)
C8 0.042(3) 0.023(3) 0.030(3) -0.007(2) 0.002(2) 0.010(2)
C9 0.035(3) 0.028(3) 0.040(3) -0.008(3) 0.004(3) 0.011(2)
C10 0.032 0.113 0.03 -0.002 -0.004 0.006
O4 0.042 0.025 0.026 0.0067 0.0052 0.002
O5 0.044(2) 0.0210(19) 0.026(2) -0.0030(15) 0.0115(17) 0.0047(17)
O6 0.036 0.029 0.023 -0.0013 0.0021 0.0087
Cu1 0.023 0.0177 0.0169 -0.0004 0.002 0
Cu2 0.029 0.0158 0.0224 0.0011 0.0084 0.0042
O7 0.031 0.041 0.02 -0.0011 0.0005 -0.001
O8 0.037 0.03 0.0221 0.0047 0.0058 0.0098
O9 0.037(2) 0.0226(19) 0.032(2) -0.0071(16) 0.0081(17) 0.0029(16)
O10 0.044 0.023 0.029 0.008 0.009 0.0085
O11 0.027 0.052 0.082 0.001 0.007 -0.005
O12 0.043 0.029 0.039 0.0159 0.0167 0.0178
N1 0.031 0.049 0.021 0.002 0.002 -0.002
C11 0.025 0.02 0.026 0 0.002 -0.001
C12 0.031(3) 0.023(3) 0.030(3) -0.001(2) 0.003(2) 0.006(2)
C13 0.040(3) 0.019(3) 0.021(3) 0.004(2) 0.008(2) 0.003(2)
C14 0.045 0.02 0.024 -0.004 0.009 0.009
C15 0.025 0.022 0.026 0.003 0.004 0.002
C16 0.038 0.021 0.029 0.005 0.009 0.005
C17 0.045 0.028 0.025 0.005 0.014 0.009
C18 0.04 0.024 0.024 0.008 0.008 0.013
C19 0.039 0.023 0.027 0.003 0.005 0.009
C20 0.043 0.019 0.026 0.002 0.009 0.005
C21 0.043(3) 0.019(3) 0.022(3) -0.001(2) 0.010(2) 0.005(2)
C22 0.04 0.028 0.023 0.004 0.007 0.008
C23 0.033 0.027 0.023 0.006 0.003 0.004
C24 0.035(3) 0.025(3) 0.034(3) -0.004(2) 0.002(2) 0.004(2)
C25 0.029 0.041 0.022 -0.002 0.005 -0.002
C26 0.034 0.036 0.041 0.014 0.006 0.01
C27 0.036(3) 0.026(3) 0.033(3) -0.006(2) 0.002(3) 0.002(2)
C28 0.035 0.029 0.039 0.005 0.007 0.002
C29 0.035 0.026 0.032 0.009 0.007 0.008
C30 0.049 0.031 0.023 0.011 0.006 0.01
C31 0.052 0.054 0.021 -0.005 0.001 -0.004
N2 0.062 0.077 0.135 -0.028 -0.002 0.012
C32 0.099 0.061 0.057 -0.007 0.012 0.02
C33 0.095 0.145 0.115 -0.012 -0.01 0.018
C34 0.097 0.113 0.222 -0.074 -0.043 0.011
O2A 0.032 0.031 0.026 0.0038 0.0034 -0.0072
O5D 0.044 0.021 0.026 -0.003 0.0115 0.0047
Cu1A 0.023 0.0177 0.0169 0.0004 0.002 0
Cu2D 0.029 0.0158 0.0224 0.0011 0.0084 0.0042
Cu2B 0.0290(4) 0.0158(4) 0.0224(4) 0.0011(2) 0.0084(3) 0.0042(2)
Cu2F 0.029 0.0158 0.0224 0.0011 0.0084 0.0042
O8A 0.037 0.03 0.0221 -0.0047 0.0058 -0.0098
O9B 0.037 0.0226 0.032 -0.0071 0.0081 0.0029
O10F 0.044 0.023 0.029 0.008 0.009 0.0085
loop_
_geom_bond_atom_site_label_1
_geom_bond_atom_site_label_2
_geom_bond_site_symmetry_1
_geom_bond_site_symmetry_2
O1 C1 1_555 1_555
O2 C1 1_555 1_555
C1 C2 1_555 1_555
C2 C3 1_555 1_555
C3 H1 1_555 1_555
C4 C3 1_555 1_555
H2 C4 1_555 1_555
C5 C2 1_555 1_555
H3 C5 1_555 1_555
C6 C5 1_555 1_555
H4 C6 1_555 1_555
C7 C4 1_555 1_555
O3 C7 1_555 1_555
C8 O3 1_555 1_555
C9 C8 1_555 1_555
H5 C9 1_555 1_555
C10 H6 1_555 1_555
H7 C10 1_555 1_555
H8 C10 1_555 1_555
O4 Cu2 1_555 1_555
O5 C13 1_555 1_555
O6 Cu1 1_555 1_555
Cu1 O1 1_555 1_555
Cu2 O11 1_555 1_555
O7 Cu1 1_555 1_555
O8 C11 1_555 1_555
O9 C13 1_555 1_555
O10 C14 1_555 1_555
O11 C32 1_555 1_555
O12 C18 1_555 1_555
N1 C10 1_555 1_555
C11 O6 1_555 1_555
C12 H9 1_555 1_555
C13 C21 1_555 1_555
C14 O4 1_555 1_555
C15 C11 1_555 1_555
C16 H10 1_555 1_555
C17 H11 1_555 1_555
C18 C16 1_555 1_555
C19 C16 1_555 1_555
H12 C19 1_555 1_555
C20 C14 1_555 1_555
C21 C12 1_555 1_555
C22 C15 1_555 1_555
H13 C22 1_555 1_555
C23 C15 1_555 1_555
H14 C23 1_555 1_555
C24 C8 1_555 1_555
H15 C24 1_555 1_555
C25 O7 1_555 1_555
H16 C25 1_555 1_555
C26 C18 1_555 1_555
H17 C26 1_555 1_555
C27 C9 1_555 1_555
H18 C27 1_555 1_555
C28 C20 1_555 1_555
H19 C28 1_555 1_555
C29 O12 1_555 1_555
C30 C22 1_555 1_555
H20 C30 1_555 1_555
C31 N1 1_555 1_555
H21 C31 1_555 1_555
H22 C31 1_555 1_555
H23 C31 1_555 1_555
N2 C32 1_555 1_555
C32 H24 1_555 1_555
C33 N2 1_555 1_555
H25 C33 1_555 1_555
H26 C33 1_555 1_555
H27 C33 1_555 1_555
C34 N2 1_555 1_555
H28 C34 1_555 1_555
H29 C34 1_555 1_555
H30 C34 1_555 1_555
N3 C35 1_555 1_555
C35 H31 1_555 1_555
H32 C35 1_555 1_555
H33 C35 1_555 1_555
C36 N3 1_555 1_555
H34 C36 1_555 1_555
H35 C36 1_555 1_555
H36 C36 1_555 1_555
O13 C37 1_555 1_555
C37 N3 1_555 1_555
O2A Cu1 1_555 1_555
O5D Cu2 1_555 1_555
Cu1A O2 1_555 1_555
Cu2D O5 1_555 1_555
Cu2B O9 1_555 1_555
Cu2F O10 1_555 1_555
O8A Cu1 1_555 1_555
O9B Cu2 1_555 1_555
O10F Cu2 1_555 1_555
C6 C7 1_555 1_555
O8 Cu1A 1_555 1_555
N1 C25 1_555 1_555
C12 C24 1_555 1_555
C17 C23 1_555 1_555
C17 C29 1_555 1_555
C19 C20 1_555 1_555
C21 C27 1_555 1_555
C26 C28 1_555 1_555
C29 C30 1_555 1_555

#END
