
#######################################################################
#
#                 Cambridge Crystallographic Data Centre
#                                CCDC 
#
#######################################################################
#
# If this CIF has been generated from an entry in the Cambridge 
# Structural Database, then it will include bibliographic, chemical, 
# crystal, experimental, refinement or atomic coordinate data resulting 
# from the CCDC's data processing and validation procedures.
#
#######################################################################

data_KELDEL
_chemical_formula_moiety         '(C34 H28 N2 O8 Rh2)n,3n(C1 O2)'
_chemical_name_systematic        
'catena-(tetrakis(\m~2~-Benzoato)-(\m~2~-2-ethylpyrazine)-di-rhodium(ii) tris(carbon dioxide))'
_symmetry_cell_setting           triclinic
_symmetry_space_group_name_H-M   'P -1'
_symmetry_Int_Tables_number      2
_space_group_name_Hall           '-P 1'
loop_
_symmetry_equiv_pos_site_id
_symmetry_equiv_pos_as_xyz
1 x,y,z
2 -x,-y,-z
_cell_length_a                   9.607(3)
_cell_length_b                   10.321(3)
_cell_length_c                   11.530(4)
_cell_angle_alpha                67.522(6)
_cell_angle_beta                 65.428(5)
_cell_angle_gamma                63.319(5)
_cell_volume                     901.686
_exptl_crystal_colour            red
_exptl_crystal_description       plate
_cell_formula_units_Z            1
loop_
_atom_site_label
_atom_site_type_symbol
_atom_site_fract_x
_atom_site_fract_y
_atom_site_fract_z
C19 C 1.0000 0.5000 0.5000
O5 O 0.8887(12) 0.6052(11) 0.5103(12)
O5A O 1.1113(12) 0.3948(11) 0.4897(12)
C1 C 0.6585(14) 0.7454(15) -0.0668(13)
C2 C 0.7498(11) 0.6010(14) -0.1074(13)
C3 C 0.9162(12) 0.5325(12) -0.1255(13)
H1 H 0.9731 0.5770 -0.1107
C4 C 0.9997(15) 0.4002(13) -0.1651(13)
H2 H 1.1136 0.3535 -0.1764
C5 C 0.9184(12) 0.3351(14) -0.1884(13)
H3 H 0.9763 0.2446 -0.2167
C6 C 0.7523(13) 0.4028(13) -0.1701(14)
H4 H 0.6955 0.3584 -0.1853
C7 C 0.6686(15) 0.5350(13) -0.1299(13)
H5 H 0.5544 0.5811 -0.1176
C8 C 0.5726(14) 1.1445(14) -0.2469(12)
C9 C 0.6158(12) 1.2267(15) -0.3879(13)
C10 C 0.7699(15) 1.2374(16) -0.4498(12)
H6 H 0.8473 1.1955 -0.4027
C11 C 0.8092(19) 1.3101(18) -0.5811(13)
H7 H 0.9164 1.3131 -0.6257
C12 C 0.6945(15) 1.3787(19) -0.6487(16)
H8 H 0.7210 1.4335 -0.7374
C13 C 0.5413(16) 1.3672(18) -0.5865(12)
H9 H 0.4633 1.4114 -0.6334
C14 C 0.5014(16) 1.2911(15) -0.4559(12)
H10 H 0.3961 1.2831 -0.4129
C15 C 0.9862(15) 0.9436(14) -0.0789(13)
H11 H 0.9795 0.9054 -0.1387
C16 C 1.1371(14) 0.9452(13) -0.0930(12)
C17 C 1.274(3) 0.895(3) -0.2089(18)
H12 H 1.3759 0.8922 -0.2042
H13 H 1.2883 0.7915 -0.2028
C18 C 1.251(4) 0.991(4) -0.340(3)
H14 H 1.2232 1.0957 -0.3437
H15 H 1.3519 0.9597 -0.4102
H16 H 1.1623 0.9800 -0.3531
N1 N 0.8509(13) 0.9936(13) 0.0152(10)
O1 O 0.7423(10) 0.7976(10) -0.0453(8)
O2 O 0.5092(10) 0.8038(10) -0.0568(8)
O3 O 0.6718(10) 1.1069(10) -0.1834(8)
O4 O 0.4415(10) 1.1142(10) -0.1993(8)
Rh1 Rh 0.62185(12) 0.99680(13) 0.00803(12)
C1A C 0.3415(14) 1.2546(15) 0.0668(13)
C2A C 0.2502(11) 1.3990(14) 0.1074(13)
C3A C 0.0838(12) 1.4675(12) 0.1255(13)
H1A H 0.0269 1.4230 0.1107
C4A C 0.0003(15) 1.5998(13) 0.1651(13)
H2A H -0.1136 1.6465 0.1764
C5A C 0.0816(12) 1.6649(14) 0.1884(13)
H3A H 0.0237 1.7554 0.2167
C6A C 0.2477(13) 1.5972(13) 0.1701(14)
H4A H 0.3045 1.6416 0.1853
C7A C 0.3314(15) 1.4650(13) 0.1299(13)
H5A H 0.4456 1.4189 0.1176
C8A C 0.4274(14) 0.8555(14) 0.2469(12)
C9A C 0.3842(12) 0.7733(15) 0.3879(13)
C10A C 0.2301(15) 0.7626(16) 0.4498(12)
H6A H 0.1527 0.8045 0.4027
C11A C 0.1908(19) 0.6899(18) 0.5811(13)
H7A H 0.0836 0.6869 0.6257
C12A C 0.3055(15) 0.6213(19) 0.6487(16)
H8A H 0.2790 0.5665 0.7374
C13A C 0.4587(16) 0.6328(18) 0.5865(12)
H9A H 0.5367 0.5886 0.6334
C14A C 0.4986(16) 0.7089(15) 0.4559(12)
H10A H 0.6039 0.7169 0.4129
C15A C 1.0138(15) 1.0564(14) 0.0789(13)
H11A H 1.0205 1.0946 0.1387
C16A C 0.8629(14) 1.0548(13) 0.0930(12)
C17A C 0.726(3) 1.105(3) 0.2089(18)
H12A H 0.6241 1.1078 0.2042
H13A H 0.7117 1.2085 0.2028
C18A C 0.749(4) 1.009(4) 0.340(3)
H14A H 0.7768 0.9043 0.3437
H15A H 0.6481 1.0403 0.4102
H16A H 0.8377 1.0200 0.3531
N1A N 1.1491(13) 1.0064(13) -0.0152(10)
O1A O 0.2577(10) 1.2024(10) 0.0453(8)
O1A_2 O 1.2577(10) 1.2024(10) 0.0453(8)
O2A O 0.4908(10) 1.1962(10) 0.0568(8)
O2_2 O 1.5092(10) 0.8038(10) -0.0568(8)
O3A O 0.3282(10) 0.8931(10) 0.1834(8)
O3A_2 O 1.3282(10) 0.8931(10) 0.1834(8)
O4A O 0.5585(10) 0.8858(10) 0.1993(8)
O4_2 O 1.4415(10) 1.1142(10) -0.1993(8)
Rh1A Rh 1.37815(12) 1.00320(13) -0.00803(12)
Rh1A_2 Rh 0.37815(12) 1.00320(13) -0.00803(12)
Rh1_2 Rh 1.62185(12) 0.99680(13) 0.00803(12)
C20? C 0.6386(18) 0.878(5) 0.642(3)
C21? C 0.749(3) 0.916(3) 0.508(2)
O6? O 0.761(2) 0.871(3) 0.640(2)
O7? O 0.518(2) 0.887(3) 0.638(2)
O8? O 0.829(3) 0.947(3) 0.404(2)
O9? O 0.669(3) 0.881(3) 0.611(2)
loop_
_geom_bond_atom_site_label_1
_geom_bond_atom_site_label_2
_geom_bond_site_symmetry_1
_geom_bond_site_symmetry_2
C1 C2 1_555 1_555
C2 C3 1_555 1_555
C3 H1 1_555 1_555
C4 C3 1_555 1_555
H2 C4 1_555 1_555
C5 C4 1_555 1_555
H3 C5 1_555 1_555
C6 C5 1_555 1_555
H4 C6 1_555 1_555
C7 C2 1_555 1_555
H5 C7 1_555 1_555
C8 C9 1_555 1_555
C9 C10 1_555 1_555
C10 H6 1_555 1_555
C11 C10 1_555 1_555
H7 C11 1_555 1_555
C12 C11 1_555 1_555
H8 C12 1_555 1_555
C13 C12 1_555 1_555
H9 C13 1_555 1_555
C14 C9 1_555 1_555
H10 C14 1_555 1_555
C15 H11 1_555 1_555
C16 C15 1_555 1_555
C17 C16 1_555 1_555
H12 C17 1_555 1_555
H13 C17 1_555 1_555
C18 C17 1_555 1_555
H14 C18 1_555 1_555
H15 C18 1_555 1_555
H16 C18 1_555 1_555
C19 O5 1_555 1_555
N1 C15 1_555 1_555
O1 C1 1_555 1_555
O2 C1 1_555 1_555
O3 C8 1_555 1_555
O4 C8 1_555 1_555
Rh1 N1 1_555 1_555
C1A C2A 1_555 1_555
C2A C3A 1_555 1_555
C3A H1A 1_555 1_555
C4A C3A 1_555 1_555
H2A C4A 1_555 1_555
C5A C4A 1_555 1_555
H3A C5A 1_555 1_555
C6A C5A 1_555 1_555
H4A C6A 1_555 1_555
C7A C2A 1_555 1_555
H5A C7A 1_555 1_555
C8A C9A 1_555 1_555
C9A C10A 1_555 1_555
C10A H6A 1_555 1_555
C11A C10A 1_555 1_555
H7A C11A 1_555 1_555
C12A C11A 1_555 1_555
H8A C12A 1_555 1_555
C13A C12A 1_555 1_555
H9A C13A 1_555 1_555
C14A C9A 1_555 1_555
H10A C14A 1_555 1_555
C15A H11A 1_555 1_555
C16A N1 1_555 1_555
C17A C16A 1_555 1_555
H12A C17A 1_555 1_555
H13A C17A 1_555 1_555
C18A C17A 1_555 1_555
H14A C18A 1_555 1_555
H15A C18A 1_555 1_555
H16A C18A 1_555 1_555
N1A C16 1_555 1_555
O1A C1A 1_555 1_555
O1A_2 Rh1A 1_555 1_555
O2A Rh1 1_555 1_555
O2_2 Rh1A 1_555 1_555
O3A C8A 1_555 1_555
O3A_2 Rh1A 1_555 1_555
O4A Rh1 1_555 1_555
O4_2 Rh1A 1_555 1_555
O5A C19 1_555 1_555
Rh1A N1A 1_555 1_555
Rh1A_2 O2 1_555 1_555
Rh1_2 Rh1A 1_555 1_555
C6 C7 1_555 1_555
C13 C14 1_555 1_555
O1 Rh1 1_555 1_555
O3 Rh1 1_555 1_555
O4 Rh1A_2 1_555 1_555
Rh1 Rh1A_2 1_555 1_555
C1A O2A 1_555 1_555
C6A C7A 1_555 1_555
C8A O4A 1_555 1_555
C13A C14A 1_555 1_555
C15A C16A 1_555 1_555
C15A N1A 1_555 1_555
O1A Rh1A_2 1_555 1_555
O3A Rh1A_2 1_555 1_555

#END
