
#######################################################################
#
#                 Cambridge Crystallographic Data Centre
#                                CCDC 
#
#######################################################################
#
# If this CIF has been generated from an entry in the Cambridge 
# Structural Database, then it will include bibliographic, chemical, 
# crystal, experimental, refinement or atomic coordinate data resulting 
# from the CCDC's data processing and validation procedures.
#
#######################################################################

data_HINTOP
_chemical_formula_moiety         
'(C30 H30 Fe1 N24 2+)n,2n(Cl1 O4 1-),n(C1 H4 O1),0.5n(H2 O1)'
_chemical_name_systematic        
"catena-[tris(\m~2~-1,1'-(1,4-Phenylenebis(methylene))bis(1H-tetrazole))-iron(ii) diperchlorate ethanol solvate hemihydrate]"
_symmetry_cell_setting           hexagonal
_symmetry_space_group_name_H-M   'P 63/m'
_symmetry_Int_Tables_number      176
_space_group_name_Hall           '-P 6c'
loop_
_symmetry_equiv_pos_site_id
_symmetry_equiv_pos_as_xyz
1 x,y,z
2 x-y,x,1/2+z
3 -y,x-y,z
4 -x,-y,1/2+z
5 -x+y,-x,z
6 y,-x+y,1/2+z
7 -x,-y,-z
8 -x+y,-x,1/2-z
9 y,-x+y,-z
10 x,y,1/2-z
11 x-y,x,-z
12 -y,x-y,1/2-z
_cell_length_a                   10.514099(41)
_cell_length_b                   10.514099(41)
_cell_length_c                   23.58029(19)
_cell_angle_alpha                90
_cell_angle_beta                 90
_cell_angle_gamma                120
_cell_volume                     2257.48
_exptl_crystal_colour            white
_exptl_crystal_description       prisms
_cell_formula_units_Z            2
loop_
_atom_site_label
_atom_site_type_symbol
_atom_site_fract_x
_atom_site_fract_y
_atom_site_fract_z
_atom_site_U_iso_or_equiv
_atom_site_thermal_displace_type
O1 O 0.54950 0.35150 0.00460 0.0809 Uiso
Cl1 Cl 0.666667 0.333333 -0.00750 0.0809 Uiso
O2 O 0.666667 0.333333 -0.06550 0.0809 Uiso
O1B O 0.64850 0.19800 0.00460 0.0809 Uiso
O1D O 0.80200 0.45050 0.00460 0.0809 Uiso
Fe1 Fe 0.000 0.000 0.000 0.0310 Uiso
N1 N 0.04362(67) 0.18629(43) 0.05220(20) 0.0665 Uiso
C1 C -0.03512(38) 0.24988(46) 0.06242(25) 0.0665 Uiso
H1 H -0.12100 0.22620 0.04280 0.0798 Uiso
N2 N 0.02809(33) 0.34740(39) 0.10311(17) 0.0665 Uiso
N3 N 0.15120(62) 0.35187(56) 0.11841(19) 0.0665 Uiso
N4 N 0.16226(42) 0.25143(45) 0.08868(25) 0.0665 Uiso
C2 C -0.01277(27) 0.45227(28) 0.12578(24) 0.0665 Uiso
H2 H -0.10950 0.42840 0.11200 0.0798 Uiso
H3 H 0.05870 0.55120 0.11320 0.0798 Uiso
C3 C -0.01643(26) 0.44855(24) 0.19079(14) 0.0665 Uiso
C4 C -0.11408(32) 0.32763(34) 0.22018(12) 0.0665 Uiso
H4 H -0.18280 0.24400 0.20020 0.0798 Uiso
C5 C 0.08381(33) 0.57251(40) 0.22067(14) 0.0665 Uiso
H5 H 0.15200 0.65690 0.20110 0.0798 Uiso
N1I N 0.04362(67) 0.18629(43) 0.44780(20) 0.0665 Uiso
C1I C -0.03512(38) 0.24988(46) 0.43758(25) 0.0665 Uiso
H1I H -0.12100 0.22620 0.45720 0.0798 Uiso
N2I N 0.02809(33) 0.34740(39) 0.39689(17) 0.0665 Uiso
N3I N 0.15120(62) 0.35187(56) 0.38159(19) 0.0665 Uiso
N4I N 0.16226(42) 0.25143(45) 0.41132(25) 0.0665 Uiso
C2I C -0.01277(27) 0.45227(28) 0.37422(24) 0.0665 Uiso
H2I H -0.10950 0.42840 0.38800 0.0798 Uiso
H3I H 0.05870 0.55120 0.38680 0.0798 Uiso
C3I C -0.01643(26) 0.44855(24) 0.30921(14) 0.0665 Uiso
C4I C -0.11408(32) 0.32763(34) 0.27982(12) 0.0665 Uiso
H4I H -0.18280 0.24400 0.29980 0.0798 Uiso
C5I C 0.08381(33) 0.57251(40) 0.27933(14) 0.0665 Uiso
H5I H 0.15200 0.65690 0.29890 0.0798 Uiso
N1B N -0.18629(43) -0.14267(80) 0.05220(20) 0.0665 Uiso
C1B C -0.24988(46) -0.28500(60) 0.06242(25) 0.0665 Uiso
H1B H -0.22620 -0.34720 0.04280 0.0798 Uiso
N2B N -0.34740(39) -0.31931(51) 0.10311(17) 0.0665 Uiso
N3B N -0.35187(56) -0.20067(84) 0.11841(19) 0.0665 Uiso
N4B N -0.25143(45) -0.08917(62) 0.08868(25) 0.0665 Uiso
C2B C -0.45227(28) -0.46504(39) 0.12578(24) 0.0665 Uiso
H2B H -0.42840 -0.53790 0.11200 0.0798 Uiso
H3B H -0.55120 -0.49250 0.11320 0.0798 Uiso
C3B C -0.44855(24) -0.46498(35) 0.19079(14) 0.0665 Uiso
C4B C -0.32763(34) -0.44171(47) 0.22018(12) 0.0665 Uiso
H4B H -0.24400 -0.42680 0.20020 0.0798 Uiso
C5B C -0.57251(40) -0.48870(52) 0.22067(14) 0.0665 Uiso
H5B H -0.65690 -0.50490 0.20110 0.0798 Uiso
N1K N -0.18629(43) -0.14267(80) 0.44780(20) 0.0665 Uiso
C1K C -0.24988(46) -0.28500(60) 0.43758(25) 0.0665 Uiso
H1K H -0.22620 -0.34720 0.45720 0.0798 Uiso
N2K N -0.34740(39) -0.31931(51) 0.39689(17) 0.0665 Uiso
N3K N -0.35187(56) -0.20067(84) 0.38159(19) 0.0665 Uiso
N4K N -0.25143(45) -0.08917(62) 0.41132(25) 0.0665 Uiso
C2K C -0.45227(28) -0.46504(39) 0.37422(24) 0.0665 Uiso
H2K H -0.42840 -0.53790 0.38800 0.0798 Uiso
H3K H -0.55120 -0.49250 0.38680 0.0798 Uiso
C3K C -0.44855(24) -0.46498(35) 0.30921(14) 0.0665 Uiso
C4K C -0.32763(34) -0.44171(47) 0.27982(12) 0.0665 Uiso
H4K H -0.24400 -0.42680 0.29980 0.0798 Uiso
C5K C -0.57251(40) -0.48870(52) 0.27933(14) 0.0665 Uiso
H5K H -0.65690 -0.50490 0.29890 0.0798 Uiso
N1D N 0.14267(80) -0.04362(67) 0.05220(20) 0.0665 Uiso
C1D C 0.28500(60) 0.03512(38) 0.06242(25) 0.0665 Uiso
H1D H 0.34720 0.12100 0.04280 0.0798 Uiso
N2D N 0.31931(51) -0.02809(33) 0.10311(17) 0.0665 Uiso
N3D N 0.20067(84) -0.15120(62) 0.11841(19) 0.0665 Uiso
N4D N 0.08917(62) -0.16226(42) 0.08868(25) 0.0665 Uiso
C2D C 0.46504(39) 0.01277(27) 0.12578(24) 0.0665 Uiso
H2D H 0.53790 0.10950 0.11200 0.0798 Uiso
H3D H 0.49250 -0.05870 0.11320 0.0798 Uiso
C3D C 0.46498(35) 0.01643(26) 0.19079(14) 0.0665 Uiso
C4D C 0.44171(47) 0.11408(32) 0.22018(12) 0.0665 Uiso
H4D H 0.42680 0.18280 0.20020 0.0798 Uiso
C5D C 0.48870(52) -0.08381(33) 0.22067(14) 0.0665 Uiso
H5D H 0.50490 -0.15200 0.20110 0.0798 Uiso
N1G N 0.14267(80) -0.04362(67) 0.44780(20) 0.0665 Uiso
C1G C 0.28500(60) 0.03512(38) 0.43758(25) 0.0665 Uiso
H1G H 0.34720 0.12100 0.45720 0.0798 Uiso
N2G N 0.31931(51) -0.02809(33) 0.39689(17) 0.0665 Uiso
N3G N 0.20067(84) -0.15120(62) 0.38159(19) 0.0665 Uiso
N4G N 0.08917(62) -0.16226(42) 0.41132(25) 0.0665 Uiso
C2G C 0.46504(39) 0.01277(27) 0.37422(24) 0.0665 Uiso
H2G H 0.53790 0.10950 0.38800 0.0798 Uiso
H3G H 0.49250 -0.05870 0.38680 0.0798 Uiso
C3G C 0.46498(35) 0.01643(26) 0.30921(14) 0.0665 Uiso
C4G C 0.44171(47) 0.11408(32) 0.27982(12) 0.0665 Uiso
H4G H 0.42680 0.18280 0.29980 0.0798 Uiso
C5G C 0.48870(52) -0.08381(33) 0.27933(14) 0.0665 Uiso
H5G H 0.50490 -0.15200 0.29890 0.0798 Uiso
Fe1A Fe 0.000 0.000 0.500 0.0310 Uiso
N1F N -0.04362(67) -0.18629(43) -0.05220(20) 0.0665 Uiso
N1H N 0.18629(43) 0.14267(80) -0.05220(20) 0.0665 Uiso
N1J N -0.14267(80) 0.04362(67) -0.05220(20) 0.0665 Uiso
Cl2? Cl 0.666667 0.333333 0.01290 0.0809 Uiso
O3? O 0.666667 0.333333 0.07160 0.0809 Uiso
O4? O 0.07820 -0.04914 0.18573 0.1013 Uiso
C6? C 0.06178 0.02991 0.21516 0.1013 Uiso
O5? O 0.04537 0.10895 0.24459 0.1013 Uiso
loop_
_geom_bond_atom_site_label_1
_geom_bond_atom_site_label_2
_geom_bond_site_symmetry_1
_geom_bond_site_symmetry_2
Fe1 N1 1_555 1_555
N1 C1 1_555 1_555
C1 H1 1_555 1_555
N2 C1 1_555 1_555
N3 N2 1_555 1_555
N4 N1 1_555 1_555
C2 N2 1_555 1_555
H2 C2 1_555 1_555
H3 C2 1_555 1_555
C3 C2 1_555 1_555
C4 C3 1_555 1_555
H4 C4 1_555 1_555
C5 C3 1_555 1_555
H5 C5 1_555 1_555
O1 Cl1 1_555 1_555
Cl1 O2 1_555 1_555
N1I C1I 1_555 1_555
C1I H1I 1_555 1_555
N2I C1I 1_555 1_555
N3I N2I 1_555 1_555
N4I N1I 1_555 1_555
C2I N2I 1_555 1_555
H2I C2I 1_555 1_555
H3I C2I 1_555 1_555
C3I C2I 1_555 1_555
C4I C4 1_555 1_555
H4I C4I 1_555 1_555
C5I C5 1_555 1_555
H5I C5I 1_555 1_555
N1B Fe1 1_555 1_555
C1B N1B 1_555 1_555
H1B C1B 1_555 1_555
N2B C1B 1_555 1_555
N3B N2B 1_555 1_555
N4B N1B 1_555 1_555
C2B N2B 1_555 1_555
H2B C2B 1_555 1_555
H3B C2B 1_555 1_555
C3B C2B 1_555 1_555
C4B C3B 1_555 1_555
H4B C4B 1_555 1_555
C5B C3B 1_555 1_555
H5B C5B 1_555 1_555
N1K C1K 1_555 1_555
C1K H1K 1_555 1_555
N2K C1K 1_555 1_555
N3K N2K 1_555 1_555
N4K N1K 1_555 1_555
C2K N2K 1_555 1_555
H2K C2K 1_555 1_555
H3K C2K 1_555 1_555
C3K C2K 1_555 1_555
C4K C4B 1_555 1_555
H4K C4K 1_555 1_555
C5K C5B 1_555 1_555
H5K C5K 1_555 1_555
N1D Fe1 1_555 1_555
C1D N1D 1_555 1_555
H1D C1D 1_555 1_555
N2D C1D 1_555 1_555
N3D N2D 1_555 1_555
N4D N1D 1_555 1_555
C2D N2D 1_555 1_555
H2D C2D 1_555 1_555
H3D C2D 1_555 1_555
C3D C2D 1_555 1_555
C4D C3D 1_555 1_555
H4D C4D 1_555 1_555
C5D C3D 1_555 1_555
H5D C5D 1_555 1_555
N1G C1G 1_555 1_555
C1G H1G 1_555 1_555
N2G C1G 1_555 1_555
N3G N2G 1_555 1_555
N4G N1G 1_555 1_555
C2G N2G 1_555 1_555
H2G C2G 1_555 1_555
H3G C2G 1_555 1_555
C3G C2G 1_555 1_555
C4G C4D 1_555 1_555
H4G C4G 1_555 1_555
C5G C5D 1_555 1_555
H5G C5G 1_555 1_555
Fe1A N1I 1_555 1_555
N1F Fe1 1_555 1_555
N1H Fe1 1_555 1_555
N1J Fe1 1_555 1_555
O1B Cl1 1_555 1_555
O1D Cl1 1_555 1_555
N3 N4 1_555 1_555
N3I N4I 1_555 1_555
C3I C4I 1_555 1_555
C3I C5I 1_555 1_555
N3B N4B 1_555 1_555
N1K Fe1A 1_555 1_555
N3K N4K 1_555 1_555
C3K C4K 1_555 1_555
C3K C5K 1_555 1_555
N3D N4D 1_555 1_555
N1G Fe1A 1_555 1_555
N3G N4G 1_555 1_555
C3G C4G 1_555 1_555
C3G C5G 1_555 1_555

#END
