
#######################################################################
#
#                 Cambridge Crystallographic Data Centre
#                                CCDC 
#
#######################################################################
#
# If this CIF has been generated from an entry in the Cambridge 
# Structural Database, then it will include bibliographic, chemical, 
# crystal, experimental, refinement or atomic coordinate data resulting 
# from the CCDC's data processing and validation procedures.
#
#######################################################################

data_COYMIN
_chemical_formula_moiety         
'(C27 H19 N1 O10 Zn3)n,2.33n(C3 H7 N1 O1),0.5n(H2 O1)'
_chemical_name_systematic        
"catena-[bis(\m~4~-Naphthalene-2,7-dicarboxylato-O,O',O'',O''')-(\m~4~-oxo)-dimethylformamide-tri-zinc(ii) dimethylformamide solvate hemihydrate]"
_symmetry_cell_setting           rhombohedral
_symmetry_space_group_name_H-M   'R 3 2'
_symmetry_Int_Tables_number      155
_space_group_name_Hall           'R 3 2"'
loop_
_symmetry_equiv_pos_site_id
_symmetry_equiv_pos_as_xyz
1 x,y,z
2 -y,x-y,z
3 -x+y,-x,z
4 y,x,-z
5 x-y,-y,-z
6 -x,-x+y,-z
7 2/3+x,1/3+y,1/3+z
8 2/3-y,1/3+x-y,1/3+z
9 2/3-x+y,1/3-x,1/3+z
10 2/3+y,1/3+x,1/3-z
11 2/3+x-y,1/3-y,1/3-z
12 2/3-x,1/3-x+y,1/3-z
13 1/3+x,2/3+y,2/3+z
14 1/3-y,2/3+x-y,2/3+z
15 1/3-x+y,2/3-x,2/3+z
16 1/3+y,2/3+x,2/3-z
17 1/3+x-y,2/3-y,2/3-z
18 1/3-x,2/3-x+y,2/3-z
_cell_length_a                   21.4718(18)
_cell_length_b                   21.4718(18)
_cell_length_c                   22.420(4)
_cell_angle_alpha                90
_cell_angle_beta                 90
_cell_angle_gamma                120
_cell_volume                     8951.65
_exptl_crystal_colour            'pale yellow'
_exptl_crystal_description       block
_cell_formula_units_Z            9
_chemical_properties_physical    air-sensitive
loop_
_atom_site_label
_atom_site_type_symbol
_atom_site_fract_x
_atom_site_fract_y
_atom_site_fract_z
Zn1 Zn 0.663482(28) 0.18187(2) 0.768128(14)
Zn2 Zn 0.57699(2) 0.24369(2) 0.8333
O1 O 0.66667(18) 0.24232(13) 0.8333
O2 O 0.52233(14) 0.29366(20) 0.97434(10)
O3 O 0.56974(14) 0.23303(21) 0.93038(10)
O4 O 0.49796(16) -0.08840(23) 1.10404(11)
O5 O 0.50554(16) -0.08204(23) 1.20442(11)
C1 C 0.5444(2) 0.1557(3) 1.03739(14)
H1 H 0.5443 0.1320 1.0016
C2 C 0.54909(19) 0.22013(28) 1.03450(15)
C3 C 0.5523(2) 0.2577(3) 1.08707(15)
H2 H 0.5559 0.3035 1.0845
C4 C 0.5501(2) 0.2283(3) 1.14196(17)
H3 H 0.5531 0.2544 1.1772
C5 C 0.5381(3) 0.1259(4) 1.20187(16)
H4 H 0.5418 0.1508 1.2379
C6 C 0.5275(3) 0.0573(4) 1.20377(16)
H5 H 0.5241 0.0352 1.2413
C7 C 0.5215(2) 0.0193(3) 1.15104(17)
C8 C 0.5282(2) 0.0514(4) 1.09711(16)
H6 H 0.5253 0.0260 1.0616
C9 C 0.5395(2) 0.1219(3) 1.09335(14)
C10 C 0.5435(2) 0.1595(3) 1.14636(15)
C11 C 0.54845(18) 0.25169(27) 0.97455(14)
C12 C 0.5067(2) -0.0560(3) 1.15325(17)
O6 O 0.4822(30) 0.1506(23) 0.8334(13)
C13 C 0.4429(10) 0.1131(8) 0.8700(5)
N1 N 0.3763(14) 0.0510(11) 0.8578(7)
C14 C 0.3702(21) 0.0278(18) 0.8744(10)
C15 C 0.3418(14) 0.0124(11) 0.9086(11)
Zn1Q Zn 0.669851(28) 0.185055(34) 0.898539(14)
Zn1O Zn 0.51520(2) 0.330149(28) 0.898539(14)
Zn1G Zn 0.48480(2) -0.185055(34) 1.101461(14)
Zn1D Zn 0.481612(34) -0.18187(2) 1.231872(14)
Zn1J Zn 0.148279(34) 0.15146(2) 0.565205(14)
Zn1M Zn 0.15146(2) 0.148279(34) 0.434795(14)
Zn2A Zn 0.75631(2) 0.33330(3) 0.8333
O1B O 0.57565(22) 0.33333(18) 0.8333
O2O O 0.62699(20) 0.18900(14) 0.69233(10)
O2A O 0.70634(20) 0.22867(24) 0.97434(10)
O3O O 0.56636(21) 0.23641(14) 0.73629(10)
O4O O 0.24493(23) 0.16463(16) 0.56263(11)
O4N O 0.74697(28) 0.16871(16) 0.77071(11)
O4D O 0.58636(28) 0.08840(23) 0.89596(11)
O5O O 0.25129(23) 0.17221(16) 0.46225(11)
O5D O 0.58758(28) 0.08204(23) 0.79558(11)
O5N O 0.74575(28) 0.16113(16) 0.87109(11)
C1O C 0.4890(3) 0.2111(2) 0.62928(14)
H1O H 0.4653 0.2110 0.6651
C2O C 0.55346(28) 0.21576(19) 0.63217(15)
C3O C 0.5910(3) 0.2190(2) 0.57960(15)
H2O H 0.6368 0.2226 0.5822
C4O C 0.5616(3) 0.2168(2) 0.52471(17)
H3O H 0.5877 0.2198 0.4895
C5O C 0.4592(4) 0.2048(3) 0.46480(16)
H4O H 0.4841 0.2085 0.4288
C6O C 0.3906(4) 0.1942(3) 0.46290(16)
H5O H 0.3685 0.1908 0.4254
C7O C 0.3526(3) 0.1882(2) 0.51563(17)
C8O C 0.3847(4) 0.1949(2) 0.56956(16)
H6O H 0.3593 0.1920 0.6051
C9O C 0.4552(3) 0.2062(2) 0.57332(14)
C10O C 0.4928(3) 0.2102(2) 0.52031(15)
C11O C 0.58502(27) 0.21512(18) 0.69212(14)
C12O C 0.2773(3) 0.1734(2) 0.51342(17)
C13O C 0.4464(8) 0.1096(10) 0.7967(5)
N1O N 0.3843(11) 0.0430(14) 0.8089(7)
C14O C 0.3611(18) 0.0369(21) 0.7923(10)
C15O C 0.3457(11) 0.0085(14) 0.7581(11)
H7? H 0.4566 0.1248 0.9105
H8? H 0.3162 0.0361 0.7826
H9? H 0.3237 0.0232 0.8846
H10? H 0.4084 0.0674 0.8973
H11? H 0.3350 -0.0362 0.9058
H12? H 0.2948 0.0093 0.9122
H13? H 0.3710 0.0367 0.9437
loop_
_geom_bond_atom_site_label_1
_geom_bond_atom_site_label_2
_geom_bond_site_symmetry_1
_geom_bond_site_symmetry_2
Zn1 O1 1_555 1_555
Zn2 O1 1_555 1_555
O1 Zn1Q 1_555 1_555
O2 C11 1_555 1_555
O3 Zn2 1_555 1_555
O4 C12 1_555 1_555
O5 C12 1_555 1_555
C1 H1 1_555 1_555
C2 C1 1_555 1_555
C3 C2 1_555 1_555
H2 C3 1_555 1_555
C4 C3 1_555 1_555
H3 C4 1_555 1_555
C5 H4 1_555 1_555
C6 C5 1_555 1_555
H5 C6 1_555 1_555
C7 C6 1_555 1_555
C8 C7 1_555 1_555
H6 C8 1_555 1_555
C9 C1 1_555 1_555
C10 C4 1_555 1_555
C11 O3 1_555 1_555
C12 C7 1_555 1_555
O6 Zn2 1_555 1_555
C13 O6 1_555 1_555
N1 C13 1_555 1_555
C14 C13 1_555 1_555
C15 N1 1_555 1_555
Zn1Q O2A 1_555 1_555
Zn1O O2 1_555 1_555
Zn1G O4 1_555 1_555
Zn1D O5 1_555 1_555
Zn1J O4O 1_555 1_555
Zn1M O5O 1_555 1_555
Zn2A O1 1_555 1_555
O1B Zn2 1_555 1_555
O2O Zn1 1_555 1_555
O3O Zn2 1_555 1_555
O4O C12O 1_555 1_555
O4N Zn1 1_555 1_555
O4D Zn1Q 1_555 1_555
O5O C12O 1_555 1_555
O5D Zn1 1_555 1_555
O5N Zn1Q 1_555 1_555
C1O H1O 1_555 1_555
C2O C1O 1_555 1_555
C3O C2O 1_555 1_555
H2O C3O 1_555 1_555
C4O C3O 1_555 1_555
H3O C4O 1_555 1_555
C5O H4O 1_555 1_555
C6O C5O 1_555 1_555
H5O C6O 1_555 1_555
C7O C6O 1_555 1_555
C8O C7O 1_555 1_555
H6O C8O 1_555 1_555
C9O C1O 1_555 1_555
C10O C4O 1_555 1_555
C11O O2O 1_555 1_555
C12O C7O 1_555 1_555
C13O O6 1_555 1_555
N1O N1 1_555 1_555
C14O N1 1_555 1_555
C15O N1O 1_555 1_555
C2 C11 1_555 1_555
C5 C10 1_555 1_555
C8 C9 1_555 1_555
C9 C10 1_555 1_555
C13 C13O 1_555 1_555
N1 C14 1_555 1_555
C14 C15 1_555 1_555
C14 N1O 1_555 1_555
Zn1O O1B 1_555 1_555
O3O C11O 1_555 1_555
C2O C11O 1_555 1_555
C5O C10O 1_555 1_555
C8O C9O 1_555 1_555
C9O C10O 1_555 1_555
C13O N1O 1_555 1_555
C13O C14O 1_555 1_555
N1O C14O 1_555 1_555
C14O C15O 1_555 1_555

#END
