
#######################################################################
#
#                 Cambridge Crystallographic Data Centre
#                                CCDC 
#
#######################################################################
#
# If this CIF has been generated from an entry in the Cambridge 
# Structural Database, then it will include bibliographic, chemical, 
# crystal, experimental, refinement or atomic coordinate data resulting 
# from the CCDC's data processing and validation procedures.
#
#######################################################################

data_ABEMIF
_chemical_formula_moiety         
'(C2 H8 N1 1+)3n,n(C72 H24 Cl3 Cu12 O48 3-),9n(C4 H9 N1 O1)'
_chemical_name_systematic        
'catena-[tris(Dimethylammonium) octakis(\m~6~-benzene-1,3,5-tricarboxylato)-tris(\m~4~-chloro)-dodeca-copper(ii) N,N-dimethylacetamide solvate]'
_symmetry_cell_setting           cubic
_symmetry_space_group_name_H-M   'P m -3 m'
_symmetry_Int_Tables_number      221
_space_group_name_Hall           '-P 4 2 3'
loop_
_symmetry_equiv_pos_site_id
_symmetry_equiv_pos_as_xyz
1 x,y,z
2 -x,-y,z
3 -x,y,-z
4 x,-y,-z
5 z,x,y
6 z,-x,-y
7 -z,-x,y
8 -z,x,-y
9 y,z,x
10 -y,z,-x
11 y,-z,-x
12 -y,-z,x
13 y,x,-z
14 -y,-x,-z
15 y,-x,z
16 -y,x,z
17 x,z,-y
18 -x,z,y
19 -x,-z,-y
20 x,-z,y
21 z,y,-x
22 z,-y,x
23 -z,y,x
24 -z,-y,-x
25 -x,-y,-z
26 x,y,-z
27 x,-y,z
28 -x,y,z
29 -z,-x,-y
30 -z,x,y
31 z,x,-y
32 z,-x,y
33 -y,-z,-x
34 y,-z,x
35 -y,z,x
36 y,z,-x
37 -y,-x,z
38 y,x,z
39 -y,x,-z
40 y,-x,-z
41 -x,-z,y
42 x,-z,-y
43 x,z,y
44 -x,z,-y
45 -z,-y,x
46 -z,y,-x
47 z,-y,-x
48 z,y,x
_cell_length_a                   15.3840(11)
_cell_length_b                   15.3840(11)
_cell_length_c                   15.3840(11)
_cell_angle_alpha                90
_cell_angle_beta                 90
_cell_angle_gamma                90
_cell_volume                     3640.89
_exptl_crystal_colour            blue
_exptl_crystal_description       block
_cell_formula_units_Z            1
loop_
_atom_site_label
_atom_site_type_symbol
_atom_site_fract_x
_atom_site_fract_y
_atom_site_fract_z
Cu1 Cu 0.33601(6) 0.5000 0.0000
Cl1 Cl 0.5000 0.5000 0.0000
O1 O 0.3134(3) 0.4145(3) -0.0899(3)
C1 C 0.3483(3) 0.3483(3) -0.1175(4)
C2 C 0.3069(3) 0.3069(3) -0.1964(4)
C3 C 0.3438(4) 0.2334(3) -0.2334(3)
H1 H 0.3933 0.2089 -0.2089
Cu1L Cu 0.5000 0.33601(6) 0.0000
Cu1I Cu 0.5000 0.0000 -0.33601(6)
Cu1P Cu 0.33601(6) 0.0000 -0.5000
Cu1D Cu 0.0000 0.33601(6) -0.5000
Cu1T Cu 0.0000 0.5000 -0.33601(6)
Cu1M Cu 0.5000 0.66399(6) 0.0000
Cu1H Cu 0.5000 1.0000 0.33601(6)
Cu1P_2 Cu 0.33601(6) 1.0000 0.5000
Cu1E Cu 0.0000 0.66399(6) 0.5000
Cu1U Cu 0.0000 0.5000 0.33601(6)
Cu1H_2 Cu 0.5000 0.0000 0.33601(6)
Cu1P_3 Cu 0.33601(6) 0.0000 0.5000
Cu1D_2 Cu 0.0000 0.33601(6) 0.5000
Cu1I_2 Cu 0.5000 1.0000 -0.33601(6)
Cu1P_4 Cu 0.33601(6) 1.0000 -0.5000
Cu1E_2 Cu 0.0000 0.66399(6) -0.5000
Cu1A Cu 0.66399(6) 0.5000 0.0000
Cu1U_2 Cu 1.0000 0.5000 0.33601(6)
Cu1D_3 Cu 1.0000 0.33601(6) 0.5000
Cu1Q Cu 0.66399(6) 0.0000 0.5000
Cu1T_2 Cu 1.0000 0.5000 -0.33601(6)
Cu1D_4 Cu 1.0000 0.33601(6) -0.5000
Cu1Q_2 Cu 0.66399(6) 0.0000 -0.5000
Cu1E_3 Cu 1.0000 0.66399(6) -0.5000
Cu1Q_3 Cu 0.66399(6) 1.0000 -0.5000
Cu1E_4 Cu 1.0000 0.66399(6) 0.5000
Cu1Q_4 Cu 0.66399(6) 1.0000 0.5000
Cu1I_3 Cu 0.5000 1.0000 0.66399(6)
Cu1H_3 Cu 0.5000 0.0000 -0.66399(6)
Cl1H Cl 0.5000 1.0000 0.5000
Cl1H_2 Cl 0.5000 0.0000 -0.5000
O1KA O 0.4145(3) 0.3134(3) -0.0899(3)
O1J O 0.4145(3) 0.0899(3) -0.3134(3)
O1OA O 0.3134(3) 0.0899(3) -0.4145(3)
O1G O 0.0899(3) 0.3134(3) -0.4145(3)
O1SA O 0.0899(3) 0.4145(3) -0.3134(3)
O1C O 0.3134(3) 0.5855(3) 0.0899(3)
O1MA O 0.4145(3) 0.6866(3) 0.0899(3)
O1H O 0.4145(3) 0.9101(3) 0.3134(3)
O1PA O 0.3134(3) 0.9101(3) 0.4145(3)
O1F O 0.0899(3) 0.6866(3) 0.4145(3)
O1RA O 0.0899(3) 0.5855(3) 0.3134(3)
O1Y O 0.3134(3) 0.4145(3) 0.0899(3)
O1L O 0.4145(3) 0.3134(3) 0.0899(3)
O1GA O 0.4145(3) 0.0899(3) 0.3134(3)
O1S O 0.3134(3) 0.0899(3) 0.4145(3)
O1CA O 0.0899(3) 0.3134(3) 0.4145(3)
O1V O 0.0899(3) 0.4145(3) 0.3134(3)
O1Z O 0.3134(3) 0.5855(3) -0.0899(3)
O1N O 0.4145(3) 0.6866(3) -0.0899(3)
O1IA O 0.4145(3) 0.9101(3) -0.3134(3)
O1P O 0.3134(3) 0.9101(3) -0.4145(3)
O1BA O 0.0899(3) 0.6866(3) -0.4145(3)
O1W O 0.0899(3) 0.5855(3) -0.3134(3)
O1LA O 0.5855(3) 0.3134(3) 0.0899(3)
O1B O 0.6866(3) 0.4145(3) 0.0899(3)
O1UA O 0.9101(3) 0.4145(3) 0.3134(3)
O1D O 0.9101(3) 0.3134(3) 0.4145(3)
O1NA O 0.6866(3) 0.0899(3) 0.4145(3)
O1K O 0.5855(3) 0.0899(3) 0.3134(3)
O1O O 0.5855(3) 0.3134(3) -0.0899(3)
O1AA O 0.6866(3) 0.4145(3) -0.0899(3)
O1T O 0.9101(3) 0.4145(3) -0.3134(3)
O1DA O 0.9101(3) 0.3134(3) -0.4145(3)
O1R O 0.6866(3) 0.0899(3) -0.4145(3)
O1FA O 0.5855(3) 0.0899(3) -0.3134(3)
O1JA O 0.5855(3) 0.6866(3) -0.0899(3)
O1A O 0.6866(3) 0.5855(3) -0.0899(3)
O1TA O 0.9101(3) 0.5855(3) -0.3134(3)
O1E O 0.9101(3) 0.6866(3) -0.4145(3)
O1QA O 0.6866(3) 0.9101(3) -0.4145(3)
O1I O 0.5855(3) 0.9101(3) -0.3134(3)
O1M O 0.5855(3) 0.6866(3) 0.0899(3)
O1X O 0.6866(3) 0.5855(3) 0.0899(3)
O1U O 0.9101(3) 0.5855(3) 0.3134(3)
O1EA O 0.9101(3) 0.6866(3) 0.4145(3)
O1Q O 0.6866(3) 0.9101(3) 0.4145(3)
O1HA O 0.5855(3) 0.9101(3) 0.3134(3)
O1K_2 O 0.5855(3) 1.0899(3) 0.3134(3)
O1GA_2 O 0.4145(3) 1.0899(3) 0.3134(3)
O1P_2 O 0.3134(3) 0.9101(3) 0.5855(3)
O1S_2 O 0.3134(3) 1.0899(3) 0.4145(3)
O1OA_2 O 0.3134(3) 1.0899(3) 0.5855(3)
O1R_2 O 0.6866(3) 1.0899(3) 0.5855(3)
O1NA_2 O 0.6866(3) 1.0899(3) 0.4145(3)
O1QA_2 O 0.6866(3) 0.9101(3) 0.5855(3)
O1I_2 O 0.5855(3) 0.9101(3) 0.6866(3)
O1J_2 O 0.4145(3) 1.0899(3) 0.6866(3)
O1FA_2 O 0.5855(3) 1.0899(3) 0.6866(3)
O1IA_2 O 0.4145(3) 0.9101(3) 0.6866(3)
O1I_3 O 0.5855(3) -0.0899(3) -0.3134(3)
O1IA_3 O 0.4145(3) -0.0899(3) -0.3134(3)
O1P_3 O 0.3134(3) -0.0899(3) -0.4145(3)
O1S_3 O 0.3134(3) 0.0899(3) -0.5855(3)
O1PA_2 O 0.3134(3) -0.0899(3) -0.5855(3)
O1Q_2 O 0.6866(3) -0.0899(3) -0.5855(3)
O1NA_3 O 0.6866(3) 0.0899(3) -0.5855(3)
O1QA_3 O 0.6866(3) -0.0899(3) -0.4145(3)
O1H_2 O 0.4145(3) -0.0899(3) -0.6866(3)
O1K_3 O 0.5855(3) 0.0899(3) -0.6866(3)
O1GA_3 O 0.4145(3) 0.0899(3) -0.6866(3)
O1HA_2 O 0.5855(3) -0.0899(3) -0.6866(3)
C1J C 0.3483(3) 0.1175(4) -0.3483(3)
C1G C 0.1175(4) 0.3483(3) -0.3483(3)
C1C C 0.3483(3) 0.6517(3) 0.1175(4)
C1H C 0.3483(3) 0.8825(4) 0.3483(3)
C1F C 0.1175(4) 0.6517(3) 0.3483(3)
C1L C 0.3483(3) 0.3483(3) 0.1175(4)
C1S C 0.3483(3) 0.1175(4) 0.3483(3)
C1V C 0.1175(4) 0.3483(3) 0.3483(3)
C1N C 0.3483(3) 0.6517(3) -0.1175(4)
C1P C 0.3483(3) 0.8825(4) -0.3483(3)
C1W C 0.1175(4) 0.6517(3) -0.3483(3)
C1B C 0.6517(3) 0.3483(3) 0.1175(4)
C1D C 0.8825(4) 0.3483(3) 0.3483(3)
C1K C 0.6517(3) 0.1175(4) 0.3483(3)
C1O C 0.6517(3) 0.3483(3) -0.1175(4)
C1T C 0.8825(4) 0.3483(3) -0.3483(3)
C1R C 0.6517(3) 0.1175(4) -0.3483(3)
C1A C 0.6517(3) 0.6517(3) -0.1175(4)
C1E C 0.8825(4) 0.6517(3) -0.3483(3)
C1I C 0.6517(3) 0.8825(4) -0.3483(3)
C1M C 0.6517(3) 0.6517(3) 0.1175(4)
C1U C 0.8825(4) 0.6517(3) 0.3483(3)
C1Q C 0.6517(3) 0.8825(4) 0.3483(3)
C2J C 0.3069(3) 0.1964(4) -0.3069(3)
C2G C 0.1964(4) 0.3069(3) -0.3069(3)
C2C C 0.3069(3) 0.6931(3) 0.1964(4)
C2H C 0.3069(3) 0.8036(4) 0.3069(3)
C2F C 0.1964(4) 0.6931(3) 0.3069(3)
C2L C 0.3069(3) 0.3069(3) 0.1964(4)
C2S C 0.3069(3) 0.1964(4) 0.3069(3)
C2V C 0.1964(4) 0.3069(3) 0.3069(3)
C2N C 0.3069(3) 0.6931(3) -0.1964(4)
C2P C 0.3069(3) 0.8036(4) -0.3069(3)
C2W C 0.1964(4) 0.6931(3) -0.3069(3)
C2B C 0.6931(3) 0.3069(3) 0.1964(4)
C2D C 0.8036(4) 0.3069(3) 0.3069(3)
C2K C 0.6931(3) 0.1964(4) 0.3069(3)
C2O C 0.6931(3) 0.3069(3) -0.1964(4)
C2T C 0.8036(4) 0.3069(3) -0.3069(3)
C2R C 0.6931(3) 0.1964(4) -0.3069(3)
C2A C 0.6931(3) 0.6931(3) -0.1964(4)
C2E C 0.8036(4) 0.6931(3) -0.3069(3)
C2I C 0.6931(3) 0.8036(4) -0.3069(3)
C2M C 0.6931(3) 0.6931(3) 0.1964(4)
C2U C 0.8036(4) 0.6931(3) 0.3069(3)
C2Q C 0.6931(3) 0.8036(4) 0.3069(3)
C3J C 0.2334(3) 0.2334(3) -0.3438(4)
C3G C 0.2334(3) 0.3438(4) -0.2334(3)
C3C C 0.3438(4) 0.7666(3) 0.2334(3)
C3H C 0.2334(3) 0.7666(3) 0.3438(4)
C3F C 0.2334(3) 0.6562(4) 0.2334(3)
C3S C 0.3438(4) 0.2334(3) 0.2334(3)
C3V C 0.2334(3) 0.2334(3) 0.3438(4)
C3L C 0.2334(3) 0.3438(4) 0.2334(3)
C3P C 0.3438(4) 0.7666(3) -0.2334(3)
C3W C 0.2334(3) 0.7666(3) -0.3438(4)
C3N C 0.2334(3) 0.6562(4) -0.2334(3)
C3D C 0.7666(3) 0.3438(4) 0.2334(3)
C3K C 0.7666(3) 0.2334(3) 0.3438(4)
C3B C 0.6562(4) 0.2334(3) 0.2334(3)
C3O C 0.7666(3) 0.3438(4) -0.2334(3)
C3T C 0.7666(3) 0.2334(3) -0.3438(4)
C3R C 0.6562(4) 0.2334(3) -0.2334(3)
C3E C 0.7666(3) 0.6562(4) -0.2334(3)
C3I C 0.7666(3) 0.7666(3) -0.3438(4)
C3A C 0.6562(4) 0.7666(3) -0.2334(3)
C3M C 0.7666(3) 0.6562(4) 0.2334(3)
C3U C 0.7666(3) 0.7666(3) 0.3438(4)
C3Q C 0.6562(4) 0.7666(3) 0.2334(3)
H1J H 0.2089 0.2089 -0.3933
H1G H 0.2089 0.3933 -0.2089
H1C H 0.3933 0.7911 0.2089
H1H H 0.2089 0.7911 0.3933
H1F H 0.2089 0.6067 0.2089
H1S H 0.3933 0.2089 0.2089
H1V H 0.2089 0.2089 0.3933
H1L H 0.2089 0.3933 0.2089
H1P H 0.3933 0.7911 -0.2089
H1W H 0.2089 0.7911 -0.3933
H1N H 0.2089 0.6067 -0.2089
H1D H 0.7911 0.3933 0.2089
H1K H 0.7911 0.2089 0.3933
H1B H 0.6067 0.2089 0.2089
H1O H 0.7911 0.3933 -0.2089
H1T H 0.7911 0.2089 -0.3933
H1R H 0.6067 0.2089 -0.2089
H1E H 0.7911 0.6067 -0.2089
H1I H 0.7911 0.7911 -0.3933
H1A H 0.6067 0.7911 -0.2089
H1M H 0.7911 0.6067 0.2089
H1U H 0.7911 0.7911 0.3933
H1Q H 0.6067 0.7911 0.2089
loop_
_geom_bond_atom_site_label_1
_geom_bond_atom_site_label_2
_geom_bond_site_symmetry_1
_geom_bond_site_symmetry_2
Cu1 Cl1 1_555 1_555
Cl1 Cu1L 1_555 1_555
O1 Cu1 1_555 1_555
C1 O1 1_555 1_555
C2 C1 1_555 1_555
C3 C2 1_555 1_555
H1 C3 1_555 1_555
Cu1L O1KA 1_555 1_555
Cu1I Cl1H_2 1_555 1_555
Cu1P Cl1H_2 1_555 1_555
Cu1D O1G 1_555 1_555
Cu1T O1SA 1_555 1_555
Cu1M Cl1 1_555 1_555
Cu1H Cl1H 1_555 1_555
Cu1P_2 Cl1H 1_555 1_555
Cu1E O1F 1_555 1_555
Cu1U O1RA 1_555 1_555
Cu1H_2 O1GA 1_555 1_555
Cu1P_3 O1S 1_555 1_555
Cu1D_2 O1CA 1_555 1_555
Cu1I_2 O1IA 1_555 1_555
Cu1P_4 O1P 1_555 1_555
Cu1E_2 O1BA 1_555 1_555
Cu1A Cl1 1_555 1_555
Cu1U_2 O1UA 1_555 1_555
Cu1D_3 O1D 1_555 1_555
Cu1Q O1NA 1_555 1_555
Cu1T_2 O1T 1_555 1_555
Cu1D_4 O1DA 1_555 1_555
Cu1Q_2 Cl1H_2 1_555 1_555
Cu1E_3 O1E 1_555 1_555
Cu1Q_3 O1QA 1_555 1_555
Cu1E_4 O1EA 1_555 1_555
Cu1Q_4 Cl1H 1_555 1_555
Cu1I_3 Cl1H 1_555 1_555
Cu1H_3 Cl1H_2 1_555 1_555
O1KA C1 1_555 1_555
O1J Cu1I 1_555 1_555
O1OA Cu1P 1_555 1_555
O1G C1G 1_555 1_555
O1SA C1G 1_555 1_555
O1C Cu1 1_555 1_555
O1MA Cu1M 1_555 1_555
O1H Cu1H 1_555 1_555
O1PA Cu1P_2 1_555 1_555
O1F C1F 1_555 1_555
O1RA C1F 1_555 1_555
O1Y Cu1 1_555 1_555
O1L Cu1L 1_555 1_555
O1GA C1S 1_555 1_555
O1S C1S 1_555 1_555
O1CA C1V 1_555 1_555
O1V Cu1U 1_555 1_555
O1Z Cu1 1_555 1_555
O1N Cu1M 1_555 1_555
O1IA C1P 1_555 1_555
O1P C1P 1_555 1_555
O1BA C1W 1_555 1_555
O1W Cu1T 1_555 1_555
O1LA Cu1L 1_555 1_555
O1B Cu1A 1_555 1_555
O1UA C1D 1_555 1_555
O1D C1D 1_555 1_555
O1NA C1K 1_555 1_555
O1K Cu1H_2 1_555 1_555
O1O Cu1L 1_555 1_555
O1AA Cu1A 1_555 1_555
O1T C1T 1_555 1_555
O1DA C1T 1_555 1_555
O1R Cu1Q_2 1_555 1_555
O1FA Cu1I 1_555 1_555
O1JA Cu1M 1_555 1_555
O1A Cu1A 1_555 1_555
O1TA Cu1T_2 1_555 1_555
O1E C1E 1_555 1_555
O1QA C1I 1_555 1_555
O1I Cu1I_2 1_555 1_555
O1M Cu1M 1_555 1_555
O1X Cu1A 1_555 1_555
O1U Cu1U_2 1_555 1_555
O1EA C1U 1_555 1_555
O1Q Cu1Q_4 1_555 1_555
O1HA Cu1H 1_555 1_555
O1K_2 Cu1H 1_555 1_555
O1GA_2 Cu1H 1_555 1_555
O1P_2 Cu1P_2 1_555 1_555
O1S_2 Cu1P_2 1_555 1_555
O1OA_2 Cu1P_2 1_555 1_555
O1R_2 Cu1Q_4 1_555 1_555
O1NA_2 Cu1Q_4 1_555 1_555
O1QA_2 Cu1Q_4 1_555 1_555
O1I_2 Cu1I_3 1_555 1_555
O1J_2 Cu1I_3 1_555 1_555
O1FA_2 Cu1I_3 1_555 1_555
O1IA_2 Cu1I_3 1_555 1_555
O1I_3 Cu1I 1_555 1_555
O1IA_3 Cu1I 1_555 1_555
O1P_3 Cu1P 1_555 1_555
O1S_3 Cu1P 1_555 1_555
O1PA_2 Cu1P 1_555 1_555
O1Q_2 Cu1Q_2 1_555 1_555
O1NA_3 Cu1Q_2 1_555 1_555
O1QA_3 Cu1Q_2 1_555 1_555
O1H_2 Cu1H_3 1_555 1_555
O1K_3 Cu1H_3 1_555 1_555
O1GA_3 Cu1H_3 1_555 1_555
O1HA_2 Cu1H_3 1_555 1_555
C1J O1J 1_555 1_555
C1G C2G 1_555 1_555
C1C O1C 1_555 1_555
C1H O1H 1_555 1_555
C1F C2F 1_555 1_555
C1L O1Y 1_555 1_555
C1S C2S 1_555 1_555
C1V O1V 1_555 1_555
C1N O1Z 1_555 1_555
C1P C2P 1_555 1_555
C1W O1W 1_555 1_555
C1B O1LA 1_555 1_555
C1D C2D 1_555 1_555
C1K O1K 1_555 1_555
C1O O1O 1_555 1_555
C1T C2T 1_555 1_555
C1R O1R 1_555 1_555
C1A O1JA 1_555 1_555
C1E O1TA 1_555 1_555
C1I O1I 1_555 1_555
C1M O1M 1_555 1_555
C1U O1U 1_555 1_555
C1Q O1Q 1_555 1_555
C2J C3 1_555 1_555
C2G C3J 1_555 1_555
C2C C1C 1_555 1_555
C2H C1H 1_555 1_555
C2F C3H 1_555 1_555
C2L C1L 1_555 1_555
C2S C3S 1_555 1_555
C2V C1V 1_555 1_555
C2N C1N 1_555 1_555
C2P C3P 1_555 1_555
C2W C1W 1_555 1_555
C2B C1B 1_555 1_555
C2D C3D 1_555 1_555
C2K C1K 1_555 1_555
C2O C1O 1_555 1_555
C2T C3O 1_555 1_555
C2R C1R 1_555 1_555
C2A C1A 1_555 1_555
C2E C1E 1_555 1_555
C2I C1I 1_555 1_555
C2M C1M 1_555 1_555
C2U C1U 1_555 1_555
C2Q C1Q 1_555 1_555
C3J C2J 1_555 1_555
C3G C2 1_555 1_555
C3C C2C 1_555 1_555
C3H C2H 1_555 1_555
C3F C2C 1_555 1_555
C3S C2L 1_555 1_555
C3V C2S 1_555 1_555
C3L C2L 1_555 1_555
C3P C2N 1_555 1_555
C3W C2P 1_555 1_555
C3N C2N 1_555 1_555
C3D C2B 1_555 1_555
C3K C2D 1_555 1_555
C3B C2B 1_555 1_555
C3O C2O 1_555 1_555
C3T C2T 1_555 1_555
C3R C2O 1_555 1_555
C3E C2A 1_555 1_555
C3I C2E 1_555 1_555
C3A C2A 1_555 1_555
C3M C2M 1_555 1_555
C3U C2U 1_555 1_555
C3Q C2M 1_555 1_555
H1J C3J 1_555 1_555
H1G C3G 1_555 1_555
H1C C3C 1_555 1_555
H1H C3H 1_555 1_555
H1F C3F 1_555 1_555
H1S C3S 1_555 1_555
H1V C3V 1_555 1_555
H1L C3L 1_555 1_555
H1P C3P 1_555 1_555
H1W C3W 1_555 1_555
H1N C3N 1_555 1_555
H1D C3D 1_555 1_555
H1K C3K 1_555 1_555
H1B C3B 1_555 1_555
H1O C3O 1_555 1_555
H1T C3T 1_555 1_555
H1R C3R 1_555 1_555
H1E C3E 1_555 1_555
H1I C3I 1_555 1_555
H1A C3A 1_555 1_555
H1M C3M 1_555 1_555
H1U C3U 1_555 1_555
H1Q C3Q 1_555 1_555
O1OA C1J 1_555 1_555
O1MA C1C 1_555 1_555
O1PA C1H 1_555 1_555
O1L C1L 1_555 1_555
O1N C1N 1_555 1_555
O1B C1B 1_555 1_555
O1AA C1O 1_555 1_555
O1FA C1R 1_555 1_555
O1A C1A 1_555 1_555
O1X C1M 1_555 1_555
O1HA C1Q 1_555 1_555
C1J C2J 1_555 1_555
C2G C3G 1_555 1_555
C2H C3C 1_555 1_555
C2F C3F 1_555 1_555
C2V C3V 1_555 1_555
C2V C3L 1_555 1_555
C2W C3W 1_555 1_555
C2W C3N 1_555 1_555
C2K C3K 1_555 1_555
C2K C3B 1_555 1_555
C2R C3T 1_555 1_555
C2R C3R 1_555 1_555
C2E C3E 1_555 1_555
C2I C3I 1_555 1_555
C2I C3A 1_555 1_555
C2U C3M 1_555 1_555
C2Q C3U 1_555 1_555
C2Q C3Q 1_555 1_555

#END
