
#######################################################################
#
#                 Cambridge Crystallographic Data Centre
#                                CCDC 
#
#######################################################################
#
# If this CIF has been generated from an entry in the Cambridge 
# Structural Database, then it will include bibliographic, chemical, 
# crystal, experimental, refinement or atomic coordinate data resulting 
# from the CCDC's data processing and validation procedures.
#
#######################################################################

data_OCEYUR
_chemical_formula_moiety         '(C26 H18 N4 O8 Zn2)n'
_chemical_name_systematic        
catena-(bis(\m~3~-5-Aminoisophthalato)-(\m~2~-4,4'-bipyridine)-di-zinc)
_symmetry_cell_setting           monoclinic
_symmetry_space_group_name_H-M   'P 21/c'
_symmetry_Int_Tables_number      14
_space_group_name_Hall           '-P 2ybc'
loop_
_symmetry_equiv_pos_site_id
_symmetry_equiv_pos_as_xyz
1 x,y,z
2 -x,1/2+y,1/2-z
3 -x,-y,-z
4 x,1/2-y,1/2+z
_cell_length_a                   11.58082(32)
_cell_length_b                   7.70682(20)
_cell_length_c                   15.9980(4)
_cell_angle_alpha                90
_cell_angle_beta                 107.6361(19)
_cell_angle_gamma                90
_cell_volume                     1360.73
_cell_formula_units_Z            2
loop_
_atom_site_label
_atom_site_type_symbol
_atom_site_fract_x
_atom_site_fract_y
_atom_site_fract_z
_atom_site_U_iso_or_equiv
_atom_site_thermal_displace_type
Zn1 Zn 0.81515(29) 0.5007(6) 0.18759(19) 0.0409 Uiso
O1 O 0.8137(12) 0.5320(15) 0.3084(6) 0.0416 Uiso
O2 O 0.8987(13) 0.7954(14) 0.3348(8) 0.0416 Uiso
O3 O 0.8371(12) 0.2611(12) 0.6734(8) 0.0416 Uiso
O4 O 0.7872(13) 0.1568(16) 0.5422(8) 0.0416 Uiso
N1 N 0.9671(10) 0.8799(18) 0.6708(8) 0.0270 Uiso
N2 N 0.6686(12) 0.6479(16) 0.1129(10) 0.0399 Uiso
C1 C 0.8658(18) 0.6355(28) 0.4535(6) 0.0399 Uiso
C2 C 0.8423(15) 0.4794(18) 0.4890(12) 0.0399 Uiso
C3 C 0.8515(18) 0.4707(18) 0.5778(14) 0.0399 Uiso
C4 C 0.9022(20) 0.6081(29) 0.6331(6) 0.0399 Uiso
C5 C 0.9310(18) 0.7614(22) 0.5980(12) 0.0399 Uiso
C6 C 0.9138(18) 0.7747(17) 0.5083(13) 0.0399 Uiso
C7 C 0.8539(18) 0.6607(17) 0.3571(7) 0.0270 Uiso
C8 C 0.8269(21) 0.2822(15) 0.5933(8) 0.0270 Uiso
C9 C 0.6272(17) 0.6378(15) 0.0240(11) 0.0399 Uiso
C10 C 0.5630(16) 0.7775(25) -0.0234(5) 0.0399 Uiso
C11 C 0.5335(16) 0.9181(15) 0.0209(13) 0.0399 Uiso
C12 C 0.5711(17) 0.9194(18) 0.1123(13) 0.0399 Uiso
C13 C 0.6462(18) 0.7869(26) 0.1579(5) 0.0399 Uiso
Zn1C Zn 0.81515(29) -0.0007(6) -0.31241(19) 0.0409 Uiso
Zn1C_2 Zn 0.81515(29) -0.0007(6) 0.68759(19) 0.0409 Uiso
Zn1C_3 Zn 0.81515(29) 0.9993(6) 0.68759(19) 0.0409 Uiso
Zn1B Zn 0.18485(29) 1.4993(6) -0.18759(19) 0.0409 Uiso
Zn1_2 Zn 0.81515(29) -0.4993(6) 0.18759(19) 0.0409 Uiso
O1C O 0.8137(12) -0.0320(15) -0.1916(6) 0.0416 Uiso
O2C O 0.8987(13) -0.2954(14) -0.1652(8) 0.0416 Uiso
O3C O 0.8371(12) 0.2389(12) 0.1734(8) 0.0416 Uiso
O3_2 O 0.8371(12) 0.2611(12) -0.3266(8) 0.0416 Uiso
O4C O 0.7872(13) 0.3432(16) 0.0422(8) 0.0416 Uiso
N1C N 0.9671(10) -0.3799(18) 0.1708(8) 0.0270 Uiso
N1C_2 N 0.9671(10) 0.6201(18) 0.1708(8) 0.0270 Uiso
N1_2 N 0.9671(10) -0.1201(18) -0.3292(8) 0.0270 Uiso
N2B N 0.3314(12) 1.3521(16) -0.1129(10) 0.0399 Uiso
N2C N 0.6686(12) -0.1479(16) -0.3871(10) 0.0399 Uiso
C1C C 0.8658(18) -0.1355(28) -0.0465(6) 0.0399 Uiso
C2C C 0.8423(15) 0.0206(18) -0.0110(12) 0.0399 Uiso
C3C C 0.8515(18) 0.0293(18) 0.0778(14) 0.0399 Uiso
C4C C 0.9022(20) -0.1081(29) 0.1331(6) 0.0399 Uiso
C5C C 0.9310(18) -0.2614(22) 0.0980(12) 0.0399 Uiso
C6C C 0.9138(18) -0.2747(17) 0.0083(13) 0.0399 Uiso
C7C C 0.8539(18) -0.1607(17) -0.1429(7) 0.0270 Uiso
C8C C 0.8269(21) 0.2178(15) 0.0933(8) 0.0270 Uiso
C9B C 0.3728(17) 1.3622(15) -0.0240(11) 0.0399 Uiso
C10B C 0.4370(16) 1.2225(25) 0.0234(5) 0.0399 Uiso
C11B C 0.4665(16) 1.0819(15) -0.0209(13) 0.0399 Uiso
C12B C 0.4289(17) 1.0806(18) -0.1123(13) 0.0399 Uiso
C13B C 0.3538(18) 1.2131(26) -0.1579(5) 0.0399 Uiso
loop_
_geom_bond_atom_site_label_1
_geom_bond_atom_site_label_2
_geom_bond_site_symmetry_1
_geom_bond_site_symmetry_2
Zn1 O1 1_555 1_555
O1 C7 1_555 1_555
O2 C7 1_555 1_555
O3 C8 1_555 1_555
O4 C8 1_555 1_555
N1 C5 1_555 1_555
N2 Zn1 1_555 1_555
C1 C2 1_555 1_555
C2 C3 1_555 1_555
C3 C4 1_555 1_555
C4 C5 1_555 1_555
C5 C6 1_555 1_555
C6 C1 1_555 1_555
C7 C1 1_555 1_555
C8 C3 1_555 1_555
C9 N2 1_555 1_555
C10 C9 1_555 1_555
C11 C10 1_555 1_555
C12 C11 1_555 1_555
C13 N2 1_555 1_555
Zn1C O1C 1_555 1_555
Zn1C_2 O3 1_555 1_555
Zn1C_3 N1 1_555 1_555
Zn1B N2B 1_555 1_555
Zn1_2 N1C 1_555 1_555
O1C C7C 1_555 1_555
O2C C7C 1_555 1_555
O3C Zn1 1_555 1_555
O3_2 Zn1C 1_555 1_555
O4C C8C 1_555 1_555
N1C C5C 1_555 1_555
N1C_2 Zn1 1_555 1_555
N1_2 Zn1C 1_555 1_555
N2B C9B 1_555 1_555
N2C Zn1C 1_555 1_555
C1C C2C 1_555 1_555
C2C C3C 1_555 1_555
C3C C4C 1_555 1_555
C4C C5C 1_555 1_555
C5C C6C 1_555 1_555
C6C C1C 1_555 1_555
C7C C1C 1_555 1_555
C8C O3C 1_555 1_555
C9B C10B 1_555 1_555
C10B C11B 1_555 1_555
C11B C11 1_555 1_555
C12B C11B 1_555 1_555
C13B N2B 1_555 1_555
C12 C13 1_555 1_555
C3C C8C 1_555 1_555
C12B C13B 1_555 1_555

#END
