
#######################################################################
#
#                 Cambridge Crystallographic Data Centre
#                                CCDC 
#
#######################################################################
#
# If this CIF has been generated from an entry in the Cambridge 
# Structural Database, then it will include bibliographic, chemical, 
# crystal, experimental, refinement or atomic coordinate data resulting 
# from the CCDC's data processing and validation procedures.
#
#######################################################################

data_OCEYEB
_chemical_formula_moiety         '(C26 H22 N4 O10 Zn2)n,4n(H2 O1)'
_chemical_name_systematic        
"catena-(bis(\m~3~-5-Aminoisophthalato)-(\m~2~-4,4'-bipyridine)-diaqua-di-zinc tetrahydrate)"
_symmetry_cell_setting           monoclinic
_symmetry_space_group_name_H-M   'P 21/c'
_symmetry_Int_Tables_number      14
_space_group_name_Hall           '-P 2ybc'
loop_
_symmetry_equiv_pos_site_id
_symmetry_equiv_pos_as_xyz
1 x,y,z
2 -x,1/2+y,1/2-z
3 -x,-y,-z
4 x,1/2-y,1/2+z
_cell_length_a                   12.4676(9)
_cell_length_b                   7.6792(6)
_cell_length_c                   16.1832(12)
_cell_angle_alpha                90
_cell_angle_beta                 108.963(2)
_cell_angle_gamma                90
_cell_volume                     1465.31
_exptl_crystal_colour            'light brown'
_exptl_crystal_description       Plate
_cell_formula_units_Z            2
loop_
_atom_site_label
_atom_site_type_symbol
_atom_site_fract_x
_atom_site_fract_y
_atom_site_fract_z
Zn1 Zn 0.81464(3) 0.50684(4) 0.18401(2)
O1 O 0.8267(2) 0.5380(3) 0.30606(13)
O2 O 0.8909(2) 0.8100(3) 0.33370(13)
O3 O 0.8476(2) 0.2440(2) 0.67462(13)
O4 O 0.7962(2) 0.1504(3) 0.53923(15)
N1 N 0.9583(2) 0.8762(3) 0.66385(14)
H1 H 1.0039 0.8324 0.7147
H2 H 0.9976 0.9577 0.6458
N2 N 0.6837(2) 0.6651(3) 0.11582(16)
C1 C 0.8748(2) 0.6367(3) 0.45160(16)
C2 C 0.8468(3) 0.4751(3) 0.47739(18)
H3 H 0.8195 0.3875 0.4362
C3 C 0.8594(2) 0.4443(3) 0.56486(17)
C4 C 0.8990(3) 0.5769(3) 0.62613(17)
H4 H 0.9075 0.5568 0.6846
C5 C 0.9258(2) 0.7391(3) 0.59990(17)
C6 C 0.9143(3) 0.7691(3) 0.51278(17)
H5 H 0.9330 0.8772 0.4954
C7 C 0.8643(3) 0.6673(4) 0.35683(17)
C8 C 0.8319(3) 0.2684(3) 0.59355(19)
C9 C 0.6337(4) 0.6574(5) 0.0304(2)
H6 H 0.6482 0.5615 0.0004
C10 C 0.5612(4) 0.7843(6) -0.0167(3)
H7 H 0.5282 0.7725 -0.0768
C11 C 0.5373(3) 0.9289(4) 0.0250(2)
C12 C 0.5907(4) 0.9386(6) 0.1127(2)
H8 H 0.5796 1.0350 0.1437
C13 C 0.6616(4) 0.8054(5) 0.1558(2)
H9 H 0.6956 0.8143 0.2160
O5 O 0.6498(9) 0.3458(12) 0.2055(6)
Zn1C Zn 0.81464(3) -0.00684(4) -0.31599(2)
Zn1C_2 Zn 0.81464(3) -0.00684(4) 0.68401(2)
Zn1C_3 Zn 0.81464(3) 0.99316(4) 0.68401(2)
Zn1B Zn 0.18536(3) 1.49316(4) -0.18401(2)
Zn1_2 Zn 0.81464(3) -0.49316(4) 0.18401(2)
O1C O 0.8267(2) -0.0380(3) -0.19394(13)
O1C_2 O 0.8267(2) -0.0380(3) 0.80606(13)
O2C O 0.8909(2) -0.3100(3) -0.16630(13)
O3C O 0.8476(2) 0.2560(2) 0.17462(13)
O4C O 0.7962(2) 0.3496(3) 0.03923(15)
N1C N 0.9583(2) -0.3762(3) 0.16385(14)
N1C_2 N 0.9583(2) 0.6238(3) 0.16385(14)
N1_2 N 0.9583(2) -0.1238(3) 0.66385(14)
H1C H 1.0039 -0.3324 0.2147
H1C_2 H 1.0039 0.6676 0.2147
H1_2 H 1.0039 -0.1676 0.7147
H2C H 0.9976 -0.4577 0.1458
H2C_2 H 0.9976 0.5423 0.1458
H2_2 H 0.9976 -0.0423 0.6458
N2B N 0.3163(2) 1.3349(3) -0.11582(16)
N2C N 0.6837(2) -0.1651(3) 0.61582(16)
C1C C 0.8748(2) -0.1367(3) -0.04840(16)
C2C C 0.8468(3) 0.0249(3) -0.02261(18)
H3C H 0.8195 0.1125 -0.0638
C3C C 0.8594(2) 0.0557(3) 0.06486(17)
C4C C 0.8990(3) -0.0769(3) 0.12613(17)
H4C H 0.9075 -0.0568 0.1846
C5C C 0.9258(2) -0.2391(3) 0.09990(17)
C6C C 0.9143(3) -0.2691(3) 0.01278(17)
H5C H 0.9330 -0.3772 -0.0046
C7C C 0.8643(3) -0.1673(4) -0.14317(17)
C8C C 0.8319(3) 0.2316(3) 0.09355(19)
C9B C 0.3663(4) 1.3426(5) -0.0304(2)
H6B H 0.3518 1.4385 -0.0004
C10B C 0.4388(4) 1.2157(6) 0.0167(3)
H7B H 0.4718 1.2275 0.0768
C11B C 0.4627(3) 1.0711(4) -0.0250(2)
C12B C 0.4093(4) 1.0614(6) -0.1127(2)
H8B H 0.4204 0.9650 -0.1437
C13B C 0.3384(4) 1.1946(5) -0.1558(2)
H9B H 0.3044 1.1857 -0.2160
O5C O 0.6498(9) 0.1542(12) 0.7055(6)
O6 O 0.7321(5) 0.4212(6) -0.1430(3)
O7 O 0.4790(18) 0.583(3) 0.2146(11)
O8? O 0.5756(19) 0.352(2) 0.2380(9)
loop_
_geom_bond_atom_site_label_1
_geom_bond_atom_site_label_2
_geom_bond_site_symmetry_1
_geom_bond_site_symmetry_2
Zn1 O1 1_555 1_555
O1 C7 1_555 1_555
O2 C7 1_555 1_555
O3 C8 1_555 1_555
O4 C8 1_555 1_555
N1 H1 1_555 1_555
H2 N1 1_555 1_555
N2 Zn1 1_555 1_555
C1 C2 1_555 1_555
C2 H3 1_555 1_555
C3 C2 1_555 1_555
C4 C3 1_555 1_555
H4 C4 1_555 1_555
C5 N1 1_555 1_555
C6 C1 1_555 1_555
H5 C6 1_555 1_555
C7 C1 1_555 1_555
C8 C3 1_555 1_555
C9 N2 1_555 1_555
H6 C9 1_555 1_555
C10 C9 1_555 1_555
H7 C10 1_555 1_555
C11 C10 1_555 1_555
C12 C11 1_555 1_555
H8 C12 1_555 1_555
C13 N2 1_555 1_555
H9 C13 1_555 1_555
O5 Zn1 1_555 1_555
Zn1C O1C 1_555 1_555
Zn1C_2 O3 1_555 1_555
Zn1C_3 N1 1_555 1_555
Zn1B N2B 1_555 1_555
Zn1_2 N1C 1_555 1_555
O1C C7C 1_555 1_555
O1C_2 Zn1C_2 1_555 1_555
O2C C7C 1_555 1_555
O3C Zn1 1_555 1_555
O4C C8C 1_555 1_555
N1C H1C 1_555 1_555
N1C_2 Zn1 1_555 1_555
N1_2 Zn1C_2 1_555 1_555
H1C_2 N1C_2 1_555 1_555
H1_2 N1_2 1_555 1_555
H2C N1C 1_555 1_555
H2C_2 N1C_2 1_555 1_555
H2_2 N1_2 1_555 1_555
N2B C9B 1_555 1_555
N2C Zn1C_2 1_555 1_555
C1C C2C 1_555 1_555
C2C H3C 1_555 1_555
C3C C2C 1_555 1_555
C4C C3C 1_555 1_555
H4C C4C 1_555 1_555
C5C N1C 1_555 1_555
C6C C1C 1_555 1_555
H5C C6C 1_555 1_555
C7C C1C 1_555 1_555
C8C O3C 1_555 1_555
C9B H6B 1_555 1_555
C10B C9B 1_555 1_555
H7B C10B 1_555 1_555
C11B C11 1_555 1_555
C12B C11B 1_555 1_555
H8B C12B 1_555 1_555
C13B N2B 1_555 1_555
H9B C13B 1_555 1_555
O5C Zn1C_2 1_555 1_555
C4 C5 1_555 1_555
C5 C6 1_555 1_555
C12 C13 1_555 1_555
C3C C8C 1_555 1_555
C4C C5C 1_555 1_555
C5C C6C 1_555 1_555
C10B C11B 1_555 1_555
C12B C13B 1_555 1_555

#END
