
#######################################################################
#
#                 Cambridge Crystallographic Data Centre
#                                CCDC 
#
#######################################################################
#
# If this CIF has been generated from an entry in the Cambridge 
# Structural Database, then it will include bibliographic, chemical, 
# crystal, experimental, refinement or atomic coordinate data resulting 
# from the CCDC's data processing and validation procedures.
#
#######################################################################

data_ODEKAK
_chemical_formula_moiety         '(C28 H22 N4 O8 Zn2)n,5n(H2 O1)'
_chemical_name_systematic        
'catena-(bis(\m~3~-5-Aminoisophthalato)-(\m~2~-1,2-bis(4-pyridyl)ethane)-di-zinc pentahydrate)'
_symmetry_cell_setting           monoclinic
_symmetry_space_group_name_H-M   'C 2/c'
_symmetry_Int_Tables_number      15
_space_group_name_Hall           '-C 2yc'
loop_
_symmetry_equiv_pos_site_id
_symmetry_equiv_pos_as_xyz
1 x,y,z
2 1/2+x,1/2+y,z
3 -x,y,1/2-z
4 1/2-x,1/2+y,1/2-z
5 -x,-y,-z
6 1/2-x,1/2-y,-z
7 x,-y,1/2+z
8 1/2+x,1/2-y,1/2+z
_cell_length_a                   26.544(6)
_cell_length_b                   7.4487(16)
_cell_length_c                   16.339(4)
_cell_angle_alpha                90.00
_cell_angle_beta                 113.588(5)
_cell_angle_gamma                90.00
_cell_volume                     2960.6
_exptl_crystal_colour            'light brown'
_exptl_crystal_description       Plate
_cell_formula_units_Z            4
loop_
_atom_site_label
_atom_site_type_symbol
_atom_site_fract_x
_atom_site_fract_y
_atom_site_fract_z
Zn1 Zn 0.161255(14) -0.20835(4) 0.17295(2)
O1 O 0.17168(9) -0.4675(3) 0.15908(14)
O2 O 0.14859(11) -0.3684(3) 0.02175(16)
O3 O 0.16213(10) -0.7882(3) -0.20677(14)
O4 O 0.20285(10) -1.0545(3) -0.16671(14)
N1 N 0.23272(10) -1.1065(3) 0.16431(15)
H1 H 0.2552 -1.0596 0.2171
H2 H 0.2508 -1.1947 0.1498
N2 N 0.09939(10) -0.0337(3) 0.10486(17)
C1 C 0.18023(12) -0.6704(4) 0.05272(18)
C2 C 0.17438(12) -0.7073(4) -0.03462(19)
H3 H 0.1603 -0.6199 -0.0786
C3 C 0.18940(11) -0.8733(4) -0.05609(17)
C4 C 0.21039(12) -1.0053(4) 0.00957(18)
H4 H 0.2206 -1.1166 -0.0046
C5 C 0.21598(11) -0.9695(4) 0.09634(18)
C6 C 0.20086(12) -0.8032(4) 0.11772(18)
H5 H 0.2045 -0.7804 0.1758
C7 C 0.16546(12) -0.4912(4) 0.07778(19)
C8 C 0.18517(12) -0.9126(4) -0.14911(18)
C9 C 0.08495(16) 0.0875(5) 0.1518(2)
H6 H 0.0973 0.0719 0.2132
C10 C 0.05247(18) 0.2351(6) 0.1133(3)
H7 H 0.0437 0.3166 0.1487
C11 C 0.03303(16) 0.2612(5) 0.0221(3)
C12 C 0.04764(15) 0.1363(5) -0.0259(2)
H8 H 0.0355 0.1488 -0.0875
C13 C 0.08026(13) -0.0077(5) 0.0163(2)
H9 H 0.0894 -0.0905 -0.0181
C14 C -0.0022(2) 0.4200(6) -0.0238(3)
H10 H 0.0055 0.4484 -0.0756
H11 H -0.0402 0.3816 -0.0459
Zn1F Zn 0.161255(14) -0.79165(4) 0.67295(2)
Zn1F_2 Zn 0.161255(14) -0.79165(4) -0.32705(2)
Zn1_2 Zn 0.161255(14) -1.20835(4) 0.17295(2)
Zn1D Zn -0.161255(14) 1.20835(4) -0.17295(2)
Zn1F_3 Zn 0.161255(14) 0.20835(4) 0.67295(2)
O1F O 0.17168(9) -0.5325(3) 0.65908(14)
O2F O 0.14859(11) -0.6316(3) 0.52175(16)
O3F O 0.16213(10) -0.2118(3) 0.29323(14)
O3_2 O 0.16213(10) -0.7882(3) 0.79323(14)
O4F O 0.20285(10) 0.0545(3) 0.33329(14)
N1F N 0.23272(10) 0.1065(3) 0.66431(15)
N1_2 N 0.23272(10) -0.1065(3) 0.16431(15)
N1F_2 N 0.23272(10) -0.8935(3) 0.66431(15)
H1F H 0.2552 0.0596 0.7171
H1_2 H 0.2552 -0.0596 0.2171
H1F_2 H 0.2552 -0.9404 0.7171
H2F H 0.2508 0.1947 0.6498
H2_2 H 0.2508 -0.1947 0.1498
H2F_2 H 0.2508 -0.8053 0.6498
N2D N -0.09939(10) 1.0337(3) -0.10486(17)
N2F N 0.09939(10) -0.9663(3) 0.60486(17)
C1F C 0.18023(12) -0.3296(4) 0.55272(18)
C2F C 0.17438(12) -0.2927(4) 0.46538(19)
H3F H 0.1603 -0.3801 0.4214
C3F C 0.18940(11) -0.1267(4) 0.44391(17)
C4F C 0.21039(12) 0.0053(4) 0.50957(18)
H4F H 0.2206 0.1166 0.4954
C5F C 0.21598(11) -0.0305(4) 0.59634(18)
C6F C 0.20086(12) -0.1968(4) 0.61772(18)
H5F H 0.2045 -0.2196 0.6758
C7F C 0.16546(12) -0.5088(4) 0.57778(19)
C8F C 0.18517(12) -0.0874(4) 0.35089(18)
C9D C -0.08495(16) 0.9125(5) -0.1518(2)
H6D H -0.0973 0.9281 -0.2132
C10D C -0.05247(18) 0.7649(6) -0.1133(3)
H7D H -0.0437 0.6834 -0.1487
C11D C -0.03303(16) 0.7388(5) -0.0221(3)
C12D C -0.04764(15) 0.8637(5) 0.0259(2)
H8D H -0.0355 0.8512 0.0875
C13D C -0.08026(13) 1.0077(5) -0.0163(2)
H9D H -0.0894 1.0905 0.0181
C14D C 0.0022(2) 0.5800(6) 0.0238(3)
H10D H -0.0055 0.5516 0.0756
H11D H 0.0402 0.6184 0.0459
O5 O 0.0944(3) 0.6997(8) 0.8403(3)
O6 O 0.0538(2) 0.6396(11) 0.2571(4)
O7 O 0.0000 0.0548(19) 0.2500
loop_
_geom_bond_atom_site_label_1
_geom_bond_atom_site_label_2
_geom_bond_site_symmetry_1
_geom_bond_site_symmetry_2
Zn1 O1 1_555 1_555
O1 C7 1_555 1_555
O2 C7 1_555 1_555
O3 C8 1_555 1_555
O4 C8 1_555 1_555
N1 H1 1_555 1_555
H2 N1 1_555 1_555
N2 Zn1 1_555 1_555
C1 C2 1_555 1_555
C2 H3 1_555 1_555
C3 C2 1_555 1_555
C4 C3 1_555 1_555
H4 C4 1_555 1_555
C5 N1 1_555 1_555
C6 C1 1_555 1_555
H5 C6 1_555 1_555
C7 C1 1_555 1_555
C8 C3 1_555 1_555
C9 N2 1_555 1_555
H6 C9 1_555 1_555
C10 C9 1_555 1_555
H7 C10 1_555 1_555
C11 C10 1_555 1_555
C12 C11 1_555 1_555
H8 C12 1_555 1_555
C13 N2 1_555 1_555
H9 C13 1_555 1_555
C14 C11 1_555 1_555
H10 C14 1_555 1_555
H11 C14 1_555 1_555
Zn1F O1F 1_555 1_555
Zn1F_2 O3 1_555 1_555
Zn1_2 N1 1_555 1_555
Zn1D N2D 1_555 1_555
Zn1F_3 N1F 1_555 1_555
O1F C7F 1_555 1_555
O2F C7F 1_555 1_555
O3F Zn1 1_555 1_555
O3_2 Zn1F 1_555 1_555
O4F C8F 1_555 1_555
N1F H1F 1_555 1_555
N1_2 Zn1 1_555 1_555
N1F_2 Zn1F 1_555 1_555
H1_2 N1_2 1_555 1_555
H1F_2 N1F_2 1_555 1_555
H2F N1F 1_555 1_555
H2_2 N1_2 1_555 1_555
H2F_2 N1F_2 1_555 1_555
N2D C9D 1_555 1_555
N2F Zn1F 1_555 1_555
C1F C2F 1_555 1_555
C2F H3F 1_555 1_555
C3F C2F 1_555 1_555
C4F C3F 1_555 1_555
H4F C4F 1_555 1_555
C5F N1F 1_555 1_555
C6F C1F 1_555 1_555
H5F C6F 1_555 1_555
C7F C1F 1_555 1_555
C8F O3F 1_555 1_555
C9D H6D 1_555 1_555
C10D C9D 1_555 1_555
H7D C10D 1_555 1_555
C11D C10D 1_555 1_555
C12D C11D 1_555 1_555
H8D C12D 1_555 1_555
C13D N2D 1_555 1_555
H9D C13D 1_555 1_555
C14D C14 1_555 1_555
H10D C14D 1_555 1_555
H11D C14D 1_555 1_555
C4 C5 1_555 1_555
C5 C6 1_555 1_555
C12 C13 1_555 1_555
C3F C8F 1_555 1_555
C4F C5F 1_555 1_555
C5F C6F 1_555 1_555
C11D C14D 1_555 1_555
C12D C13D 1_555 1_555

#END
