
#######################################################################
#
#                 Cambridge Crystallographic Data Centre
#                                CCDC 
#
#######################################################################
#
# If this CIF has been generated from an entry in the Cambridge 
# Structural Database, then it will include bibliographic, chemical, 
# crystal, experimental, refinement or atomic coordinate data resulting 
# from the CCDC's data processing and validation procedures.
#
#######################################################################

data_ODEKEO
_chemical_formula_moiety         '(C28 H20 N4 O8 Zn2)n'
_chemical_name_systematic        
catena-(bis(\m~3~-5-Aminoisophthalato)-(\m~2~-1,2-bis(4-pyridyl)ethene)-di-zinc)
_symmetry_cell_setting           monoclinic
_symmetry_space_group_name_H-M   'C 2/c'
_symmetry_Int_Tables_number      15
_space_group_name_Hall           '-C 2yc'
loop_
_symmetry_equiv_pos_site_id
_symmetry_equiv_pos_as_xyz
1 x,y,z
2 1/2+x,1/2+y,z
3 -x,y,1/2-z
4 1/2-x,1/2+y,1/2-z
5 -x,-y,-z
6 1/2-x,1/2-y,-z
7 x,-y,1/2+z
8 1/2+x,1/2-y,1/2+z
_cell_length_a                   25.9183(9)
_cell_length_b                   7.43553(30)
_cell_length_c                   16.2652(6)
_cell_angle_alpha                90
_cell_angle_beta                 113.1355(24)
_cell_angle_gamma                90
_cell_volume                     2882.48
_cell_formula_units_Z            4
loop_
_atom_site_label
_atom_site_type_symbol
_atom_site_fract_x
_atom_site_fract_y
_atom_site_fract_z
_atom_site_U_iso_or_equiv
_atom_site_thermal_displace_type
Zn1 Zn 0.16119(13) -0.2135(5) 0.17438(25) 0.0189 Uiso
O1 O 0.1693(7) -0.4670(19) 0.1568(9) 0.0365 Uiso
O2 O 0.1372(5) -0.3758(18) 0.0233(9) 0.0365 Uiso
O3 O 0.1576(5) -0.8002(17) -0.2048(9) 0.0365 Uiso
O4 O 0.2042(6) -1.0385(17) -0.1728(13) 0.0365 Uiso
N1 N 0.2363(6) -1.1203(19) 0.1682(10) 0.0150 Uiso
N2 N 0.0904(6) -0.0306(16) 0.1092(10) 0.0020 Uiso
C1 C 0.1750(11) -0.6849(19) 0.0583(20) 0.0340 Uiso
C2 C 0.1691(8) -0.7190(28) -0.0291(14) 0.0340 Uiso
C3 C 0.1911(9) -0.876(4) -0.0487(9) 0.0340 Uiso
C4 C 0.2115(10) -1.0100(21) 0.0159(20) 0.0340 Uiso
C5 C 0.2158(10) -0.9788(29) 0.1027(15) 0.0340 Uiso
C6 C 0.1986(10) -0.814(4) 0.1242(9) 0.0340 Uiso
C7 C 0.1667(9) -0.4909(16) 0.0786(8) 0.0150 Uiso
C8 C 0.1825(9) -0.9136(25) -0.1447(7) 0.0150 Uiso
C9 C 0.0788(8) 0.1034(24) 0.1569(5) 0.0020 Uiso
C10 C 0.0487(9) 0.2536(16) 0.1121(11) 0.0020 Uiso
C11 C 0.0350(7) 0.2722(14) 0.0208(10) 0.0020 Uiso
C12 C 0.0476(7) 0.1345(24) -0.0263(5) 0.0020 Uiso
C13 C 0.0732(8) -0.0219(19) 0.0181(10) 0.0020 Uiso
C14 C 0.0009(9) 0.4280(14) -0.0231(6) 0.0020 Uiso
Zn1F Zn 0.16119(13) -0.7865(5) 0.67438(25) 0.0189 Uiso
Zn1F_2 Zn 0.16119(13) -0.7865(5) -0.32562(25) 0.0189 Uiso
Zn1_2 Zn 0.16119(13) -1.2135(5) 0.17438(25) 0.0189 Uiso
Zn1D Zn -0.16119(13) 1.2135(5) -0.17438(25) 0.0189 Uiso
Zn1F_3 Zn 0.16119(13) 0.2135(5) 0.67438(25) 0.0189 Uiso
O1F O 0.1693(7) -0.5330(19) 0.6568(9) 0.0365 Uiso
O2F O 0.1372(5) -0.6242(18) 0.5233(9) 0.0365 Uiso
O3F O 0.1576(5) -0.1998(17) 0.2952(9) 0.0365 Uiso
O3_2 O 0.1576(5) -0.8002(17) 0.7952(9) 0.0365 Uiso
O4F O 0.2042(6) 0.0385(17) 0.3272(13) 0.0365 Uiso
N1F N 0.2363(6) 0.1203(19) 0.6682(10) 0.0150 Uiso
N1_2 N 0.2363(6) -0.1203(19) 0.1682(10) 0.0150 Uiso
N1F_2 N 0.2363(6) -0.8797(19) 0.6682(10) 0.0150 Uiso
N2D N -0.0904(6) 1.0306(16) -0.1092(10) 0.0020 Uiso
N2F N 0.0904(6) -0.9694(16) 0.6092(10) 0.0020 Uiso
C1F C 0.1750(11) -0.3151(19) 0.5583(20) 0.0340 Uiso
C2F C 0.1691(8) -0.2810(28) 0.4709(14) 0.0340 Uiso
C3F C 0.1911(9) -0.124(4) 0.4513(9) 0.0340 Uiso
C4F C 0.2115(10) 0.0100(21) 0.5159(20) 0.0340 Uiso
C5F C 0.2158(10) -0.0212(29) 0.6027(15) 0.0340 Uiso
C6F C 0.1986(10) -0.186(4) 0.6242(9) 0.0340 Uiso
C7F C 0.1667(9) -0.5091(16) 0.5786(8) 0.0150 Uiso
C8F C 0.1825(9) -0.0864(25) 0.3553(7) 0.0150 Uiso
C9D C -0.0788(8) 0.8966(24) -0.1569(5) 0.0020 Uiso
C10D C -0.0487(9) 0.7464(16) -0.1121(11) 0.0020 Uiso
C11D C -0.0350(7) 0.7278(14) -0.0208(10) 0.0020 Uiso
C12D C -0.0476(7) 0.8655(24) 0.0263(5) 0.0020 Uiso
C13D C -0.0732(8) 1.0219(19) -0.0181(10) 0.0020 Uiso
C14D C -0.0009(9) 0.5720(14) 0.0231(6) 0.0020 Uiso
loop_
_geom_bond_atom_site_label_1
_geom_bond_atom_site_label_2
_geom_bond_site_symmetry_1
_geom_bond_site_symmetry_2
Zn1 O1 1_555 1_555
O1 C7 1_555 1_555
O2 C7 1_555 1_555
O3 C8 1_555 1_555
O4 C8 1_555 1_555
N1 C5 1_555 1_555
N2 Zn1 1_555 1_555
C1 C2 1_555 1_555
C2 C3 1_555 1_555
C3 C4 1_555 1_555
C4 C5 1_555 1_555
C5 C6 1_555 1_555
C6 C1 1_555 1_555
C7 C1 1_555 1_555
C8 C3 1_555 1_555
C9 N2 1_555 1_555
C10 C9 1_555 1_555
C11 C10 1_555 1_555
C12 C11 1_555 1_555
C13 N2 1_555 1_555
C14 C11 1_555 1_555
Zn1F O1F 1_555 1_555
Zn1F_2 O3 1_555 1_555
Zn1_2 N1 1_555 1_555
Zn1D N2D 1_555 1_555
Zn1F_3 N1F 1_555 1_555
O1F C7F 1_555 1_555
O2F C7F 1_555 1_555
O3F Zn1 1_555 1_555
O3_2 Zn1F 1_555 1_555
O4F C8F 1_555 1_555
N1F C5F 1_555 1_555
N1_2 Zn1 1_555 1_555
N1F_2 Zn1F 1_555 1_555
N2D C9D 1_555 1_555
N2F Zn1F 1_555 1_555
C1F C2F 1_555 1_555
C2F C3F 1_555 1_555
C3F C4F 1_555 1_555
C4F C5F 1_555 1_555
C5F C6F 1_555 1_555
C6F C1F 1_555 1_555
C7F C1F 1_555 1_555
C8F O3F 1_555 1_555
C9D C10D 1_555 1_555
C10D C11D 1_555 1_555
C11D C12D 1_555 1_555
C12D C13D 1_555 1_555
C13D N2D 1_555 1_555
C14D C14 1_555 1_555
C12 C13 1_555 1_555
C3F C8F 1_555 1_555
C11D C14D 1_555 1_555

#END
