
#######################################################################
#
#                 Cambridge Crystallographic Data Centre
#                                CCDC 
#
#######################################################################
#
# If this CIF has been generated from an entry in the Cambridge 
# Structural Database, then it will include bibliographic, chemical, 
# crystal, experimental, refinement or atomic coordinate data resulting 
# from the CCDC's data processing and validation procedures.
#
#######################################################################

data_ODEKIS
_chemical_formula_moiety         '(C29 H24 N4 O8 Zn2)n'
_chemical_name_systematic        
catena-(bis(\m~3~-5-Aminoisophthalato)-(\m~2~-1,3-bis(4-pyridyl)propane)-di-zinc)
_symmetry_cell_setting           orthorhombic
_symmetry_space_group_name_H-M   'P n a 21'
_symmetry_Int_Tables_number      33
_space_group_name_Hall           'P 2c -2n'
loop_
_symmetry_equiv_pos_site_id
_symmetry_equiv_pos_as_xyz
1 x,y,z
2 1/2-x,1/2+y,1/2+z
3 1/2+x,1/2-y,z
4 -x,-y,1/2+z
_cell_length_a                   16.0405(4)
_cell_length_b                   7.65135(18)
_cell_length_c                   25.1087(5)
_cell_angle_alpha                90
_cell_angle_beta                 90
_cell_angle_gamma                90
_cell_volume                     3081.63
_cell_formula_units_Z            4
loop_
_atom_site_label
_atom_site_type_symbol
_atom_site_fract_x
_atom_site_fract_y
_atom_site_fract_z
_atom_site_U_iso_or_equiv
_atom_site_thermal_displace_type
Zn1 Zn 0.9802(8) 0.5113(15) 0.1163(4) 0.0231 Uiso
Zn2 Zn 0.9775(8) 1.9911(16) -0.2160(4) 0.0231 Uiso
O1 O 1.0965(12) 0.563(5) 0.0979(11) 0.0280 Uiso
O2 O 1.0848(23) 0.791(4) 0.1457(12) 0.0280 Uiso
O3 O 1.3509(20) 0.153(4) 0.0819(12) 0.0280 Uiso
O4 O 1.4589(20) 0.2459(20) 0.1109(13) 0.0280 Uiso
O5 O 1.1046(26) 1.722(4) -0.2648(13) 0.0280 Uiso
O6 O 1.0986(11) 1.969(5) -0.2263(11) 0.0280 Uiso
O7 O 1.3380(18) 2.367(4) -0.2157(13) 0.0280 Uiso
O8 O 1.4618(24) 2.2602(25) -0.2381(12) 0.0280 Uiso
N1 N 1.4271(25) 0.860(5) 0.1796(11) 0.0200 Uiso
N2 N 1.4293(27) 1.595(5) -0.2869(12) 0.0200 Uiso
N3 N 0.9492(27) 0.678(5) 0.0454(11) 0.0131 Uiso
N4 N 0.9394(27) 1.821(5) -0.1499(14) 0.0131 Uiso
C1 C 1.2252(13) 0.623(6) 0.1281(17) 0.0131 Uiso
C2 C 1.2691(25) 0.476(5) 0.1102(16) 0.0131 Uiso
C3 C 1.3569(26) 0.481(4) 0.1102(14) 0.0131 Uiso
C4 C 1.3987(13) 0.610(6) 0.1394(17) 0.0131 Uiso
C5 C 1.3551(26) 0.754(5) 0.1590(15) 0.0131 Uiso
C6 C 1.2675(27) 0.749(5) 0.1583(16) 0.0131 Uiso
C7 C 1.1340(17) 0.682(5) 0.1236(20) 0.0200 Uiso
C8 C 1.3839(22) 0.289(4) 0.1020(19) 0.0200 Uiso
C9 C 1.2399(15) 1.855(6) -0.2491(15) 0.0131 Uiso
C10 C 1.2713(26) 2.024(5) -0.2411(13) 0.0131 Uiso
C11 C 1.3568(27) 2.054(4) -0.2488(15) 0.0131 Uiso
C12 C 1.4097(13) 1.917(6) -0.2635(17) 0.0131 Uiso
C13 C 1.3764(24) 1.757(5) -0.2807(17) 0.0131 Uiso
C14 C 1.2895(24) 1.734(4) -0.2768(17) 0.0131 Uiso
C15 C 1.1447(15) 1.847(5) -0.2437(23) 0.0200 Uiso
C16 C 1.3835(24) 2.243(4) -0.2341(19) 0.0200 Uiso
C17 C 0.9867(20) 0.836(6) 0.0357(19) 0.0131 Uiso
C18 C 0.9498(24) 0.956(4) 0.0009(16) 0.0131 Uiso
C19 C 0.8676(24) 0.930(4) -0.0154(16) 0.0131 Uiso
C20 C 0.8332(21) 0.764(6) -0.0084(15) 0.0131 Uiso
C21 C 0.8741(25) 0.639(4) 0.0225(17) 0.0131 Uiso
C22 C 0.8452(27) 1.111(4) -0.0364(16) 0.0200 Uiso
C23 C 0.8905(19) 1.286(5) -0.0406(18) 0.0200 Uiso
C24 C 0.8468(28) 1.334(4) -0.0924(19) 0.0200 Uiso
C25 C 0.8689(28) 1.520(4) -0.1091(13) 0.0131 Uiso
C26 C 0.9551(26) 1.544(5) -0.1065(17) 0.0131 Uiso
C27 C 0.9899(16) 1.694(6) -0.1291(20) 0.0131 Uiso
C28 C 0.8552(25) 1.814(5) -0.1428(16) 0.0130 Uiso
C29 C 0.8196(16) 1.667(6) -0.1188(16) 0.0130 Uiso
Zn1B Zn 1.4802(8) -0.0113(15) 0.1163(4) 0.0231 Uiso
Zn1B_2 Zn 1.4802(8) 0.9887(15) 0.1163(4) 0.0231 Uiso
Zn2B Zn 1.4775(8) 2.5089(16) -0.2160(4) 0.0231 Uiso
Zn2B_2 Zn 1.4775(8) 1.5089(16) -0.2160(4) 0.0231 Uiso
O4B O 0.9589(20) 0.2541(20) 0.1109(13) 0.0280 Uiso
O7B O 0.8380(18) 2.133(4) -0.2157(13) 0.0280 Uiso
O8B O 0.9618(24) 2.2398(25) -0.2381(12) 0.0280 Uiso
N1B N 0.9271(25) 0.640(5) 0.1796(11) 0.0200 Uiso
N2B N 0.9293(27) 1.905(5) -0.2869(12) 0.0200 Uiso
loop_
_geom_bond_atom_site_label_1
_geom_bond_atom_site_label_2
_geom_bond_site_symmetry_1
_geom_bond_site_symmetry_2
Zn1 O1 1_555 1_555
Zn2 O6 1_555 1_555
O1 C7 1_555 1_555
O2 C7 1_555 1_555
O3 C8 1_555 1_555
O4 C8 1_555 1_555
O5 C15 1_555 1_555
O6 C15 1_555 1_555
O7 C16 1_555 1_555
O8 C16 1_555 1_555
N1 C5 1_555 1_555
N2 C13 1_555 1_555
N3 Zn1 1_555 1_555
N4 Zn2 1_555 1_555
C1 C2 1_555 1_555
C2 C3 1_555 1_555
C3 C4 1_555 1_555
C4 C5 1_555 1_555
C5 C6 1_555 1_555
C6 C1 1_555 1_555
C7 C1 1_555 1_555
C8 C3 1_555 1_555
C9 C10 1_555 1_555
C10 C11 1_555 1_555
C11 C12 1_555 1_555
C12 C13 1_555 1_555
C13 C14 1_555 1_555
C14 C9 1_555 1_555
C15 C9 1_555 1_555
C16 C11 1_555 1_555
C17 N3 1_555 1_555
C18 C17 1_555 1_555
C19 C18 1_555 1_555
C20 C19 1_555 1_555
C21 N3 1_555 1_555
C22 C19 1_555 1_555
C23 C22 1_555 1_555
C24 C23 1_555 1_555
C25 C24 1_555 1_555
C26 C25 1_555 1_555
C27 N4 1_555 1_555
C28 N4 1_555 1_555
C29 C25 1_555 1_555
Zn1B O4 1_555 1_555
Zn1B_2 N1 1_555 1_555
Zn2B O7 1_555 1_555
Zn2B_2 N2 1_555 1_555
O4B Zn1 1_555 1_555
O7B Zn2 1_555 1_555
O8B Zn2 1_555 1_555
N1B Zn1 1_555 1_555
N2B Zn2 1_555 1_555
O8 Zn2B 1_555 1_555
C20 C21 1_555 1_555
C26 C27 1_555 1_555
C28 C29 1_555 1_555

#END
