
#######################################################################
#
#                 Cambridge Crystallographic Data Centre
#                                CCDC 
#
#######################################################################
#
# If this CIF has been generated from an entry in the Cambridge 
# Structural Database, then it will include bibliographic, chemical, 
# crystal, experimental, refinement or atomic coordinate data resulting 
# from the CCDC's data processing and validation procedures.
#
#######################################################################

data_VOCSUC01
_chemical_formula_moiety         '(C28 H18 N2 O4 Zn1)n'
_chemical_name_systematic        
catena-[(\m~2~-trans-4,4'-stilbenedicarboxylato)-(1,10-phenanthroline)-zinc(ii)]
_symmetry_cell_setting           tetragonal
_symmetry_space_group_name_H-M   'P 4/n c c'
_symmetry_Int_Tables_number      130
_space_group_name_Hall           '-P 4a 2ac'
loop_
_symmetry_equiv_pos_site_id
_symmetry_equiv_pos_as_xyz
1 x,y,z
2 1/2-x,1/2-y,z
3 1/2-y,x,z
4 y,1/2-x,z
5 -x,1/2+y,1/2-z
6 1/2+x,-y,1/2-z
7 1/2+y,1/2+x,1/2-z
8 -y,-x,1/2-z
9 -x,-y,-z
10 1/2+x,1/2+y,-z
11 1/2+y,-x,-z
12 -y,1/2+x,-z
13 x,1/2-y,1/2+z
14 1/2-x,y,1/2+z
15 1/2-y,1/2-x,1/2+z
16 y,x,1/2+z
_cell_length_a                   16.1598(4)
_cell_length_b                   16.1598(4)
_cell_length_c                   19.3303(11)
_cell_angle_alpha                90
_cell_angle_beta                 90
_cell_angle_gamma                90
_cell_volume                     5047.9
_exptl_crystal_colour            colorless
_exptl_crystal_description       block
_cell_formula_units_Z            8
loop_
_atom_site_label
_atom_site_type_symbol
_atom_site_fract_x
_atom_site_fract_y
_atom_site_fract_z
_atom_site_U_iso_or_equiv
_atom_site_thermal_displace_type
Zn1 Zn 0.55397(4) 0.05397(4) 0.2500 0.0531 Uani
N1 N 0.4464(3) 0.0228(3) 0.3029(2) 0.0530 Uani
O1 O 0.5152(3) 0.1600(3) 0.2130(2) 0.0750 Uani
O2 O 0.6150(3) 0.1274(3) 0.1419(3) 0.0800 Uani
C1 C 0.4106(4) -0.0462(3) 0.2786(3) 0.0473 Uani
C2 C 0.3377(3) -0.0802(3) 0.3037(3) 0.0520 Uani
C3 C 0.2988(4) -0.0348(4) 0.3574(3) 0.0667 Uani
H1 H 0.2491 -0.0545 0.3766 0.0810 Uiso
C4 C 0.3324(4) 0.0370(4) 0.3819(4) 0.0717 Uani
H2 H 0.3060 0.0678 0.4167 0.0860 Uiso
C5 C 0.4079(4) 0.0633(4) 0.3532(3) 0.0647 Uani
H3 H 0.4323 0.1119 0.3704 0.0770 Uiso
C6 C 0.3063(4) -0.1542(4) 0.2756(3) 0.0573 Uani
H4 H 0.2568 -0.1764 0.2932 0.0690 Uiso
C7 C 0.5608(4) 0.1724(4) 0.1595(3) 0.0630 Uani
C8 C 0.5371(4) 0.2512(3) 0.1202(3) 0.0563 Uani
C9 C 0.4688(4) 0.2984(4) 0.1390(3) 0.0650 Uani
H5 H 0.4348 0.2810 0.1757 0.0780 Uiso
C10 C 0.4512(4) 0.3691(4) 0.1050(3) 0.0703 Uani
H6 H 0.4044 0.3999 0.1181 0.0840 Uiso
C11 C 0.4993(4) 0.3971(4) 0.0520(3) 0.0653 Uani
C12 C 0.5638(5) 0.3489(4) 0.0304(4) 0.0793 Uani
H7 H 0.5949 0.3652 -0.0084 0.0950 Uiso
C13 C 0.5839(5) 0.2759(4) 0.0649(3) 0.0737 Uani
H8 H 0.6293 0.2440 0.0504 0.0890 Uiso
C14 C 0.4790(6) 0.4792(5) 0.0192(4) 0.0857 Uani
H9 H 0.4267 0.5010 0.0302 0.1020 Uiso
Zn1H Zn 0.44603(4) 0.94603(4) -0.2500 0.0531 Uani
N1F N 0.5228(3) -0.0536(3) 0.1971(2) 0.0530 Uani
O1H O 0.4848(3) 0.8400(3) -0.2130(2) 0.0750 Uani
O1F O 0.6600(3) 0.0152(3) 0.2870(2) 0.0750 Uani
O2H O 0.3850(3) 0.8726(3) -0.1419(3) 0.0800 Uani
O2F O 0.6274(3) 0.1150(3) 0.3581(3) 0.0800 Uani
C1F C 0.4538(3) -0.0894(4) 0.2214(3) 0.0473 Uani
C2F C 0.4198(3) -0.1623(3) 0.1963(3) 0.0520 Uani
C3F C 0.4652(4) -0.2012(4) 0.1426(3) 0.0667 Uani
H1F H 0.4455 -0.2509 0.1234 0.0810 Uiso
C4F C 0.5370(4) -0.1676(4) 0.1181(4) 0.0717 Uani
H2F H 0.5678 -0.1940 0.0833 0.0860 Uiso
C5F C 0.5633(4) -0.0921(4) 0.1468(3) 0.0647 Uani
H3F H 0.6119 -0.0677 0.1296 0.0770 Uiso
C6F C 0.3458(4) -0.1937(4) 0.2244(3) 0.0573 Uani
H4F H 0.3236 -0.2432 0.2068 0.0690 Uiso
C7H C 0.4392(4) 0.8276(4) -0.1595(3) 0.0630 Uani
C8H C 0.4629(4) 0.7488(3) -0.1202(3) 0.0563 Uani
C9H C 0.5312(4) 0.7016(4) -0.1390(3) 0.0650 Uani
H5H H 0.5652 0.7190 -0.1757 0.0780 Uiso
C10H C 0.5488(4) 0.6309(4) -0.1050(3) 0.0703 Uani
H6H H 0.5956 0.6001 -0.1181 0.0840 Uiso
C11H C 0.5007(4) 0.6029(4) -0.0520(3) 0.0653 Uani
C12H C 0.4362(5) 0.6511(4) -0.0304(4) 0.0793 Uani
H7H H 0.4051 0.6348 0.0084 0.0950 Uiso
C13H C 0.4161(5) 0.7241(4) -0.0649(3) 0.0737 Uani
H8H H 0.3707 0.7560 -0.0504 0.0890 Uiso
C14H C 0.5210(6) 0.5208(5) -0.0192(4) 0.0857 Uani
H9H H 0.5733 0.4990 -0.0302 0.1020 Uiso
loop_
_atom_site_aniso_label
_atom_site_aniso_U_11
_atom_site_aniso_U_22
_atom_site_aniso_U_33
_atom_site_aniso_U_23
_atom_site_aniso_U_13
_atom_site_aniso_U_12
Zn1 0.0468(5) 0.0468(5) 0.0657(8) 0.0106(3) -0.0106(3) -0.0042(4)
N1 0.050(3) 0.050(3) 0.059(3) 0.010(2) -0.010(2) -0.004(2)
O1 0.097(3) 0.054(3) 0.074(3) 0.012(2) -0.015(3) -0.014(2)
O2 0.082(3) 0.059(3) 0.099(4) 0.006(3) -0.008(3) 0.026(3)
C1 0.045(3) 0.046(3) 0.051(3) 0.007(2) -0.009(3) 0.003(3)
C2 0.047(3) 0.054(3) 0.055(3) 0.006(3) -0.006(3) -0.002(3)
C3 0.054(4) 0.075(4) 0.071(4) 0.004(3) 0.002(3) -0.002(3)
C4 0.070(5) 0.068(4) 0.077(4) -0.007(3) 0.007(4) -0.003(3)
C5 0.069(4) 0.055(4) 0.070(4) -0.004(3) -0.003(3) -0.004(3)
C6 0.053(3) 0.055(4) 0.064(4) 0.007(3) -0.007(3) -0.006(3)
C7 0.075(5) 0.056(4) 0.058(4) -0.002(3) -0.023(3) -0.010(3)
C8 0.075(4) 0.038(3) 0.056(3) -0.001(3) -0.024(3) -0.001(3)
C9 0.082(4) 0.057(4) 0.056(3) 0.006(3) -0.005(3) -0.007(3)
C10 0.083(5) 0.063(4) 0.065(4) 0.001(3) -0.002(4) 0.016(3)
C11 0.095(5) 0.039(3) 0.062(4) -0.006(3) -0.026(4) 0.011(3)
C12 0.106(6) 0.067(5) 0.065(4) 0.011(4) 0.008(4) -0.017(4)
C13 0.082(5) 0.060(4) 0.079(4) 0.008(3) 0.010(4) 0.011(3)
C14 0.109(7) 0.073(5) 0.075(5) 0.007(4) -0.019(4) -0.007(4)
Zn1H 0.0468 0.0468 0.0657 0.0106 -0.0106 -0.0042
N1F 0.05 0.05 0.059 0.01 -0.01 -0.004
O1H 0.097 0.054 0.074 0.012 -0.015 -0.014
O1F 0.054 0.097 0.074 0.015 -0.012 -0.014
O2H 0.082 0.059 0.099 0.006 -0.008 0.026
O2F 0.059 0.082 0.099 0.008 -0.006 0.026
C1F 0.046 0.045 0.051 0.009 -0.007 0.003
C2F 0.054 0.047 0.055 0.006 -0.006 -0.002
C3F 0.075 0.054 0.071 -0.002 -0.004 -0.002
C4F 0.068 0.07 0.077 -0.007 0.007 -0.003
C5F 0.055 0.069 0.07 0.003 0.004 -0.004
C6F 0.055 0.053 0.064 0.007 -0.007 -0.006
C7H 0.075 0.056 0.058 -0.002 -0.023 -0.01
C8H 0.075 0.038 0.056 -0.001 -0.024 -0.001
C9H 0.082 0.057 0.056 0.006 -0.005 -0.007
C10H 0.083 0.063 0.065 0.001 -0.002 0.016
C11H 0.095 0.039 0.062 -0.006 -0.026 0.011
C12H 0.106 0.067 0.065 0.011 0.008 -0.017
C13H 0.082 0.06 0.079 0.008 0.01 0.011
C14H 0.109 0.073 0.075 0.007 -0.019 -0.007
loop_
_geom_bond_atom_site_label_1
_geom_bond_atom_site_label_2
_geom_bond_site_symmetry_1
_geom_bond_site_symmetry_2
Zn1 N1 1_555 1_555
N1 C1 1_555 1_555
O1 Zn1 1_555 1_555
O2 Zn1 1_555 1_555
C1 C2 1_555 1_555
C2 C3 1_555 1_555
C3 H1 1_555 1_555
C4 C3 1_555 1_555
H2 C4 1_555 1_555
C5 N1 1_555 1_555
H3 C5 1_555 1_555
C6 C2 1_555 1_555
H4 C6 1_555 1_555
C7 O1 1_555 1_555
C8 C7 1_555 1_555
C9 C8 1_555 1_555
H5 C9 1_555 1_555
C10 C9 1_555 1_555
H6 C10 1_555 1_555
C11 C10 1_555 1_555
C12 C11 1_555 1_555
H7 C12 1_555 1_555
C13 C8 1_555 1_555
H8 C13 1_555 1_555
C14 C11 1_555 1_555
H9 C14 1_555 1_555
Zn1H O1H 1_555 1_555
N1F Zn1 1_555 1_555
O1H C7H 1_555 1_555
O1F Zn1 1_555 1_555
O2H Zn1H 1_555 1_555
O2F Zn1 1_555 1_555
C1F C1 1_555 1_555
C2F C1F 1_555 1_555
C3F C2F 1_555 1_555
H1F C3F 1_555 1_555
C4F C3F 1_555 1_555
H2F C4F 1_555 1_555
C5F N1F 1_555 1_555
H3F C5F 1_555 1_555
C6F C6 1_555 1_555
H4F C6F 1_555 1_555
C7H O2H 1_555 1_555
C8H C7H 1_555 1_555
C9H C8H 1_555 1_555
H5H C9H 1_555 1_555
C10H C9H 1_555 1_555
H6H C10H 1_555 1_555
C11H C10H 1_555 1_555
C12H C11H 1_555 1_555
H7H C12H 1_555 1_555
C13H C8H 1_555 1_555
H8H C13H 1_555 1_555
C14H C14 1_555 1_555
H9H C14H 1_555 1_555
O2 C7 1_555 1_555
C4 C5 1_555 1_555
C12 C13 1_555 1_555
N1F C1F 1_555 1_555
C2F C6F 1_555 1_555
C4F C5F 1_555 1_555
C11H C14H 1_555 1_555
C12H C13H 1_555 1_555

#END
