
#######################################################################
#
#                 Cambridge Crystallographic Data Centre
#                                CCDC 
#
#######################################################################
#
# If this CIF has been generated from an entry in the Cambridge 
# Structural Database, then it will include bibliographic, chemical, 
# crystal, experimental, refinement or atomic coordinate data resulting 
# from the CCDC's data processing and validation procedures.
#
#######################################################################

data_FECXES
_chemical_formula_moiety         '(C37 H28 Cu4 O24)n,31n(H2 O1)'
_chemical_name_systematic        
'catena-((\m~16~-tetrakis((3,5-Dicarboxylatophenoxy)methyl)methane)-tetra-aqua-tetra-copper hentriacontahydrate)'
_symmetry_cell_setting           orthorhombic
_symmetry_space_group_name_H-M   'P b c m'
_symmetry_Int_Tables_number      57
_space_group_name_Hall           '-P 2c 2b'
loop_
_symmetry_equiv_pos_site_id
_symmetry_equiv_pos_as_xyz
1 x,y,z
2 -x,-y,1/2+z
3 x,1/2-y,-z
4 -x,1/2+y,1/2-z
5 -x,-y,-z
6 x,y,1/2-z
7 -x,1/2+y,z
8 x,1/2-y,1/2+z
_cell_length_a                   12.100(3)
_cell_length_b                   26.162(4)
_cell_length_c                   26.162(3)
_cell_angle_alpha                90
_cell_angle_beta                 90
_cell_angle_gamma                90
_cell_volume                     8281.85
_exptl_crystal_colour            blue
_exptl_crystal_description       block
_cell_formula_units_Z            4
loop_
_atom_site_label
_atom_site_type_symbol
_atom_site_fract_x
_atom_site_fract_y
_atom_site_fract_z
C1 C 0.2067(2) 0.33044(11) 0.13129(10)
C2 C 0.1549(3) 0.37339(10) 0.11275(11)
H1 H 0.0979 0.3885 0.1312
C3 C 0.1883(2) 0.39409(10) 0.06626(11)
C4 C 0.2762(2) 0.37244(11) 0.04123(11)
H2 H 0.3006 0.3872 0.0109
C5 C 0.3296(2) 0.32962(11) 0.05944(11)
C6 C 0.2958(3) 0.30822(12) 0.10577(11)
H3 H 0.3317 0.2799 0.1193
C7 C 0.1650(3) 0.30648(11) 0.17897(11)
C8 C 0.1228(2) 0.43720(9) 0.04360(9)
C9 C 0.4676(2) 0.26676(12) 0.04391(12)
H4 H 0.4159 0.2397 0.0522
H5 H 0.5119 0.2738 0.0740
C10 C 0.5419(3) 0.2500 0.0000
C11 C 0.6143(3) 0.29500(12) -0.01562(12)
H6 H 0.5691 0.3245 -0.0239
H7 H 0.6642 0.3042 0.0119
C12 C 0.7584(3) 0.30698(12) -0.07668(13)
C13 C 0.7925(2) 0.35316(10) -0.05600(11)
H8 H 0.7543 0.3670 -0.0284
C14 C 0.8829(2) 0.37903(11) -0.07591(11)
C15 C 0.9385(2) 0.35809(10) -0.11740(10)
H9 H 0.9996 0.3748 -0.1310
C16 C 0.9034(2) 0.31245(10) -0.13861(11)
C17 C 0.8129(2) 0.28764(11) -0.11815(11)
H10 H 0.7886 0.2573 -0.1328
C18 C 0.9217(2) 0.42566(10) -0.05009(10)
C19 C 0.9636(2) 0.28885(10) -0.18116(10)
Cu1 Cu -0.01028(4) 0.295070(17) 0.2500
Cu2 Cu 0.14406(4) 0.223900(17) 0.2500
Cu3 Cu -0.07621(3) 0.006070(13) -0.035570(11)
O1 O 0.07820(16) 0.32617(7) 0.19792(7)
O2 O 0.21004(17) 0.26637(8) 0.19590(8)
O3 O 0.03340(15) 0.44732(7) 0.06433(7)
O4 O 0.16248(14) 0.45716(7) 0.00378(7)
O5 O 0.41002(17) 0.31052(8) 0.02963(8)
O6 O 0.67465(18) 0.27872(8) -0.05925(8)
O7 O 0.87489(17) 0.43890(7) -0.00994(8)
O8 O 1.00531(16) 0.44811(7) -0.06948(7)
O9 O 1.05168(17) 0.30870(7) -0.19733(7)
O10 O 0.92330(17) 0.24748(8) -0.19821(8)
O11 O -0.1380(3) 0.35190(12) 0.2500
O12 O 0.2756(2) 0.16873(10) 0.2500
O13 O -0.19851(15) 0.02116(7) -0.09392(7)
H15 H -0.2641 0.0345 -0.0782
H16 H -0.2158 -0.0102 -0.1112
C1B C 0.2067(2) 0.16956(11) -0.13129(10)
C2B C 0.1549(3) 0.12661(10) -0.11275(11)
H1B H 0.0979 0.1115 -0.1312
C3B C 0.1883(2) 0.10591(10) -0.06626(11)
C4B C 0.2762(2) 0.12756(11) -0.04123(11)
H2B H 0.3006 0.1128 -0.0109
C5B C 0.3296(2) 0.17038(11) -0.05944(11)
C6B C 0.2958(3) 0.19178(12) -0.10577(11)
H3B H 0.3317 0.2201 -0.1193
C7B C 0.1650(3) 0.19352(11) -0.17897(11)
C8B C 0.1228(2) 0.06280(9) -0.04360(9)
C9B C 0.4676(2) 0.23324(12) -0.04391(12)
H4B H 0.4159 0.2603 -0.0522
H5B H 0.5119 0.2262 -0.0740
C11B C 0.6143(3) 0.20500(12) 0.01562(12)
H6B H 0.5691 0.1755 0.0239
H7B H 0.6642 0.1958 -0.0119
C12B C 0.7584(3) 0.19302(12) 0.07668(13)
C13B C 0.7925(2) 0.14684(10) 0.05600(11)
H8B H 0.7543 0.1330 0.0284
C14B C 0.8829(2) 0.12097(11) 0.07591(11)
C15B C 0.9385(2) 0.14191(10) 0.11740(10)
H9B H 0.9996 0.1252 0.1310
C16B C 0.9034(2) 0.18755(10) 0.13861(11)
C17B C 0.8129(2) 0.21236(11) 0.11815(11)
H10B H 0.7886 0.2427 0.1328
C18B C 0.9217(2) 0.07434(10) 0.05009(10)
C19B C 0.9636(2) 0.21115(10) 0.18116(10)
Cu1B Cu 0.98972(4) 0.204930(17) -0.2500
Cu1B_2 Cu -0.01028(4) 0.204930(17) -0.2500
Cu1_2 Cu 0.98972(4) 0.295070(17) 0.2500
Cu2B Cu 1.14406(4) 0.276100(17) -0.2500
Cu2B_2 Cu 0.14406(4) 0.276100(17) -0.2500
Cu2_2 Cu 1.14406(4) 0.223900(17) 0.2500
Cu3B Cu -0.07621(3) 0.493930(13) 0.035570(11)
Cu3F Cu 0.07621(3) 0.506070(13) -0.035570(11)
Cu3B_2 Cu 0.92379(3) 0.493930(13) 0.035570(11)
Cu3F_2 Cu 1.07621(3) 0.506070(13) -0.035570(11)
Cu3D Cu 0.07621(3) -0.006070(13) 0.035570(11)
Cu3_2 Cu 0.92379(3) 0.006070(13) -0.035570(11)
Cu3D_2 Cu 1.07621(3) -0.006070(13) 0.035570(11)
O1B O 0.07820(16) 0.17383(7) -0.19792(7)
O1E O 0.07820(16) 0.32617(7) 0.30208(7)
O2B O 0.21004(17) 0.23363(8) -0.19590(8)
O2E O 0.21004(17) 0.26637(8) 0.30410(8)
O3B O 0.03340(15) 0.05268(7) -0.06433(7)
O3B_2 O 1.03340(15) 0.05268(7) -0.06433(7)
O4B O 0.16248(14) 0.04284(7) -0.00378(7)
O4F O -0.16248(14) -0.04284(7) 0.00378(7)
O4F_2 O 0.83752(14) -0.04284(7) 0.00378(7)
O5B O 0.41002(17) 0.18948(8) -0.02963(8)
O6B O 0.67465(18) 0.22128(8) 0.05925(8)
O7B O 0.87489(17) 0.06110(7) 0.00994(8)
O7B_2 O -0.12511(17) 0.06110(7) 0.00994(8)
O8B O 1.00531(16) 0.05189(7) 0.06948(7)
O8F O -0.00531(16) -0.05189(7) -0.06948(7)
O8F_2 O 0.99469(16) -0.05189(7) -0.06948(7)
O9B O 1.05168(17) 0.19130(7) 0.19733(7)
O9B_2 O 0.05168(17) 0.19130(7) 0.19733(7)
O9G O 0.05168(17) 0.19130(7) 0.30267(7)
O10B O 0.92330(17) 0.25252(8) 0.19821(8)
O10B_2 O -0.07670(17) 0.25252(8) 0.19821(8)
O10G O -0.07670(17) 0.25252(8) 0.30179(8)
O13_2 O 0.80149(15) 0.02116(7) -0.09392(7)
H15_2 H 0.7359 0.0345 -0.0782
H16_2 H 0.7842 -0.0102 -0.1112
H11? H -0.1211 0.3776 0.2250
H12? H -0.1423 0.3674 0.2832
H13? H 0.2591 0.1426 0.2746
H14? H 0.2814 0.1537 0.2167
loop_
_geom_bond_atom_site_label_1
_geom_bond_atom_site_label_2
_geom_bond_site_symmetry_1
_geom_bond_site_symmetry_2
C1 C2 1_555 1_555
C2 H1 1_555 1_555
C3 C2 1_555 1_555
C4 C3 1_555 1_555
H2 C4 1_555 1_555
C5 C4 1_555 1_555
C6 C1 1_555 1_555
H3 C6 1_555 1_555
C7 C1 1_555 1_555
C8 C3 1_555 1_555
C9 H4 1_555 1_555
H5 C9 1_555 1_555
C10 C9 1_555 1_555
C11 C10 1_555 1_555
H6 C11 1_555 1_555
H7 C11 1_555 1_555
C12 C13 1_555 1_555
C13 H8 1_555 1_555
C14 C13 1_555 1_555
C15 C14 1_555 1_555
H9 C15 1_555 1_555
C16 C15 1_555 1_555
C17 C12 1_555 1_555
H10 C17 1_555 1_555
C18 C14 1_555 1_555
C19 C16 1_555 1_555
Cu1 O1 1_555 1_555
Cu2 O2 1_555 1_555
Cu3 O13 1_555 1_555
O1 C7 1_555 1_555
O2 C7 1_555 1_555
O3 C8 1_555 1_555
O4 C8 1_555 1_555
O5 C5 1_555 1_555
O6 C11 1_555 1_555
O7 C18 1_555 1_555
O8 C18 1_555 1_555
O9 C19 1_555 1_555
O10 C19 1_555 1_555
O11 Cu1 1_555 1_555
O12 Cu2 1_555 1_555
O13 H15 1_555 1_555
H16 O13 1_555 1_555
C1B C2B 1_555 1_555
C2B H1B 1_555 1_555
C3B C2B 1_555 1_555
C4B C3B 1_555 1_555
H2B C4B 1_555 1_555
C5B C4B 1_555 1_555
C6B C1B 1_555 1_555
H3B C6B 1_555 1_555
C7B C1B 1_555 1_555
C8B C3B 1_555 1_555
C9B C10 1_555 1_555
H4B C9B 1_555 1_555
H5B C9B 1_555 1_555
C11B C10 1_555 1_555
H6B C11B 1_555 1_555
H7B C11B 1_555 1_555
C12B C13B 1_555 1_555
C13B H8B 1_555 1_555
C14B C13B 1_555 1_555
C15B C14B 1_555 1_555
H9B C15B 1_555 1_555
C16B C15B 1_555 1_555
C17B C12B 1_555 1_555
H10B C17B 1_555 1_555
C18B C14B 1_555 1_555
C19B C16B 1_555 1_555
Cu1B O10 1_555 1_555
Cu1B_2 O1B 1_555 1_555
Cu1_2 O10B 1_555 1_555
Cu2B O9 1_555 1_555
Cu2B_2 O2B 1_555 1_555
Cu2_2 O9B 1_555 1_555
Cu3B O3 1_555 1_555
Cu3F O4 1_555 1_555
Cu3B_2 O7 1_555 1_555
Cu3F_2 O8 1_555 1_555
Cu3D O4B 1_555 1_555
Cu3_2 O3B_2 1_555 1_555
Cu3D_2 O8B 1_555 1_555
O1B C7B 1_555 1_555
O1E Cu1 1_555 1_555
O2B C7B 1_555 1_555
O2E Cu2 1_555 1_555
O3B Cu3 1_555 1_555
O4B C8B 1_555 1_555
O4F Cu3 1_555 1_555
O4F_2 Cu3_2 1_555 1_555
O5B C5B 1_555 1_555
O6B C11B 1_555 1_555
O7B C18B 1_555 1_555
O7B_2 Cu3 1_555 1_555
O8B C18B 1_555 1_555
O8F Cu3 1_555 1_555
O8F_2 Cu3_2 1_555 1_555
O9B C19B 1_555 1_555
O9B_2 Cu2 1_555 1_555
O9G Cu2 1_555 1_555
O10B C19B 1_555 1_555
O10B_2 Cu1 1_555 1_555
O10G Cu1 1_555 1_555
O13_2 Cu3_2 1_555 1_555
H15_2 O13_2 1_555 1_555
H16_2 O13_2 1_555 1_555
C5 C6 1_555 1_555
C9 O5 1_555 1_555
C12 O6 1_555 1_555
C16 C17 1_555 1_555
C5B C6B 1_555 1_555
C8B O3B 1_555 1_555
C9B O5B 1_555 1_555
C12B O6B 1_555 1_555
C16B C17B 1_555 1_555
Cu3_2 O7B 1_555 1_555

#END
