
#######################################################################
#
#                 Cambridge Crystallographic Data Centre
#                                CCDC 
#
#######################################################################
#
# If this CIF has been generated from an entry in the Cambridge 
# Structural Database, then it will include bibliographic, chemical, 
# crystal, experimental, refinement or atomic coordinate data resulting 
# from the CCDC's data processing and validation procedures.
#
#######################################################################

data_NIFFEP
_chemical_name_common            DUT-8(Zn)
_chemical_formula_moiety         '(C60 H48 N4 O16 Zn4)n,10n(C3 H7 N1 O1)'
_chemical_name_systematic        
'catena-[tetrakis(\m~4~-Naphthalene-2,6-dicarboxylato)-bis(\m~2~-1,4-diazabicyclo[2.2.2]octane)-tetra-zinc N,N-dimethylformamide solvate]'
_symmetry_cell_setting           monoclinic
_symmetry_space_group_name_H-M   'P 2/n'
_symmetry_Int_Tables_number      13
_space_group_name_Hall           '-P 2yac'
loop_
_symmetry_equiv_pos_site_id
_symmetry_equiv_pos_as_xyz
1 x,y,z
2 1/2-x,y,1/2-z
3 -x,-y,-z
4 1/2+x,-y,1/2+z
_cell_length_a                   18.5327(14)
_cell_length_b                   19.3350(5)
_cell_length_c                   18.3808(13)
_cell_angle_alpha                90
_cell_angle_beta                 90.053(3)
_cell_angle_gamma                90
_cell_volume                     6586.38
_exptl_crystal_colour            colorless
_cell_formula_units_Z            2
loop_
_atom_site_label
_atom_site_type_symbol
_atom_site_fract_x
_atom_site_fract_y
_atom_site_fract_z
_atom_site_U_iso_or_equiv
_atom_site_thermal_displace_type
C37 C 0.41368 0.73947 0.71767 0.0127 Uiso
O9 O 0.44715 0.80911 0.70210 0.0127 Uiso
N5 N 0.33605 0.72586 0.69721 0.0127 Uiso
C38 C 0.29378 0.78026 0.65648 0.0127 Uiso
C39 C 0.30437 0.65464 0.70791 0.0127 Uiso
H13 H 0.26233 0.81333 0.69684 0.0127 Uiso
H14 H 0.25461 0.75408 0.61734 0.0127 Uiso
H15 H 0.33261 0.81444 0.62455 0.0127 Uiso
H16 H 0.26402 0.64345 0.66255 0.0127 Uiso
H17 H 0.27576 0.65223 0.76273 0.0127 Uiso
H18 H 0.34940 0.61449 0.70648 0.0127 Uiso
H19 H 0.44702 0.69716 0.74483 0.0127 Uiso
C40 C 0.75879 -0.06204 0.44785 0.0127 Uiso
O10 O 0.72924 -0.10452 0.50999 0.0127 Uiso
N6 N 0.71788 0.00053 0.42110 0.0127 Uiso
C41 C 0.65023 0.02327 0.46006 0.0127 Uiso
C42 C 0.75016 0.04581 0.36265 0.0127 Uiso
H20 H 0.60109 -0.00025 0.43211 0.0127 Uiso
H21 H 0.64617 0.08209 0.45849 0.0127 Uiso
H22 H 0.65245 0.00507 0.51901 0.0127 Uiso
H23 H 0.73424 0.10194 0.37280 0.0127 Uiso
H24 H 0.72914 0.02876 0.30717 0.0127 Uiso
H25 H 0.81145 0.04093 0.36388 0.0127 Uiso
H26 H 0.81200 -0.07717 0.42117 0.0127 Uiso
C43 C 1.00784 -0.14477 0.19813 0.0127 Uiso
O11 O 0.98651 -0.21641 0.22276 0.0127 Uiso
N7 N 0.97304 -0.08208 0.23227 0.0127 Uiso
C44 C 0.92089 -0.09117 0.29459 0.0127 Uiso
C45 C 0.99830 -0.01055 0.21139 0.0127 Uiso
H27 H 0.86338 -0.09296 0.27261 0.0127 Uiso
H28 H 0.92656 -0.04592 0.33395 0.0127 Uiso
H29 H 0.93341 -0.14158 0.32421 0.0127 Uiso
H30 H 0.99482 0.02503 0.26073 0.0127 Uiso
H31 H 0.96258 0.01053 0.16600 0.0127 Uiso
H32 H 1.05655 -0.01320 0.19173 0.0127 Uiso
H33 H 1.05023 -0.13801 0.15380 0.0127 Uiso
C46 C 0.38483 0.40771 0.78880 0.0127 Uiso
O12 O 0.40043 0.34325 0.74518 0.0127 Uiso
N8 N 0.43075 0.47147 0.77859 0.0127 Uiso
C47 C 0.48877 0.47212 0.72098 0.0127 Uiso
C48 C 0.41174 0.53736 0.81826 0.0127 Uiso
H34 H 0.54255 0.45668 0.74638 0.0127 Uiso
H35 H 0.49337 0.52628 0.69691 0.0127 Uiso
H36 H 0.47411 0.43382 0.67619 0.0127 Uiso
H37 H 0.42545 0.58371 0.78251 0.0127 Uiso
H38 H 0.44386 0.54045 0.87109 0.0127 Uiso
H39 H 0.35157 0.53768 0.83110 0.0127 Uiso
H40 H 0.33838 0.40826 0.82941 0.0127 Uiso
C49 C 0.28881 0.58349 -0.04012 0.0127 Uiso
O13 O 0.26174 0.65680 -0.04770 0.0127 Uiso
N9 N 0.24452 0.52417 -0.06945 0.0127 Uiso
C50 C 0.17584 0.53879 -0.11094 0.0127 Uiso
C51 C 0.27416 0.45148 -0.06662 0.0127 Uiso
H41 H 0.12795 0.53661 -0.07214 0.0127 Uiso
H42 H 0.16862 0.49840 -0.15555 0.0127 Uiso
H43 H 0.17919 0.59245 -0.13641 0.0127 Uiso
H44 H 0.25528 0.42158 -0.11659 0.0127 Uiso
H45 H 0.25394 0.42456 -0.01536 0.0127 Uiso
H46 H 0.33564 0.45343 -0.06579 0.0127 Uiso
H47 H 0.34269 0.57293 -0.01229 0.0127 Uiso
Zn1 Zn 0.25000 0.34450(16) 0.25000 0.0127 Uiso
Zn2 Zn 0.25000 0.21356(16) 0.25000 0.0127 Uiso
N1 N 0.25197 0.46873 0.24881 0.0127 Uiso
C1 C 0.50950 0.28069 0.51721 0.0127 Uiso
C2 C 0.56543 0.28137 0.56764 0.0127 Uiso
C3 C 0.60235 0.22067 0.58366 0.0127 Uiso
C4 C 0.58334 0.15928 0.54927 0.0127 Uiso
C5 C 0.52739 0.15860 0.49885 0.0127 Uiso
C6 C 0.49045 0.21930 0.48285 0.0127 Uiso
C7 C 0.66431 0.22141 0.63955 0.0127 Uiso
O1 O 0.68072 0.27441 0.66925 0.0127 Uiso
O2 O 0.69619 0.16901 0.65337 0.0127 Uiso
H1 H 0.57841 0.32332 0.59116 0.0127 Uiso
H2 H 0.60856 0.11780 0.56023 0.0127 Uiso
H3 H 0.51439 0.11665 0.47535 0.0127 Uiso
C8 C 0.43450 0.21861 0.43244 0.0127 Uiso
C9 C 0.39763 0.27933 0.41636 0.0127 Uiso
C10 C 0.41671 0.34073 0.45068 0.0127 Uiso
C11 C 0.47265 0.34141 0.50110 0.0127 Uiso
C12 C 0.33563 0.27857 0.36052 0.0127 Uiso
O3 O 0.31915 0.22555 0.33090 0.0127 Uiso
O4 O 0.30381 0.33099 0.34663 0.0127 Uiso
H4 H 0.42144 0.17664 0.40900 0.0127 Uiso
H5 H 0.39151 0.38223 0.43969 0.0127 Uiso
H6 H 0.48569 0.38338 0.52456 0.0127 Uiso
Zn3 Zn -0.25000 0.14985(14) 0.75000 0.0127 Uiso
Zn4 Zn -0.25000 0.28338(15) 0.75000 0.0127 Uiso
C13 C 0.01252 0.21888 0.48593 0.0127 Uiso
C14 C 0.06401 0.21888 0.43100 0.0127 Uiso
C15 C 0.09047 0.28114 0.40421 0.0127 Uiso
C16 C 0.06543 0.34338 0.43237 0.0127 Uiso
C17 C 0.01395 0.34338 0.48732 0.0127 Uiso
C18 C -0.01248 0.28112 0.51412 0.0127 Uiso
C19 C 0.14753 0.28114 0.34336 0.0127 Uiso
O5 O 0.16915 0.22740 0.31906 0.0127 Uiso
O6 O 0.17036 0.33489 0.32023 0.0127 Uiso
H7 H 0.08114 0.17634 0.41177 0.0127 Uiso
H8 H 0.08352 0.38593 0.41407 0.0127 Uiso
H9 H -0.00315 0.38592 0.50656 0.0127 Uiso
C20 C -0.06395 0.28112 0.56908 0.0127 Uiso
C21 C -0.09047 0.21886 0.59580 0.0127 Uiso
C22 C -0.06551 0.15662 0.56758 0.0127 Uiso
C23 C -0.01402 0.15662 0.51264 0.0127 Uiso
C24 C -0.14748 0.21885 0.65670 0.0127 Uiso
O7 O -0.16903 0.27260 0.68107 0.0127 Uiso
O8 O -0.17038 0.16511 0.67977 0.0127 Uiso
H10 H -0.08100 0.32366 0.58838 0.0127 Uiso
H11 H -0.08362 0.11407 0.58586 0.0127 Uiso
H12 H 0.00305 0.11408 0.49336 0.0127 Uiso
N2 N 0.24946 -0.02755 0.24728 0.0127 Uiso
N3 N 0.24917 0.10078 0.25240 0.0127 Uiso
C25 C 0.31675 0.07714 0.22317 0.0127 Uiso
C26 C 0.31693 -0.00157 0.22003 0.0127 Uiso
C27 C 0.24148 0.07160 0.32394 0.0127 Uiso
C28 C 0.24165 -0.00363 0.32093 0.0127 Uiso
C29 C 0.19245 0.07305 0.20763 0.0127 Uiso
C30 C 0.19262 0.00308 0.20483 0.0127 Uiso
N4 N 0.24671 0.59704 0.25072 0.0127 Uiso
C31 C 0.31798 0.57515 0.23014 0.0127 Uiso
C32 C 0.32121 0.49645 0.22897 0.0127 Uiso
C33 C 0.23183 0.56893 0.32157 0.0127 Uiso
C34 C 0.23490 0.49371 0.32044 0.0127 Uiso
C35 C 0.19651 0.56660 0.20034 0.0127 Uiso
C36 C 0.19938 0.49664 0.19929 0.0127 Uiso
N1A N 0.24803 0.46873 0.25119 0.0127 Uiso
N4A N 0.25329 0.59704 0.24928 0.0127 Uiso
C31A C 0.18202 0.57515 0.26986 0.0127 Uiso
C32A C 0.17879 0.49645 0.27103 0.0127 Uiso
C33A C 0.26817 0.56893 0.17843 0.0127 Uiso
C34A C 0.26510 0.49371 0.17956 0.0127 Uiso
C35A C 0.30349 0.56660 0.29966 0.0127 Uiso
C36A C 0.30062 0.49664 0.30071 0.0127 Uiso
N2A N 0.25054 -0.02755 0.25272 0.0127 Uiso
N3A N 0.25083 0.10078 0.24760 0.0127 Uiso
C25A C 0.18325 0.07714 0.27683 0.0127 Uiso
C26A C 0.18307 -0.00157 0.27997 0.0127 Uiso
C27A C 0.25852 0.07160 0.17606 0.0127 Uiso
C28A C 0.25835 -0.00363 0.17907 0.0127 Uiso
C29A C 0.30755 0.07305 0.29237 0.0127 Uiso
C30A C 0.30738 0.00308 0.29517 0.0127 Uiso
C13A C -0.51252 0.21888 1.01407 0.0127 Uiso
C14A C -0.56401 0.21888 1.06900 0.0127 Uiso
C15A C -0.59047 0.28114 1.09579 0.0127 Uiso
C16A C -0.56543 0.34338 1.06763 0.0127 Uiso
C17A C -0.51395 0.34338 1.01268 0.0127 Uiso
C18A C -0.48752 0.28112 0.98588 0.0127 Uiso
C19A C -0.64753 0.28114 1.15664 0.0127 Uiso
O5A O -0.66915 0.22740 1.18094 0.0127 Uiso
O6A O -0.67036 0.33489 1.17977 0.0127 Uiso
H7A H -0.58114 0.17634 1.08823 0.0127 Uiso
H8A H -0.58352 0.38593 1.08593 0.0127 Uiso
H9A H -0.49685 0.38592 0.99344 0.0127 Uiso
C20A C -0.43605 0.28112 0.93092 0.0127 Uiso
C21A C -0.40953 0.21886 0.90420 0.0127 Uiso
C22A C -0.43449 0.15662 0.93242 0.0127 Uiso
C23A C -0.48598 0.15662 0.98736 0.0127 Uiso
C24A C -0.35252 0.21885 0.84330 0.0127 Uiso
O7A O -0.33097 0.27260 0.81893 0.0127 Uiso
O8A O -0.32962 0.16511 0.82023 0.0127 Uiso
H10A H -0.41900 0.32366 0.91162 0.0127 Uiso
H11A H -0.41638 0.11407 0.91414 0.0127 Uiso
H12A H -0.50305 0.11408 1.00664 0.0127 Uiso
C1A C -0.00950 0.28069 -0.01721 0.0127 Uiso
C2A C -0.06543 0.28137 -0.06764 0.0127 Uiso
C3A C -0.10235 0.22067 -0.08366 0.0127 Uiso
C4A C -0.08334 0.15928 -0.04927 0.0127 Uiso
C5A C -0.02739 0.15860 0.00115 0.0127 Uiso
C6A C 0.00955 0.21930 0.01715 0.0127 Uiso
C7A C -0.16431 0.22141 -0.13955 0.0127 Uiso
O1A O -0.18072 0.27441 -0.16925 0.0127 Uiso
O2A O -0.19619 0.16901 -0.15337 0.0127 Uiso
H1A H -0.07841 0.32332 -0.09116 0.0127 Uiso
H2A H -0.10856 0.11780 -0.06023 0.0127 Uiso
H3A H -0.01439 0.11665 0.02465 0.0127 Uiso
C8A C 0.06550 0.21861 0.06756 0.0127 Uiso
C9A C 0.10237 0.27933 0.08364 0.0127 Uiso
C10A C 0.08329 0.34073 0.04932 0.0127 Uiso
C11A C 0.02735 0.34141 -0.00110 0.0127 Uiso
C12A C 0.16437 0.27857 0.13948 0.0127 Uiso
O3A O 0.18085 0.22555 0.16910 0.0127 Uiso
O4A O 0.19619 0.33099 0.15337 0.0127 Uiso
H4A H 0.07856 0.17664 0.09100 0.0127 Uiso
H5A H 0.10849 0.38223 0.06031 0.0127 Uiso
H6A H 0.01431 0.38338 -0.02456 0.0127 Uiso
Zn1_2 Zn -0.75000 0.34450(16) 1.25000 0.0127 Uiso
Zn2_2 Zn -0.75000 0.21356(16) 1.25000 0.0127 Uiso
O1_2 O -0.31928 0.27441 0.66925 0.0127 Uiso
O1A_2 O -0.18072 0.27441 0.83075 0.0127 Uiso
O2_2 O -0.30381 0.16901 0.65337 0.0127 Uiso
O2A_2 O -0.19619 0.16901 0.84663 0.0127 Uiso
Zn3_2 Zn -0.25000 0.14985(14) -0.25000 0.0127 Uiso
Zn3_3 Zn 0.75000 0.14985(14) 0.75000 0.0127 Uiso
Zn3B Zn 0.25000 -0.14985(14) 0.25000 0.0127 Uiso
Zn4_2 Zn -0.25000 0.28338(15) -0.25000 0.0127 Uiso
Zn4_3 Zn 0.75000 0.28338(15) 0.75000 0.0127 Uiso
Zn4B Zn 0.25000 0.71662(15) 0.25000 0.0127 Uiso
O5A_2 O 0.33085 0.22740 0.18094 0.0127 Uiso
O6A_2 O 0.32964 0.33489 0.17977 0.0127 Uiso
N2B N -0.24946 0.02755 0.75272 0.0127 Uiso
N2C N -0.25054 0.02755 0.74728 0.0127 Uiso
N4B N -0.24671 0.40296 0.74928 0.0127 Uiso
N4C N -0.25329 0.40296 0.75072 0.0127 Uiso
H48? H 0.36119 0.09507 0.25930 0.0127 Uiso
H49? H 0.32318 0.09831 0.16724 0.0127 Uiso
H50? H 0.36146 -0.02187 0.25464 0.0127 Uiso
H51? H 0.32345 -0.01863 0.16257 0.0127 Uiso
H52? H 0.18965 0.08977 0.34777 0.0127 Uiso
H53? H 0.28716 0.08960 0.35843 0.0127 Uiso
H54? H 0.28741 -0.02386 0.35391 0.0127 Uiso
H55? H 0.18991 -0.02369 0.34324 0.0127 Uiso
H56? H 0.19815 0.09423 0.15163 0.0127 Uiso
H57? H 0.13962 0.09131 0.22903 0.0127 Uiso
H58? H 0.13987 -0.01690 0.22471 0.0127 Uiso
H59? H 0.19841 -0.01398 0.14730 0.0127 Uiso
H60? H 0.35732 0.59523 0.27076 0.0127 Uiso
H61? H 0.33010 0.59550 0.17485 0.0127 Uiso
H62? H 0.36212 0.47830 0.26902 0.0127 Uiso
H63? H 0.33488 0.47858 0.17310 0.0127 Uiso
H64? H 0.17700 0.58578 0.33875 0.0127 Uiso
H65? H 0.27258 0.58908 0.36070 0.0127 Uiso
H66? H 0.27722 0.47564 0.35901 0.0127 Uiso
H67? H 0.18165 0.47234 0.33705 0.0127 Uiso
H68? H 0.20790 0.58693 0.14488 0.0127 Uiso
H69? H 0.14097 0.58346 0.21499 0.0127 Uiso
H70? H 0.14541 0.47527 0.21337 0.0127 Uiso
H71? H 0.21235 0.47874 0.14325 0.0127 Uiso
loop_
_geom_bond_atom_site_label_1
_geom_bond_atom_site_label_2
_geom_bond_site_symmetry_1
_geom_bond_site_symmetry_2
Zn1 N1 1_555 1_555
Zn2 O3 1_555 1_555
N1 C32 1_555 1_555
C1 C2 1_555 1_555
C2 C3 1_555 1_555
C3 C4 1_555 1_555
C4 C5 1_555 1_555
C5 C6 1_555 1_555
C6 C1 1_555 1_555
C7 C3 1_555 1_555
O1 C7 1_555 1_555
O2 C7 1_555 1_555
H1 C2 1_555 1_555
H2 C4 1_555 1_555
H3 C5 1_555 1_555
C8 C6 1_555 1_555
C9 C8 1_555 1_555
C10 C9 1_555 1_555
C11 C1 1_555 1_555
C12 C9 1_555 1_555
O3 C12 1_555 1_555
O4 Zn1 1_555 1_555
H4 C8 1_555 1_555
H5 C10 1_555 1_555
H6 C11 1_555 1_555
Zn3 O8 1_555 1_555
Zn4 O7 1_555 1_555
C13 C14 1_555 1_555
C14 C15 1_555 1_555
C15 C16 1_555 1_555
C16 C17 1_555 1_555
C17 C18 1_555 1_555
C18 C13 1_555 1_555
C19 C15 1_555 1_555
O5 Zn2 1_555 1_555
O6 Zn1 1_555 1_555
H7 C14 1_555 1_555
H8 C16 1_555 1_555
H9 C17 1_555 1_555
C20 C18 1_555 1_555
C21 C20 1_555 1_555
C22 C21 1_555 1_555
C23 C13 1_555 1_555
C24 C21 1_555 1_555
O7 C24 1_555 1_555
O8 C24 1_555 1_555
H10 C20 1_555 1_555
H11 C22 1_555 1_555
H12 C23 1_555 1_555
N2 C26 1_555 1_555
N3 Zn2 1_555 1_555
C25 N3 1_555 1_555
C26 C25 1_555 1_555
C27 N3 1_555 1_555
C28 N2 1_555 1_555
C29 N3 1_555 1_555
C30 N2 1_555 1_555
N4 C31 1_555 1_555
C31 C32 1_555 1_555
C32 N1A 1_555 1_555
C33 N4 1_555 1_555
C34 N1 1_555 1_555
C35 N4 1_555 1_555
C36 N1 1_555 1_555
C37 O9 1_555 1_555
N5 C37 1_555 1_555
C38 N5 1_555 1_555
C39 N5 1_555 1_555
H13 C38 1_555 1_555
H14 C38 1_555 1_555
H15 C38 1_555 1_555
H16 C39 1_555 1_555
H17 C39 1_555 1_555
H18 C39 1_555 1_555
H19 C37 1_555 1_555
C40 O10 1_555 1_555
N6 C40 1_555 1_555
C41 N6 1_555 1_555
C42 N6 1_555 1_555
H20 C41 1_555 1_555
H21 C41 1_555 1_555
H22 C41 1_555 1_555
H23 C42 1_555 1_555
H24 C42 1_555 1_555
H25 C42 1_555 1_555
H26 C40 1_555 1_555
C43 O11 1_555 1_555
N7 C43 1_555 1_555
C44 N7 1_555 1_555
C45 N7 1_555 1_555
H27 C44 1_555 1_555
H28 C44 1_555 1_555
H29 C44 1_555 1_555
H30 C45 1_555 1_555
H31 C45 1_555 1_555
H32 C45 1_555 1_555
H33 C43 1_555 1_555
C46 O12 1_555 1_555
N8 C46 1_555 1_555
C47 N8 1_555 1_555
C48 N8 1_555 1_555
H34 C47 1_555 1_555
H35 C47 1_555 1_555
H36 C47 1_555 1_555
H37 C48 1_555 1_555
H38 C48 1_555 1_555
H39 C48 1_555 1_555
H40 C46 1_555 1_555
C49 O13 1_555 1_555
N9 C49 1_555 1_555
C50 N9 1_555 1_555
C51 N9 1_555 1_555
H41 C50 1_555 1_555
H42 C50 1_555 1_555
H43 C50 1_555 1_555
H44 C51 1_555 1_555
H45 C51 1_555 1_555
H46 C51 1_555 1_555
H47 C49 1_555 1_555
N1A Zn1 1_555 1_555
N4A C31 1_555 1_555
C31A N4 1_555 1_555
C32A N1 1_555 1_555
C33A N4 1_555 1_555
C34A N1 1_555 1_555
C35A N4 1_555 1_555
C36A N1 1_555 1_555
N2A C26 1_555 1_555
N3A Zn2 1_555 1_555
C25A N3 1_555 1_555
C26A N2 1_555 1_555
C27A N3 1_555 1_555
C28A N2 1_555 1_555
C29A N3 1_555 1_555
C30A N2 1_555 1_555
C13A C14A 1_555 1_555
C14A C15A 1_555 1_555
C15A C16A 1_555 1_555
C16A C17A 1_555 1_555
C17A C18A 1_555 1_555
C18A C13A 1_555 1_555
C19A C15A 1_555 1_555
O5A C19A 1_555 1_555
O6A C19A 1_555 1_555
H7A C14A 1_555 1_555
H8A C16A 1_555 1_555
H9A C17A 1_555 1_555
C20A C18A 1_555 1_555
C21A C20A 1_555 1_555
C22A C21A 1_555 1_555
C23A C13A 1_555 1_555
C24A C21A 1_555 1_555
O7A Zn4 1_555 1_555
O8A Zn3 1_555 1_555
H10A C20A 1_555 1_555
H11A C22A 1_555 1_555
H12A C23A 1_555 1_555
C1A C2A 1_555 1_555
C2A C3A 1_555 1_555
C3A C4A 1_555 1_555
C4A C5A 1_555 1_555
C5A C6A 1_555 1_555
C6A C1A 1_555 1_555
C7A C3A 1_555 1_555
O1A C7A 1_555 1_555
O2A C7A 1_555 1_555
H1A C2A 1_555 1_555
H2A C4A 1_555 1_555
H3A C5A 1_555 1_555
C8A C6A 1_555 1_555
C9A C8A 1_555 1_555
C10A C9A 1_555 1_555
C11A C1A 1_555 1_555
C12A C9A 1_555 1_555
O3A Zn2 1_555 1_555
O4A Zn1 1_555 1_555
H4A C8A 1_555 1_555
H5A C10A 1_555 1_555
H6A C11A 1_555 1_555
Zn1_2 O6A 1_555 1_555
Zn2_2 O5A 1_555 1_555
O1_2 Zn4 1_555 1_555
O1A_2 Zn4 1_555 1_555
O2_2 Zn3 1_555 1_555
O2A_2 Zn3 1_555 1_555
Zn3_2 O2A 1_555 1_555
Zn3_3 O2 1_555 1_555
Zn3B N2 1_555 1_555
Zn4_2 O1A 1_555 1_555
Zn4_3 O1 1_555 1_555
Zn4B N4 1_555 1_555
O5A_2 Zn2 1_555 1_555
O6A_2 Zn1 1_555 1_555
N2B Zn3 1_555 1_555
N2C Zn3 1_555 1_555
N4B Zn4 1_555 1_555
N4C Zn4 1_555 1_555
C10 C11 1_555 1_555
C12 O4 1_555 1_555
C19 O5 1_555 1_555
C19 O6 1_555 1_555
C22 C23 1_555 1_555
C25 N3A 1_555 1_555
C25 C27A 1_555 1_555
C25 C29A 1_555 1_555
C26 C28A 1_555 1_555
C26 C30A 1_555 1_555
C27 C28 1_555 1_555
C27 N3A 1_555 1_555
C27 C25A 1_555 1_555
C27 C29A 1_555 1_555
C28 N2A 1_555 1_555
C28 C26A 1_555 1_555
C28 C30A 1_555 1_555
C29 C30 1_555 1_555
C29 N3A 1_555 1_555
C29 C25A 1_555 1_555
C29 C27A 1_555 1_555
C30 N2A 1_555 1_555
C30 C26A 1_555 1_555
C30 C28A 1_555 1_555
C31 C33A 1_555 1_555
C31 C35A 1_555 1_555
C32 C34A 1_555 1_555
C32 C36A 1_555 1_555
C33 C34 1_555 1_555
C33 N4A 1_555 1_555
C33 C31A 1_555 1_555
C33 C35A 1_555 1_555
C34 N1A 1_555 1_555
C34 C32A 1_555 1_555
C34 C36A 1_555 1_555
C35 C36 1_555 1_555
C35 N4A 1_555 1_555
C35 C31A 1_555 1_555
C35 C33A 1_555 1_555
C36 N1A 1_555 1_555
C36 C32A 1_555 1_555
C36 C34A 1_555 1_555
N1A C32A 1_555 1_555
N1A C34A 1_555 1_555
N1A C36A 1_555 1_555
N4A C31A 1_555 1_555
N4A C33A 1_555 1_555
N4A C35A 1_555 1_555
N4A Zn4B 1_555 1_555
C31A C32A 1_555 1_555
C33A C34A 1_555 1_555
C35A C36A 1_555 1_555
N2A C26A 1_555 1_555
N2A C28A 1_555 1_555
N2A C30A 1_555 1_555
N2A Zn3B 1_555 1_555
N3A C25A 1_555 1_555
N3A C27A 1_555 1_555
N3A C29A 1_555 1_555
C25A C26A 1_555 1_555
C27A C28A 1_555 1_555
C29A C30A 1_555 1_555
C22A C23A 1_555 1_555
C24A O7A 1_555 1_555
C24A O8A 1_555 1_555
C10A C11A 1_555 1_555
C12A O3A 1_555 1_555
C12A O4A 1_555 1_555

#END
