
#######################################################################
#
#                 Cambridge Crystallographic Data Centre
#                                CCDC 
#
#######################################################################
#
# If this CIF has been generated from an entry in the Cambridge 
# Structural Database, then it will include bibliographic, chemical, 
# crystal, experimental, refinement or atomic coordinate data resulting 
# from the CCDC's data processing and validation procedures.
#
#######################################################################

data_KIRFOI
_chemical_name_common            NJU-Bai10
_chemical_formula_moiety         '(C63 H39 Cu6 N3 O30)n'
_chemical_name_systematic        
'catena-(tris(\m~8~-3,5-bis(3,5-Dicarboxylatophenyl)pyridine)-hexa-aqua-hexa-copper unknown solvate)'
_symmetry_cell_setting           orthorhombic
_symmetry_space_group_name_H-M   'C m c m'
_symmetry_Int_Tables_number      63
_space_group_name_Hall           '-C 2c 2'
loop_
_symmetry_equiv_pos_site_id
_symmetry_equiv_pos_as_xyz
1 x,y,z
2 -x,-y,1/2+z
3 x,-y,-z
4 -x,y,1/2-z
5 1/2+x,1/2+y,z
6 1/2-x,1/2-y,1/2+z
7 1/2+x,1/2-y,-z
8 1/2-x,1/2+y,1/2-z
9 -x,-y,-z
10 x,y,1/2-z
11 -x,y,z
12 x,-y,1/2+z
13 1/2-x,1/2-y,-z
14 1/2+x,1/2+y,1/2-z
15 1/2-x,1/2+y,z
16 1/2+x,1/2-y,1/2+z
_cell_length_a                   25.2913(14)
_cell_length_b                   33.5090(16)
_cell_length_c                   18.6810(13)
_cell_angle_alpha                90
_cell_angle_beta                 90
_cell_angle_gamma                90
_cell_volume                     15831.9
_exptl_crystal_colour            green
_exptl_crystal_description       block
_cell_formula_units_Z            4
loop_
_atom_site_label
_atom_site_type_symbol
_atom_site_fract_x
_atom_site_fract_y
_atom_site_fract_z
C1 C 0.11844(11) 0.39503(8) 0.60593(15)
C2 C 0.13878(10) 0.35815(8) 0.58524(14)
H1 H 0.1226 0.3347 0.6005
C3 C 0.18225(10) 0.35647(9) 0.54275(14)
C4 C 0.20689(11) 0.39108(9) 0.51929(15)
H2 H 0.2364 0.3896 0.4897
C5 C 0.18696(11) 0.42826(9) 0.54050(15)
C6 C 0.14273(10) 0.42993(9) 0.58446(15)
H3 H 0.1295 0.4545 0.5994
C7 C 0.07217(11) 0.39634(9) 0.65667(15)
C8 C 0.20621(11) 0.31704(9) 0.52236(15)
C9 C 0.18644(15) 0.5000 0.5000
H4 H 0.1497 0.5000 0.5000
C10 C 0.21396(10) 0.46599(9) 0.51973(15)
C11 C 0.26847(11) 0.46644(10) 0.51976(15)
H5 H 0.2870 0.4437 0.5334
C12 C 0.30303(15) 0.25767(12) 0.7500
H6 H 0.2708 0.2442 0.7500
C13 C 0.32653(11) 0.26748(9) 0.68565(15)
C14 C 0.37542(11) 0.28635(9) 0.68553(15)
H7 H 0.3919 0.2930 0.6427
C15 C 0.39902(15) 0.29499(13) 0.7500
C16 C 0.29858(10) 0.25926(9) 0.61566(15)
C17 C 0.5000 0.29884(19) 0.7500
H8 H 0.5000 0.2711 0.7500
C18 C 0.45060(16) 0.31836(13) 0.7500
C19 C 0.45045(17) 0.35973(14) 0.7500
H9 H 0.4185 0.3735 0.7500
Cu1 Cu 0.0000 0.43593(2) 0.7500
Cu2 Cu 0.0000 0.35680(2) 0.7500
Cu3 Cu 0.288788(13) 0.268058(10) 0.464838(18)
N1 N 0.29563(12) 0.5000 0.5000
N2 N 0.5000 0.38165(17) 0.7500
O1 O 0.05503(7) 0.42924(6) 0.67648(9)
O2 O 0.05473(7) 0.36355(6) 0.67711(10)
O3 O 0.24805(7) 0.31641(6) 0.48768(10)
O4 O 0.18337(7) 0.28601(6) 0.54748(10)
O5 O 0.32108(7) 0.27125(6) 0.56085(10)
O6 O 0.25565(7) 0.24142(6) 0.61894(10)
O7 O 0.0000 0.50001(12) 0.7500
O8 O 0.0000 0.29240(12) 0.7500
O9 O 0.350(9) 0.301(6) 0.420(13)
H10 H 0.3359 0.3244 0.3989
H11 H 0.3674 0.2881 0.3773
C1B C 0.11844(11) 0.60497(8) 0.39407(15)
C2B C 0.13878(10) 0.64185(8) 0.41476(14)
H1B H 0.1226 0.6653 0.3995
C3B C 0.18225(10) 0.64353(9) 0.45725(14)
C4B C 0.20689(11) 0.60892(9) 0.48071(15)
H2B H 0.2364 0.6104 0.5103
C5B C 0.18696(11) 0.57174(9) 0.45950(15)
C6B C 0.14273(10) 0.57007(9) 0.41554(15)
H3B H 0.1295 0.5455 0.4006
C7B C 0.07217(11) 0.60366(9) 0.34333(15)
C8B C 0.20621(11) 0.68296(9) 0.47764(15)
C10B C 0.21396(10) 0.53401(9) 0.48027(15)
C11B C 0.26847(11) 0.53356(10) 0.48024(15)
H5B H 0.2870 0.5563 0.4666
O1B O 0.05503(7) 0.57076(6) 0.32352(9)
O2B O 0.05473(7) 0.63645(6) 0.32289(10)
O3B O 0.24805(7) 0.68359(6) 0.51232(10)
O4B O 0.18337(7) 0.71399(6) 0.45252(10)
C12C C 0.69697(15) 0.25767(12) 0.7500
H6C H 0.7292 0.2442 0.7500
C13C C 0.67347(11) 0.26748(9) 0.81435(15)
C14C C 0.62458(11) 0.28635(9) 0.81447(15)
H7C H 0.6081 0.2930 0.8573
C15C C 0.60098(15) 0.29499(13) 0.7500
C16C C 0.70142(10) 0.25926(9) 0.88434(15)
C18C C 0.54940(16) 0.31836(13) 0.7500
C19C C 0.54955(17) 0.35973(14) 0.7500
H9C H 0.5815 0.3735 0.7500
O5C O 0.67892(7) 0.27125(6) 0.93915(10)
O6C O 0.74435(7) 0.24142(6) 0.88106(10)
C13I C 0.32653(11) 0.26748(9) 0.81435(15)
C14I C 0.37542(11) 0.28635(9) 0.81447(15)
H7I H 0.3919 0.2930 0.8573
C16I C 0.29858(10) 0.25926(9) 0.88434(15)
O5I O 0.32108(7) 0.27125(6) 0.93915(10)
O6I O 0.25565(7) 0.24142(6) 0.88106(10)
C13J C 0.67347(11) 0.26748(9) 0.68565(15)
C14J C 0.62458(11) 0.28635(9) 0.68553(15)
H7J H 0.6081 0.2930 0.6427
C16J C 0.70142(10) 0.25926(9) 0.61566(15)
O5J O 0.67892(7) 0.27125(6) 0.56085(10)
O6J O 0.74435(7) 0.24142(6) 0.61894(10)
Cu3B Cu 0.288788(13) 0.731942(10) 0.535162(18)
O9B O 0.350(9) 0.699(6) 0.580(13)
H10B H 0.3359 0.6756 0.6011
H11B H 0.3674 0.7119 0.6227
C1H C -0.11844(11) 0.60497(8) 0.39407(15)
C2H C -0.13878(10) 0.64185(8) 0.41476(14)
H1H H -0.1226 0.6653 0.3995
C3H C -0.18225(10) 0.64353(9) 0.45725(14)
C4H C -0.20689(11) 0.60892(9) 0.48071(15)
H2H H -0.2364 0.6104 0.5103
C5H C -0.18696(11) 0.57174(9) 0.45950(15)
C6H C -0.14273(10) 0.57007(9) 0.41554(15)
H3H H -0.1295 0.5455 0.4006
C7H C -0.07217(11) 0.60366(9) 0.34333(15)
C8H C -0.20621(11) 0.68296(9) 0.47764(15)
C9H C -0.18644(15) 0.5000 0.5000
H4H H -0.1497 0.5000 0.5000
C10H C -0.21396(10) 0.53401(9) 0.48027(15)
C11H C -0.26847(11) 0.53356(10) 0.48024(15)
H5H H -0.2870 0.5563 0.4666
Cu3H Cu -0.288788(13) 0.731942(10) 0.535162(18)
N1H N -0.29563(12) 0.5000 0.5000
O1H O -0.05503(7) 0.57076(6) 0.32352(9)
O2H O -0.05473(7) 0.63645(6) 0.32289(10)
O3H O -0.24805(7) 0.68359(6) 0.51232(10)
O4H O -0.18337(7) 0.71399(6) 0.45252(10)
O9H O -0.350(9) 0.699(6) 0.580(13)
H10H H -0.3359 0.6756 0.6011
H11H H -0.3674 0.7119 0.6227
C1J C -0.11844(11) 0.39503(8) 0.60593(15)
C2J C -0.13878(10) 0.35815(8) 0.58524(14)
H1J H -0.1226 0.3347 0.6005
C3J C -0.18225(10) 0.35647(9) 0.54275(14)
C4J C -0.20689(11) 0.39108(9) 0.51929(15)
H2J H -0.2364 0.3896 0.4897
C5J C -0.18696(11) 0.42826(9) 0.54050(15)
C6J C -0.14273(10) 0.42993(9) 0.58446(15)
H3J H -0.1295 0.4545 0.5994
C7J C -0.07217(11) 0.39634(9) 0.65667(15)
C8J C -0.20621(11) 0.31704(9) 0.52236(15)
C10J C -0.21396(10) 0.46599(9) 0.51973(15)
C11J C -0.26847(11) 0.46644(10) 0.51976(15)
H5J H -0.2870 0.4437 0.5334
O1J O -0.05503(7) 0.42924(6) 0.67648(9)
O2J O -0.05473(7) 0.36355(6) 0.67711(10)
O3J O -0.24805(7) 0.31641(6) 0.48768(10)
O4J O -0.18337(7) 0.28601(6) 0.54748(10)
Cu3J Cu -0.288788(13) 0.268058(10) 0.464838(18)
O9J O -0.350(9) 0.301(6) 0.420(13)
H10J H -0.3359 0.3244 0.3989
H11J H -0.3674 0.2881 0.3773
Cu1A Cu 0.0000 0.56407(2) 0.2500
Cu2A Cu 0.0000 0.64320(2) 0.2500
Cu3C Cu 0.711212(13) 0.268058(10) 1.035162(18)
Cu3D Cu -0.211212(13) 0.768058(10) 0.464838(18)
Cu3E Cu 0.211212(13) 0.231942(10) 0.964838(18)
Cu3F Cu -0.211212(13) 0.231942(10) 0.535162(18)
Cu3F_2 Cu 0.788788(13) 0.231942(10) 0.535162(18)
Cu3I Cu 0.288788(13) 0.268058(10) 1.035162(18)
Cu3J_2 Cu 0.711212(13) 0.268058(10) 0.464838(18)
Cu3L Cu 0.211212(13) 0.231942(10) 0.535162(18)
Cu3N Cu 0.211212(13) 0.768058(10) 0.464838(18)
Cu3O Cu 0.788788(13) 0.231942(10) 0.964838(18)
O1C O -0.05503(7) 0.42924(6) 0.82352(9)
O1I O 0.05503(7) 0.42924(6) 0.82352(9)
O2C O -0.05473(7) 0.36355(6) 0.82289(10)
O2I O 0.05473(7) 0.36355(6) 0.82289(10)
O4D O -0.31663(7) 0.78601(6) 0.54748(10)
O4F O -0.31663(7) 0.21399(6) 0.45252(10)
O4L O 0.31663(7) 0.21399(6) 0.45252(10)
O4N O 0.31663(7) 0.78601(6) 0.54748(10)
O5B O 0.32108(7) 0.72875(6) 0.43915(10)
O5H O -0.32108(7) 0.72875(6) 0.43915(10)
O5J_2 O -0.32108(7) 0.27125(6) 0.56085(10)
O6D O -0.24435(7) 0.74142(6) 0.61894(10)
O6F O -0.24435(7) 0.25858(6) 0.38106(10)
O6L O 0.24435(7) 0.25858(6) 0.38106(10)
O6N O 0.24435(7) 0.74142(6) 0.61894(10)
H12? H -0.0091 0.5096 0.7968
H13? H -0.0091 0.2829 0.7969
H14? H 0.3671 0.2850 0.3829
H15? H 0.3835 0.2869 0.4259
H16? H 0.3522 0.3263 0.4419
O10? O 0.351(9) 0.304(6) 0.414(13)
H17? H 0.3361 0.3275 0.3934
H18? H 0.3837 0.2900 0.4203
H19? H 0.3524 0.3294 0.4364
H20? H -0.0254 0.2829 0.7159
H21? H 0.0345 0.5096 0.7373
loop_
_geom_bond_atom_site_label_1
_geom_bond_atom_site_label_2
_geom_bond_site_symmetry_1
_geom_bond_site_symmetry_2
C1 C2 1_555 1_555
C2 H1 1_555 1_555
C3 C2 1_555 1_555
C4 C3 1_555 1_555
H2 C4 1_555 1_555
C5 C4 1_555 1_555
C6 C1 1_555 1_555
H3 C6 1_555 1_555
C7 C1 1_555 1_555
C8 C3 1_555 1_555
C9 H4 1_555 1_555
C10 C5 1_555 1_555
C11 C10 1_555 1_555
H5 C11 1_555 1_555
C12 H6 1_555 1_555
C13 C12 1_555 1_555
C14 C13 1_555 1_555
H7 C14 1_555 1_555
C15 C14 1_555 1_555
C16 C13 1_555 1_555
C17 H8 1_555 1_555
C18 C15 1_555 1_555
C19 C18 1_555 1_555
H9 C19 1_555 1_555
Cu1 Cu2 1_555 1_555
Cu2 O2 1_555 1_555
Cu3 O3 1_555 1_555
N1 C11 1_555 1_555
N2 C19 1_555 1_555
O1 C7 1_555 1_555
O2 C7 1_555 1_555
O3 C8 1_555 1_555
O4 C8 1_555 1_555
O5 C16 1_555 1_555
O6 C16 1_555 1_555
O7 Cu1 1_555 1_555
O8 Cu2 1_555 1_555
O9 Cu3 1_555 1_555
H10 O9 1_555 1_555
H11 O9 1_555 1_555
C1B C2B 1_555 1_555
C2B H1B 1_555 1_555
C3B C2B 1_555 1_555
C4B C3B 1_555 1_555
H2B C4B 1_555 1_555
C5B C4B 1_555 1_555
C6B C1B 1_555 1_555
H3B C6B 1_555 1_555
C7B C1B 1_555 1_555
C8B C3B 1_555 1_555
C10B C9 1_555 1_555
C11B N1 1_555 1_555
H5B C11B 1_555 1_555
O1B C7B 1_555 1_555
O2B C7B 1_555 1_555
O3B C8B 1_555 1_555
O4B C8B 1_555 1_555
C12C H6C 1_555 1_555
C13C C12C 1_555 1_555
C14C C13C 1_555 1_555
H7C C14C 1_555 1_555
C15C C14C 1_555 1_555
C16C C13C 1_555 1_555
C18C C17 1_555 1_555
C19C N2 1_555 1_555
H9C C19C 1_555 1_555
O5C C16C 1_555 1_555
O6C C16C 1_555 1_555
C13I C12 1_555 1_555
C14I C15 1_555 1_555
H7I C14I 1_555 1_555
C16I C13I 1_555 1_555
O5I C16I 1_555 1_555
O6I C16I 1_555 1_555
C13J C12C 1_555 1_555
C14J C15C 1_555 1_555
H7J C14J 1_555 1_555
C16J C13J 1_555 1_555
O5J C16J 1_555 1_555
O6J C16J 1_555 1_555
Cu3B O3B 1_555 1_555
O9B Cu3B 1_555 1_555
H10B O9B 1_555 1_555
H11B O9B 1_555 1_555
C1H C2H 1_555 1_555
C2H H1H 1_555 1_555
C3H C2H 1_555 1_555
C4H C3H 1_555 1_555
H2H C4H 1_555 1_555
C5H C4H 1_555 1_555
C6H C1H 1_555 1_555
H3H C6H 1_555 1_555
C7H C1H 1_555 1_555
C8H C3H 1_555 1_555
C9H H4H 1_555 1_555
C10H C5H 1_555 1_555
C11H C10H 1_555 1_555
H5H C11H 1_555 1_555
Cu3H O3H 1_555 1_555
N1H C11H 1_555 1_555
O1H C7H 1_555 1_555
O2H C7H 1_555 1_555
O3H C8H 1_555 1_555
O4H C8H 1_555 1_555
O9H Cu3H 1_555 1_555
H10H O9H 1_555 1_555
H11H O9H 1_555 1_555
C1J C2J 1_555 1_555
C2J H1J 1_555 1_555
C3J C2J 1_555 1_555
C4J C3J 1_555 1_555
H2J C4J 1_555 1_555
C5J C4J 1_555 1_555
C6J C1J 1_555 1_555
H3J C6J 1_555 1_555
C7J C1J 1_555 1_555
C8J C3J 1_555 1_555
C10J C9H 1_555 1_555
C11J N1H 1_555 1_555
H5J C11J 1_555 1_555
O1J Cu1 1_555 1_555
O2J Cu2 1_555 1_555
O3J C8J 1_555 1_555
O4J C8J 1_555 1_555
Cu3J O3J 1_555 1_555
O9J Cu3J 1_555 1_555
H10J O9J 1_555 1_555
H11J O9J 1_555 1_555
Cu1A O1B 1_555 1_555
Cu2A O2B 1_555 1_555
Cu3C O5C 1_555 1_555
Cu3D Cu3H 1_555 1_555
Cu3E O6I 1_555 1_555
Cu3F O4J 1_555 1_555
Cu3F_2 O6J 1_555 1_555
Cu3I O5I 1_555 1_555
Cu3J_2 O5J 1_555 1_555
Cu3L Cu3 1_555 1_555
Cu3N O4B 1_555 1_555
Cu3O O6C 1_555 1_555
O1C Cu1 1_555 1_555
O1I Cu1 1_555 1_555
O2C Cu2 1_555 1_555
O2I Cu2 1_555 1_555
O4D Cu3H 1_555 1_555
O4F Cu3J 1_555 1_555
O4L Cu3 1_555 1_555
O4N Cu3B 1_555 1_555
O5B Cu3B 1_555 1_555
O5H Cu3H 1_555 1_555
O5J_2 Cu3J 1_555 1_555
O6D Cu3H 1_555 1_555
O6F Cu3J 1_555 1_555
O6L Cu3 1_555 1_555
O6N Cu3B 1_555 1_555
C5 C6 1_555 1_555
C9 C10 1_555 1_555
C17 C18 1_555 1_555
Cu1 O1 1_555 1_555
Cu3 O5 1_555 1_555
O4 Cu3L 1_555 1_555
O6 Cu3L 1_555 1_555
C5B C6B 1_555 1_555
C5B C10B 1_555 1_555
C10B C11B 1_555 1_555
C15C C18C 1_555 1_555
C18C C19C 1_555 1_555
C13I C14I 1_555 1_555
C13J C14J 1_555 1_555
Cu3B Cu3N 1_555 1_555
C5H C6H 1_555 1_555
C9H C10H 1_555 1_555
O1H Cu1A 1_555 1_555
O2H Cu2A 1_555 1_555
O4H Cu3D 1_555 1_555
C5J C6J 1_555 1_555
C5J C10J 1_555 1_555
C7J O1J 1_555 1_555
C7J O2J 1_555 1_555
C10J C11J 1_555 1_555
Cu3J Cu3F 1_555 1_555
Cu1A Cu2A 1_555 1_555
Cu3C Cu3O 1_555 1_555
Cu3E Cu3I 1_555 1_555
Cu3F_2 Cu3J_2 1_555 1_555

#END
