
#######################################################################
#
#                 Cambridge Crystallographic Data Centre
#                                CCDC 
#
#######################################################################
#
# If this CIF has been generated from an entry in the Cambridge 
# Structural Database, then it will include bibliographic, chemical, 
# crystal, experimental, refinement or atomic coordinate data resulting 
# from the CCDC's data processing and validation procedures.
#
#######################################################################

data_IYOWID
_chemical_formula_moiety         
'(C138 H84 N6 O24 Zn6)n,55n(C3 H7 N1 O1),32n(H2 O1)'
_chemical_name_systematic        
"catena-(tetrakis(\m~6~-Benzene-1,3,5-tribenzoato)-tris(\m~2~-4,4'-bipyridine)-hexa-zinc dimethylformamide solvate dotriacontahydrate)"
_symmetry_cell_setting           cubic
_symmetry_space_group_name_H-M   'P m -3 n'
_symmetry_Int_Tables_number      223
_space_group_name_Hall           '-P 4n 2 3'
loop_
_symmetry_equiv_pos_site_id
_symmetry_equiv_pos_as_xyz
1 x,y,z
2 1/2-y,1/2+x,1/2+z
3 -x,-y,z
4 1/2+y,1/2-x,1/2+z
5 1/2+x,1/2-z,1/2+y
6 x,-y,-z
7 1/2+x,1/2+z,1/2-y
8 1/2+z,1/2+y,1/2-x
9 -x,y,-z
10 1/2-z,1/2+y,1/2+x
11 z,x,y
12 y,z,x
13 -y,-z,x
14 z,-x,-y
15 -y,z,-x
16 -z,-x,y
17 -z,x,-y
18 y,-z,-x
19 1/2+y,1/2+x,1/2-z
20 1/2-y,1/2-x,1/2-z
21 1/2-x,1/2+z,1/2+y
22 1/2-x,1/2-z,1/2-y
23 1/2+z,1/2-y,1/2+x
24 1/2-z,1/2-y,1/2-x
25 -x,-y,-z
26 1/2+y,1/2-x,1/2-z
27 x,y,-z
28 1/2-y,1/2+x,1/2-z
29 1/2-x,1/2+z,1/2-y
30 -x,y,z
31 1/2-x,1/2-z,1/2+y
32 1/2-z,1/2-y,1/2+x
33 x,-y,z
34 1/2+z,1/2-y,1/2-x
35 -z,-x,-y
36 -y,-z,-x
37 y,z,-x
38 -z,x,y
39 y,-z,x
40 z,x,-y
41 z,-x,y
42 -y,z,x
43 1/2-y,1/2-x,1/2+z
44 1/2+y,1/2+x,1/2+z
45 1/2+x,1/2-z,1/2-y
46 1/2+x,1/2+z,1/2+y
47 1/2-z,1/2+y,1/2-x
48 1/2+z,1/2+y,1/2+x
_cell_length_a                   27.7364(11)
_cell_length_b                   27.7364(11)
_cell_length_c                   27.7364(11)
_cell_angle_alpha                90
_cell_angle_beta                 90
_cell_angle_gamma                90
_cell_volume                     21337.8
_exptl_crystal_colour            colorless
_exptl_crystal_description       prism
_cell_formula_units_Z            2
loop_
_atom_site_label
_atom_site_type_symbol
_atom_site_fract_x
_atom_site_fract_y
_atom_site_fract_z
Zn1 Zn 0.0000 0.198741(10) 0.5000
O1 O 0.05162(4) 0.21039(5) 0.44858(4)
N1 N 0.0000 0.12589(9) 0.5000
C1 C 0.06663(6) 0.2500 0.43337(6)
C2 C 0.10427(6) 0.2500 0.39573(6)
C3 C 0.2500 0.21509(7) 0.28491(7)
H1 H 0.2500 0.1914 0.3086
C4 C 0.17615(7) 0.2500 0.32385(7)
C5 C 0.15727(7) 0.29204(8) 0.34154(8)
H2 H 0.1682 0.3212 0.3291
C6 C 0.12257(7) 0.29279(8) 0.37718(7)
H3 H 0.1113 0.3221 0.3889
C7 C 0.21414(7) 0.2500 0.28586(7)
C8 C 0.0000 0.02621(14) 0.5000
C9 C 0.0408(2) 0.1020(3) 0.5000
C10 C 0.0431(2) 0.0506(2) 0.5000
Zn1V Zn 0.0000 0.301259(10) 0.5000
Zn1K Zn 0.198741(10) 0.5000 0.0000
Zn1A Zn 0.301259(10) 0.5000 0.0000
Zn1J Zn 0.5000 0.0000 0.198741(10)
Zn1F Zn 0.5000 0.0000 0.301259(10)
Zn1B Zn 0.0000 -0.198741(10) 0.5000
Zn1L Zn -0.198741(10) 0.5000 1.0000
Zn1C Zn -0.301259(10) 0.5000 1.0000
Zn1M Zn -0.5000 0.0000 0.801259(10)
Zn1D Zn -0.5000 0.0000 0.698741(10)
Zn1K_2 Zn 0.198741(10) 0.5000 1.0000
Zn1A_2 Zn 0.301259(10) 0.5000 1.0000
Zn1M_2 Zn 0.5000 0.0000 0.801259(10)
Zn1D_2 Zn 0.5000 0.0000 0.698741(10)
Zn1L_2 Zn -0.198741(10) 0.5000 0.0000
Zn1C_2 Zn -0.301259(10) 0.5000 0.0000
Zn1J_2 Zn -0.5000 0.0000 0.198741(10)
Zn1F_2 Zn -0.5000 0.0000 0.301259(10)
Zn1G Zn 0.0000 0.698741(10) 0.5000
O1W O 0.05142(4) 0.28961(5) 0.44838(4)
O1K O 0.21039(5) 0.44858(4) 0.05162(4)
O1S O 0.28961(5) 0.44838(4) 0.05142(4)
O1J O 0.44858(4) 0.05162(4) 0.21039(5)
O1U O 0.44838(4) 0.05142(4) 0.28961(5)
O1H O -0.05162(4) 0.21039(5) 0.55142(4)
O1V O -0.05142(4) 0.28961(5) 0.55162(4)
O1N O -0.21039(5) 0.44858(4) 0.94838(4)
O1C O -0.28961(5) 0.44838(4) 0.94858(4)
O1P O -0.44858(4) 0.05162(4) 0.78961(5)
O1D O -0.44838(4) 0.05142(4) 0.71039(5)
O1Z O 0.05162(4) 0.21039(5) 0.55142(4)
O1EA O 0.05142(4) 0.28961(5) 0.55162(4)
O1JA O 0.21039(5) 0.44858(4) 0.94838(4)
O1PA O 0.28961(5) 0.44838(4) 0.94858(4)
O1MA O 0.44858(4) 0.05162(4) 0.78961(5)
O1DA O 0.44838(4) 0.05142(4) 0.71039(5)
O1CA O -0.05162(4) 0.21039(5) 0.44858(4)
O1GA O -0.05142(4) 0.28961(5) 0.44838(4)
O1OA O -0.21039(5) 0.44858(4) 0.05162(4)
O1Y O -0.28961(5) 0.44838(4) 0.05142(4)
O1KA O -0.44858(4) 0.05162(4) 0.21039(5)
O1RA O -0.44838(4) 0.05142(4) 0.28961(5)
O1Q O 0.21039(5) 0.55142(4) -0.05162(4)
O1LA O 0.21039(5) 0.55142(4) 0.05162(4)
O1JA_2 O 0.21039(5) 0.44858(4) -0.05162(4)
O1A O 0.28961(5) 0.55162(4) -0.05142(4)
O1PA_2 O 0.28961(5) 0.44838(4) -0.05142(4)
O1AA O 0.28961(5) 0.55162(4) 0.05142(4)
O1O O 0.55142(4) -0.05162(4) 0.21039(5)
O1KA_2 O 0.55142(4) 0.05162(4) 0.21039(5)
O1NA O 0.44858(4) -0.05162(4) 0.21039(5)
O1F O 0.55162(4) -0.05142(4) 0.28961(5)
O1BA O 0.44838(4) -0.05142(4) 0.28961(5)
O1RA_2 O 0.55162(4) 0.05142(4) 0.28961(5)
N1B N 0.0000 -0.12589(9) 0.5000
N1V N 0.0000 0.37411(9) 0.5000
N1G N 0.0000 0.62589(9) 0.5000
N1K N 0.12589(9) 0.5000 0.0000
N1L N -0.12589(9) 0.5000 0.0000
N1A N 0.37411(9) 0.5000 0.0000
N1J N 0.5000 0.0000 0.12589(9)
N1F N 0.5000 0.0000 0.37411(9)
C1K C 0.2500 0.43337(6) 0.06663(6)
C1J C 0.43337(6) 0.06663(6) 0.2500
C1H C -0.06663(6) 0.2500 0.56663(6)
C1C C -0.2500 0.43337(6) 0.93337(6)
C1D C -0.43337(6) 0.06663(6) 0.7500
C1Z C 0.06663(6) 0.2500 0.56663(6)
C1JA C 0.2500 0.43337(6) 0.93337(6)
C1DA C 0.43337(6) 0.06663(6) 0.7500
C1CA C -0.06663(6) 0.2500 0.43337(6)
C1Y C -0.2500 0.43337(6) 0.06663(6)
C1KA C -0.43337(6) 0.06663(6) 0.2500
C2K C 0.2500 0.39573(6) 0.10427(6)
C2J C 0.39573(6) 0.10427(6) 0.2500
C2H C -0.10427(6) 0.2500 0.60427(6)
C2C C -0.2500 0.39573(6) 0.89573(6)
C2D C -0.39573(6) 0.10427(6) 0.7500
C2Z C 0.10427(6) 0.2500 0.60427(6)
C2JA C 0.2500 0.39573(6) 0.89573(6)
C2DA C 0.39573(6) 0.10427(6) 0.7500
C2CA C -0.10427(6) 0.2500 0.39573(6)
C2Y C -0.2500 0.39573(6) 0.10427(6)
C2KA C -0.39573(6) 0.10427(6) 0.2500
C3J C 0.28491(7) 0.2500 0.21509(7)
C3K C 0.21509(7) 0.28491(7) 0.2500
C3D C -0.2500 0.21509(7) 0.71509(7)
C3C C -0.28491(7) 0.2500 0.78491(7)
C3N C -0.21509(7) 0.28491(7) 0.7500
C3Z C 0.2500 0.21509(7) 0.71509(7)
C3MA C 0.28491(7) 0.2500 0.78491(7)
C3EA C 0.21509(7) 0.28491(7) 0.7500
C3CA C -0.2500 0.21509(7) 0.28491(7)
C3Y C -0.28491(7) 0.2500 0.21509(7)
C3GA C -0.21509(7) 0.28491(7) 0.2500
H1J H 0.3086 0.2500 0.1914
H1K H 0.1914 0.3086 0.2500
H1D H -0.2500 0.1914 0.6914
H1C H -0.3086 0.2500 0.8086
H1N H -0.1914 0.3086 0.7500
H1Z H 0.2500 0.1914 0.6914
H1MA H 0.3086 0.2500 0.8086
H1EA H 0.1914 0.3086 0.7500
H1CA H -0.2500 0.1914 0.3086
H1Y H -0.3086 0.2500 0.1914
H1GA H -0.1914 0.3086 0.2500
C4K C 0.2500 0.32385(7) 0.17615(7)
C4J C 0.32385(7) 0.17615(7) 0.2500
C4H C -0.17615(7) 0.2500 0.67615(7)
C4C C -0.2500 0.32385(7) 0.82385(7)
C4D C -0.32385(7) 0.17615(7) 0.7500
C4Z C 0.17615(7) 0.2500 0.67615(7)
C4JA C 0.2500 0.32385(7) 0.82385(7)
C4DA C 0.32385(7) 0.17615(7) 0.7500
C4CA C -0.17615(7) 0.2500 0.32385(7)
C4Y C -0.2500 0.32385(7) 0.17615(7)
C4KA C -0.32385(7) 0.17615(7) 0.2500
C5K C 0.29204(8) 0.34154(8) 0.15727(7)
C5S C 0.20796(8) 0.34273(7) 0.15846(8)
C5J C 0.34154(8) 0.15727(7) 0.29204(8)
C5U C 0.34273(7) 0.15846(8) 0.20796(8)
C5W C 0.15846(8) 0.20796(8) 0.34273(7)
C5H C -0.15727(7) 0.29204(8) 0.65846(8)
C5N C -0.29204(8) 0.34154(8) 0.84273(7)
C5C C -0.20796(8) 0.34273(7) 0.84154(8)
C5P C -0.34154(8) 0.15727(7) 0.70796(8)
C5D C -0.34273(7) 0.15846(8) 0.79204(8)
C5V C -0.15846(8) 0.20796(8) 0.65727(7)
C5Z C 0.15727(7) 0.29204(8) 0.65846(8)
C5JA C 0.29204(8) 0.34154(8) 0.84273(7)
C5PA C 0.20796(8) 0.34273(7) 0.84154(8)
C5MA C 0.34154(8) 0.15727(7) 0.70796(8)
C5DA C 0.34273(7) 0.15846(8) 0.79204(8)
C5EA C 0.15846(8) 0.20796(8) 0.65727(7)
C5CA C -0.15727(7) 0.29204(8) 0.34154(8)
C5OA C -0.29204(8) 0.34154(8) 0.15727(7)
C5Y C -0.20796(8) 0.34273(7) 0.15846(8)
C5KA C -0.34154(8) 0.15727(7) 0.29204(8)
C5RA C -0.34273(7) 0.15846(8) 0.20796(8)
C5GA C -0.15846(8) 0.20796(8) 0.34273(7)
H2S H 0.1788 0.3318 0.1709
H2K H 0.3212 0.3291 0.1682
H2U H 0.3318 0.1709 0.1788
H2J H 0.3291 0.1682 0.3212
H2W H 0.1709 0.1788 0.3318
H2H H -0.1682 0.3212 0.6709
H2C H -0.1788 0.3318 0.8291
H2N H -0.3212 0.3291 0.8318
H2D H -0.3318 0.1709 0.8212
H2P H -0.3291 0.1682 0.6788
H2V H -0.1709 0.1788 0.6682
H2Z H 0.1682 0.3212 0.6709
H2PA H 0.1788 0.3318 0.8291
H2JA H 0.3212 0.3291 0.8318
H2DA H 0.3318 0.1709 0.8212
H2MA H 0.3291 0.1682 0.6788
H2EA H 0.1709 0.1788 0.6682
H2CA H -0.1682 0.3212 0.3291
H2Y H -0.1788 0.3318 0.1709
H2OA H -0.3212 0.3291 0.1682
H2RA H -0.3318 0.1709 0.1788
H2KA H -0.3291 0.1682 0.3212
H2GA H -0.1709 0.1788 0.3318
C6K C 0.29279(8) 0.37718(7) 0.12257(7)
C6S C 0.20721(8) 0.37743(7) 0.12282(7)
C6J C 0.37718(7) 0.12257(7) 0.29279(8)
C6U C 0.37743(7) 0.12282(7) 0.20721(8)
C6W C 0.12282(7) 0.20721(8) 0.37743(7)
C6H C -0.12257(7) 0.29279(8) 0.62282(7)
C6N C -0.29279(8) 0.37718(7) 0.87743(7)
C6C C -0.20721(8) 0.37743(7) 0.87718(7)
C6P C -0.37718(7) 0.12257(7) 0.70721(8)
C6D C -0.37743(7) 0.12282(7) 0.79279(8)
C6V C -0.12282(7) 0.20721(8) 0.62257(7)
C6Z C 0.12257(7) 0.29279(8) 0.62282(7)
C6JA C 0.29279(8) 0.37718(7) 0.87743(7)
C6PA C 0.20721(8) 0.37743(7) 0.87718(7)
C6MA C 0.37718(7) 0.12257(7) 0.70721(8)
C6DA C 0.37743(7) 0.12282(7) 0.79279(8)
C6EA C 0.12282(7) 0.20721(8) 0.62257(7)
C6CA C -0.12257(7) 0.29279(8) 0.37718(7)
C6OA C -0.29279(8) 0.37718(7) 0.12257(7)
C6Y C -0.20721(8) 0.37743(7) 0.12282(7)
C6KA C -0.37718(7) 0.12257(7) 0.29279(8)
C6RA C -0.37743(7) 0.12282(7) 0.20721(8)
C6GA C -0.12282(7) 0.20721(8) 0.37743(7)
H3S H 0.1779 0.3887 0.1111
H3K H 0.3221 0.3889 0.1113
H3U H 0.3887 0.1111 0.1779
H3J H 0.3889 0.1113 0.3221
H3W H 0.1111 0.1779 0.3887
H3H H -0.1113 0.3221 0.6111
H3C H -0.1779 0.3887 0.8889
H3N H -0.3221 0.3889 0.8887
H3D H -0.3887 0.1111 0.8221
H3P H -0.3889 0.1113 0.6779
H3V H -0.1111 0.1779 0.6113
H3Z H 0.1113 0.3221 0.6111
H3PA H 0.1779 0.3887 0.8889
H3JA H 0.3221 0.3889 0.8887
H3DA H 0.3887 0.1111 0.8221
H3MA H 0.3889 0.1113 0.6779
H3EA H 0.1111 0.1779 0.6113
H3CA H -0.1113 0.3221 0.3889
H3Y H -0.1779 0.3887 0.1111
H3OA H -0.3221 0.3889 0.1113
H3RA H -0.3887 0.1111 0.1779
H3KA H -0.3889 0.1113 0.3221
H3GA H -0.1111 0.1779 0.3887
C7J C 0.28586(7) 0.21414(7) 0.2500
C7K C 0.2500 0.28586(7) 0.21414(7)
C7H C -0.21414(7) 0.2500 0.71414(7)
C7D C -0.28586(7) 0.21414(7) 0.7500
C7C C -0.2500 0.28586(7) 0.78586(7)
C7Z C 0.21414(7) 0.2500 0.71414(7)
C7DA C 0.28586(7) 0.21414(7) 0.7500
C7JA C 0.2500 0.28586(7) 0.78586(7)
C7CA C -0.21414(7) 0.2500 0.28586(7)
C7KA C -0.28586(7) 0.21414(7) 0.2500
C7Y C -0.2500 0.28586(7) 0.21414(7)
C8B C 0.0000 -0.02621(14) 0.5000
C8V C 0.0000 0.47379(14) 0.5000
C8G C 0.0000 0.52621(14) 0.5000
C8K C 0.02621(14) 0.5000 0.0000
C8L C -0.02621(14) 0.5000 0.0000
C9B C -0.0408(2) -0.1020(3) 0.5000
C9E C 0.0408(2) -0.1020(3) 0.5000
C9H C -0.0408(2) 0.1020(3) 0.5000
C9W C 0.0000 0.3980(3) 0.4592(2)
C9I C 0.0000 0.6020(3) 0.5408(2)
C9G C 0.0000 0.6020(3) 0.4592(2)
C9V C 0.0000 0.3980(3) 0.5408(2)
C9K C 0.1020(3) 0.5000 0.0408(2)
C9N C -0.1020(3) 0.5000 -0.0408(2)
C9L C -0.1020(3) 0.5000 0.0408(2)
C9Q C 0.1020(3) 0.5000 -0.0408(2)
C10B C -0.0431(2) -0.0506(2) 0.5000
C10E C 0.0431(2) -0.0506(2) 0.5000
C10H C -0.0431(2) 0.0506(2) 0.5000
C10W C 0.0000 0.4494(2) 0.4569(2)
C10I C 0.0000 0.5506(2) 0.5431(2)
C10G C 0.0000 0.5506(2) 0.4569(2)
C10V C 0.0000 0.4494(2) 0.5431(2)
C10K C 0.0506(2) 0.5000 0.0431(2)
C10N C -0.0506(2) 0.5000 -0.0431(2)
C10L C -0.0506(2) 0.5000 0.0431(2)
C10Q C 0.0506(2) 0.5000 -0.0431(2)
C11? C 0.0000 0.1010(4) 0.4584(3)
C12? C 0.0000 0.0521(4) 0.4582(3)
loop_
_geom_bond_atom_site_label_1
_geom_bond_atom_site_label_2
_geom_bond_site_symmetry_1
_geom_bond_site_symmetry_2
Zn1 O1 1_555 1_555
O1 C1 1_555 1_555
N1 Zn1 1_555 1_555
C1 C2 1_555 1_555
C2 C6 1_555 1_555
C3 H1 1_555 1_555
C4 C5 1_555 1_555
C5 H2 1_555 1_555
C6 C5 1_555 1_555
H3 C6 1_555 1_555
C7 C3 1_555 1_555
C8 C10 1_555 1_555
C9 N1 1_555 1_555
C10 C9 1_555 1_555
Zn1V O1W 1_555 1_555
Zn1K O1K 1_555 1_555
Zn1A O1S 1_555 1_555
Zn1J O1J 1_555 1_555
Zn1F O1U 1_555 1_555
Zn1B N1B 1_555 1_555
Zn1L O1N 1_555 1_555
Zn1C O1C 1_555 1_555
Zn1M O1P 1_555 1_555
Zn1D O1D 1_555 1_555
Zn1K_2 O1JA 1_555 1_555
Zn1A_2 O1PA 1_555 1_555
Zn1M_2 O1MA 1_555 1_555
Zn1D_2 O1DA 1_555 1_555
Zn1L_2 O1OA 1_555 1_555
Zn1C_2 O1Y 1_555 1_555
Zn1J_2 O1KA 1_555 1_555
Zn1F_2 O1RA 1_555 1_555
Zn1G N1G 1_555 1_555
O1W C1 1_555 1_555
O1K C1K 1_555 1_555
O1S C1K 1_555 1_555
O1J C1J 1_555 1_555
O1U C1J 1_555 1_555
O1H Zn1 1_555 1_555
O1V Zn1V 1_555 1_555
O1N C1C 1_555 1_555
O1C C1C 1_555 1_555
O1P C1D 1_555 1_555
O1D C1D 1_555 1_555
O1Z Zn1 1_555 1_555
O1EA Zn1V 1_555 1_555
O1JA C1JA 1_555 1_555
O1PA C1JA 1_555 1_555
O1MA C1DA 1_555 1_555
O1DA C1DA 1_555 1_555
O1CA Zn1 1_555 1_555
O1GA Zn1V 1_555 1_555
O1OA C1Y 1_555 1_555
O1Y C1Y 1_555 1_555
O1KA C1KA 1_555 1_555
O1RA C1KA 1_555 1_555
O1Q Zn1K 1_555 1_555
O1LA Zn1K 1_555 1_555
O1JA_2 Zn1K 1_555 1_555
O1A Zn1A 1_555 1_555
O1PA_2 Zn1A 1_555 1_555
O1AA Zn1A 1_555 1_555
O1O Zn1J 1_555 1_555
O1KA_2 Zn1J 1_555 1_555
O1NA Zn1J 1_555 1_555
O1F Zn1F 1_555 1_555
O1BA Zn1F 1_555 1_555
O1RA_2 Zn1F 1_555 1_555
N1B C9B 1_555 1_555
N1V Zn1V 1_555 1_555
N1G C9I 1_555 1_555
N1K Zn1K 1_555 1_555
N1L Zn1L_2 1_555 1_555
N1A Zn1A 1_555 1_555
N1J Zn1J 1_555 1_555
N1F Zn1F 1_555 1_555
C1K C2K 1_555 1_555
C1J C2J 1_555 1_555
C1H O1H 1_555 1_555
C1C C2C 1_555 1_555
C1D C2D 1_555 1_555
C1Z O1Z 1_555 1_555
C1JA C2JA 1_555 1_555
C1DA C2DA 1_555 1_555
C1CA O1CA 1_555 1_555
C1Y C2Y 1_555 1_555
C1KA C2KA 1_555 1_555
C2K C6K 1_555 1_555
C2J C6J 1_555 1_555
C2H C1H 1_555 1_555
C2C C6N 1_555 1_555
C2D C6P 1_555 1_555
C2Z C1Z 1_555 1_555
C2JA C6JA 1_555 1_555
C2DA C6MA 1_555 1_555
C2CA C1CA 1_555 1_555
C2Y C6OA 1_555 1_555
C2KA C6KA 1_555 1_555
C3J H1J 1_555 1_555
C3K C7 1_555 1_555
C3D H1D 1_555 1_555
C3C H1C 1_555 1_555
C3N H1N 1_555 1_555
C3Z H1Z 1_555 1_555
C3MA H1MA 1_555 1_555
C3EA H1EA 1_555 1_555
C3CA H1CA 1_555 1_555
C3Y H1Y 1_555 1_555
C3GA H1GA 1_555 1_555
H1K C3K 1_555 1_555
C4K C5K 1_555 1_555
C4J C5J 1_555 1_555
C4H C5H 1_555 1_555
C4C C5N 1_555 1_555
C4D C5P 1_555 1_555
C4Z C5Z 1_555 1_555
C4JA C5JA 1_555 1_555
C4DA C5MA 1_555 1_555
C4CA C5CA 1_555 1_555
C4Y C5OA 1_555 1_555
C4KA C5KA 1_555 1_555
C5K H2K 1_555 1_555
C5S C4K 1_555 1_555
C5J H2J 1_555 1_555
C5U C4J 1_555 1_555
C5W C4 1_555 1_555
C5H H2H 1_555 1_555
C5N H2N 1_555 1_555
C5C C4C 1_555 1_555
C5P H2P 1_555 1_555
C5D C4D 1_555 1_555
C5V C4H 1_555 1_555
C5Z H2Z 1_555 1_555
C5JA H2JA 1_555 1_555
C5PA C4JA 1_555 1_555
C5MA H2MA 1_555 1_555
C5DA C4DA 1_555 1_555
C5EA C4Z 1_555 1_555
C5CA H2CA 1_555 1_555
C5OA H2OA 1_555 1_555
C5Y C4Y 1_555 1_555
C5KA H2KA 1_555 1_555
C5RA C4KA 1_555 1_555
C5GA C4CA 1_555 1_555
H2S C5S 1_555 1_555
H2U C5U 1_555 1_555
H2W C5W 1_555 1_555
H2C C5C 1_555 1_555
H2D C5D 1_555 1_555
H2V C5V 1_555 1_555
H2PA C5PA 1_555 1_555
H2DA C5DA 1_555 1_555
H2EA C5EA 1_555 1_555
H2Y C5Y 1_555 1_555
H2RA C5RA 1_555 1_555
H2GA C5GA 1_555 1_555
C6K C5K 1_555 1_555
C6S C2K 1_555 1_555
C6J C5J 1_555 1_555
C6U C2J 1_555 1_555
C6W C2 1_555 1_555
C6H C2H 1_555 1_555
C6N C5N 1_555 1_555
C6C C2C 1_555 1_555
C6P C5P 1_555 1_555
C6D C2D 1_555 1_555
C6V C2H 1_555 1_555
C6Z C2Z 1_555 1_555
C6JA C5JA 1_555 1_555
C6PA C2JA 1_555 1_555
C6MA C5MA 1_555 1_555
C6DA C2DA 1_555 1_555
C6EA C2Z 1_555 1_555
C6CA C2CA 1_555 1_555
C6OA C5OA 1_555 1_555
C6Y C2Y 1_555 1_555
C6KA C5KA 1_555 1_555
C6RA C2KA 1_555 1_555
C6GA C2CA 1_555 1_555
H3S C6S 1_555 1_555
H3K C6K 1_555 1_555
H3U C6U 1_555 1_555
H3J C6J 1_555 1_555
H3W C6W 1_555 1_555
H3H C6H 1_555 1_555
H3C C6C 1_555 1_555
H3N C6N 1_555 1_555
H3D C6D 1_555 1_555
H3P C6P 1_555 1_555
H3V C6V 1_555 1_555
H3Z C6Z 1_555 1_555
H3PA C6PA 1_555 1_555
H3JA C6JA 1_555 1_555
H3DA C6DA 1_555 1_555
H3MA C6MA 1_555 1_555
H3EA C6EA 1_555 1_555
H3CA C6CA 1_555 1_555
H3Y C6Y 1_555 1_555
H3OA C6OA 1_555 1_555
H3RA C6RA 1_555 1_555
H3KA C6KA 1_555 1_555
H3GA C6GA 1_555 1_555
C7J C3 1_555 1_555
C7K C3J 1_555 1_555
C7H C3D 1_555 1_555
C7D C3D 1_555 1_555
C7C C3C 1_555 1_555
C7Z C3Z 1_555 1_555
C7DA C3Z 1_555 1_555
C7JA C3MA 1_555 1_555
C7CA C3CA 1_555 1_555
C7KA C3CA 1_555 1_555
C7Y C3Y 1_555 1_555
C8B C8 1_555 1_555
C8V C8G 1_555 1_555
C8G C10I 1_555 1_555
C8K C8L 1_555 1_555
C8L C10N 1_555 1_555
C9B C10B 1_555 1_555
C9E N1B 1_555 1_555
C9H N1 1_555 1_555
C9W N1V 1_555 1_555
C9I C10I 1_555 1_555
C9G N1G 1_555 1_555
C9V N1V 1_555 1_555
C9K N1K 1_555 1_555
C9N N1L 1_555 1_555
C9L N1L 1_555 1_555
C9Q N1K 1_555 1_555
C10B C8B 1_555 1_555
C10E C8B 1_555 1_555
C10H C8 1_555 1_555
C10W C8V 1_555 1_555
C10G C8G 1_555 1_555
C10V C8V 1_555 1_555
C10K C8K 1_555 1_555
C10N C9N 1_555 1_555
C10L C8L 1_555 1_555
C10Q C8K 1_555 1_555
C4 C7 1_555 1_555
O1V C1H 1_555 1_555
O1EA C1Z 1_555 1_555
O1GA C1CA 1_555 1_555
C3J C7J 1_555 1_555
C3K C7K 1_555 1_555
C3C C7D 1_555 1_555
C3N C7H 1_555 1_555
C3N C7C 1_555 1_555
C3MA C7DA 1_555 1_555
C3EA C7Z 1_555 1_555
C3EA C7JA 1_555 1_555
C3Y C7KA 1_555 1_555
C3GA C7CA 1_555 1_555
C3GA C7Y 1_555 1_555
C4K C7K 1_555 1_555
C4J C7J 1_555 1_555
C4H C7H 1_555 1_555
C4C C7C 1_555 1_555
C4D C7D 1_555 1_555
C4Z C7Z 1_555 1_555
C4JA C7JA 1_555 1_555
C4DA C7DA 1_555 1_555
C4CA C7CA 1_555 1_555
C4Y C7Y 1_555 1_555
C4KA C7KA 1_555 1_555
C5S C6S 1_555 1_555
C5U C6U 1_555 1_555
C5W C6W 1_555 1_555
C5H C6H 1_555 1_555
C5C C6C 1_555 1_555
C5D C6D 1_555 1_555
C5V C6V 1_555 1_555
C5Z C6Z 1_555 1_555
C5PA C6PA 1_555 1_555
C5DA C6DA 1_555 1_555
C5EA C6EA 1_555 1_555
C5CA C6CA 1_555 1_555
C5Y C6Y 1_555 1_555
C5RA C6RA 1_555 1_555
C5GA C6GA 1_555 1_555
C9E C10E 1_555 1_555
C9H C10H 1_555 1_555
C9W C10W 1_555 1_555
C9G C10G 1_555 1_555
C9V C10V 1_555 1_555
C9K C10K 1_555 1_555
C9L C10L 1_555 1_555
C9Q C10Q 1_555 1_555

#END
