
#######################################################################
#
#                 Cambridge Crystallographic Data Centre
#                                CCDC 
#
#######################################################################
#
# If this CIF has been generated from an entry in the Cambridge 
# Structural Database, then it will include bibliographic, chemical, 
# crystal, experimental, refinement or atomic coordinate data resulting 
# from the CCDC's data processing and validation procedures.
#
#######################################################################

data_KALFIO
_chemical_formula_moiety         '(C40 H30 N4 Ni2 O9)n'
_chemical_name_systematic        
catena-((\m~4~-1,2,3,4-tetrakis(pyridin-4-yl)cyclobutane)-bis(\m~3~-isophthalato)-(\m~2~-aqua)-di-nickel)
_symmetry_cell_setting           orthorhombic
_symmetry_space_group_name_H-M   'F d d 2'
_symmetry_Int_Tables_number      43
_space_group_name_Hall           'F 2 -2d'
loop_
_symmetry_equiv_pos_site_id
_symmetry_equiv_pos_as_xyz
1 x,y,z
2 -x,-y,z
3 1/4+x,1/4-y,1/4+z
4 1/4-x,1/4+y,1/4+z
5 x,1/2+y,1/2+z
6 -x,1/2-y,1/2+z
7 1/4+x,3/4-y,3/4+z
8 1/4-x,3/4+y,3/4+z
9 1/2+x,y,1/2+z
10 1/2-x,-y,1/2+z
11 3/4+x,1/4-y,3/4+z
12 3/4-x,1/4+y,3/4+z
13 1/2+x,1/2+y,z
14 1/2-x,1/2-y,z
15 3/4+x,3/4-y,1/4+z
16 3/4-x,3/4+y,1/4+z
_cell_length_a                   15.526(3)
_cell_length_b                   22.639(5)
_cell_length_c                   32.994(7)
_cell_angle_alpha                90
_cell_angle_beta                 90
_cell_angle_gamma                90
_cell_volume                     11597.2
_exptl_crystal_colour            green
_exptl_crystal_description       block
_cell_formula_units_Z            8
loop_
_atom_site_label
_atom_site_type_symbol
_atom_site_fract_x
_atom_site_fract_y
_atom_site_fract_z
Ni1 Ni 0.13841(4) 0.24041(3) 0.732008(18)
N1 N 0.0231(3) 0.2359(2) 0.69976(13)
N2 N -0.1436(3) 0.0863(2) 0.51427(14)
O1 O 0.1914(3) 0.19105(18) 0.68648(11)
O2 O 0.3310(3) 0.18356(19) 0.70179(11)
O3 O 0.0801(3) 0.0730(3) 0.56571(16)
O4 O 0.1795(3) 0.03841(19) 0.52392(12)
O5 O 0.2500 0.2500 0.76787(16)
C1 C -0.0303(5) 0.2816(3) 0.6997(2)
H1 H -0.0144 0.3158 0.7139
C2 C -0.1103(5) 0.2809(3) 0.6791(2)
H2 H -0.1462 0.3143 0.6789
C3 C -0.1346(4) 0.2284(3) 0.65888(17)
C4 C -0.0792(4) 0.1820(3) 0.66009(19)
H3 H -0.0940 0.1463 0.6473
C5 C -0.0005(4) 0.1869(3) 0.68024(19)
H4 H 0.0373 0.1545 0.6800
C6 C -0.2155(4) 0.2251(2) 0.63440(15)
H5 H -0.2437 0.1864 0.6387
C7 C -0.2049(4) 0.2367(2) 0.58810(16)
H6 H -0.1618 0.2683 0.5837
C8 C -0.1840(4) 0.1844(2) 0.56145(16)
C9 C -0.2407(4) 0.1369(3) 0.5570(2)
H7 H -0.2938 0.1370 0.5707
C10 C -0.2194(4) 0.0912(3) 0.53329(19)
H8 H -0.2600 0.0609 0.5298
C11 C -0.0878(4) 0.1316(3) 0.51856(19)
H9 H -0.0344 0.1298 0.5053
C12 C -0.1065(4) 0.1794(3) 0.5414(2)
H10 H -0.0657 0.2099 0.5437
C13 C 0.2816(5) 0.1392(4) 0.6405(2)
C14 C 0.3661(5) 0.1277(5) 0.6288(3)
H11 H 0.4126 0.1390 0.6453
C15 C 0.3800(6) 0.0990(5) 0.5920(3)
H12 H 0.4367 0.0919 0.5832
C16 C 0.3131(6) 0.0814(5) 0.5687(3)
H13 H 0.3244 0.0640 0.5434
C17 C 0.2281(5) 0.0882(4) 0.5811(2)
C18 C 0.2137(5) 0.1199(3) 0.61736(18)
H14 H 0.1570 0.1278 0.6257
C19 C 0.2661(4) 0.1749(3) 0.67944(16)
C20 C 0.1570(4) 0.0670(3) 0.55506(19)
H15 H 0.233(4) 0.2805(15) 0.7776(17)
Ni1M Ni -0.63841(4) 0.25959(3) 0.732008(18)
Ni1J Ni -0.11159(4) 0.00959(3) 0.482008(18)
Ni1M_2 Ni 0.36159(4) 0.25959(3) 0.732008(18)
Ni1G Ni 0.11159(4) -0.00959(3) 0.482008(18)
Ni1K Ni -0.38841(4) 0.49041(3) 0.482008(18)
Ni1F Ni 0.38841(4) 0.50959(3) 0.482008(18)
N1M N -0.5231(3) 0.2641(2) 0.69976(13)
N2M N -0.3564(3) 0.4137(2) 0.51427(14)
N2B N 0.1064(3) 0.1637(2) 0.76427(14)
N2C N -0.6064(3) 0.3363(2) 0.76427(14)
O1M O 0.3086(3) 0.30895(18) 0.68648(11)
O1M_2 O -0.6914(3) 0.30895(18) 0.68648(11)
O2M O 0.1690(3) 0.31644(19) 0.70179(11)
O2_2 O -0.6690(3) 0.18356(19) 0.70179(11)
O3M O 0.4199(3) 0.4270(3) 0.56571(16)
O4M O 0.3205(3) 0.46159(19) 0.52392(12)
O4C O 0.0705(3) 0.28841(19) 0.77392(12)
O4B O -0.5705(3) 0.21159(19) 0.77392(12)
O5_2 O -0.7500 0.2500 0.76787(16)
C1M C -0.4697(5) 0.2184(3) 0.6997(2)
H1M H -0.4856 0.1842 0.7139
C2M C -0.3897(5) 0.2191(3) 0.6791(2)
H2M H -0.3538 0.1857 0.6789
C3M C -0.3654(4) 0.2716(3) 0.65888(17)
C4M C -0.4208(4) 0.3180(3) 0.66009(19)
H3M H -0.4060 0.3537 0.6473
C5M C -0.4995(4) 0.3131(3) 0.68024(19)
H4M H -0.5373 0.3455 0.6800
C6M C -0.2845(4) 0.2749(2) 0.63440(15)
H5M H -0.2563 0.3136 0.6387
C7M C -0.2951(4) 0.2633(2) 0.58810(16)
H6M H -0.3382 0.2317 0.5837
C8M C -0.3160(4) 0.3156(2) 0.56145(16)
C9M C -0.2593(4) 0.3631(3) 0.5570(2)
H7M H -0.2062 0.3630 0.5707
C10M C -0.2806(4) 0.4088(3) 0.53329(19)
H8M H -0.2400 0.4391 0.5298
C11M C -0.4122(4) 0.3684(3) 0.51856(19)
H9M H -0.4656 0.3702 0.5053
C12M C -0.3935(4) 0.3206(3) 0.5414(2)
H10M H -0.4343 0.2901 0.5437
C13M C 0.2184(5) 0.3608(4) 0.6405(2)
C14M C 0.1339(5) 0.3723(5) 0.6288(3)
H11M H 0.0874 0.3610 0.6453
C15M C 0.1200(6) 0.4010(5) 0.5920(3)
H12M H 0.0633 0.4081 0.5832
C16M C 0.1869(6) 0.4186(5) 0.5687(3)
H13M H 0.1756 0.4360 0.5434
C17M C 0.2719(5) 0.4118(4) 0.5811(2)
C18M C 0.2863(5) 0.3801(3) 0.61736(18)
H14M H 0.3430 0.3722 0.6257
C19M C 0.2339(4) 0.3251(3) 0.67944(16)
C20M C 0.3430(4) 0.4330(3) 0.55506(19)
H15M H 0.267(4) 0.2195(15) 0.7776(17)
H15M_2 H -0.733(4) 0.2195(15) 0.7776(17)
H15_2 H -0.767(4) 0.2805(15) 0.7776(17)
loop_
_geom_bond_atom_site_label_1
_geom_bond_atom_site_label_2
_geom_bond_site_symmetry_1
_geom_bond_site_symmetry_2
Ni1 N1 1_555 1_555
N1 C1 1_555 1_555
N2 C10 1_555 1_555
O1 Ni1 1_555 1_555
O2 C19 1_555 1_555
O3 C20 1_555 1_555
O4 C20 1_555 1_555
O5 Ni1 1_555 1_555
C1 H1 1_555 1_555
C2 C1 1_555 1_555
H2 C2 1_555 1_555
C3 C2 1_555 1_555
C4 C3 1_555 1_555
H3 C4 1_555 1_555
C5 N1 1_555 1_555
H4 C5 1_555 1_555
C6 C3 1_555 1_555
H5 C6 1_555 1_555
C7 C6 1_555 1_555
H6 C7 1_555 1_555
C8 C7 1_555 1_555
C9 C8 1_555 1_555
H7 C9 1_555 1_555
C10 C9 1_555 1_555
H8 C10 1_555 1_555
C11 N2 1_555 1_555
H9 C11 1_555 1_555
C12 C8 1_555 1_555
H10 C12 1_555 1_555
C13 C14 1_555 1_555
C14 H11 1_555 1_555
C15 C14 1_555 1_555
H12 C15 1_555 1_555
C16 C15 1_555 1_555
H13 C16 1_555 1_555
C17 C16 1_555 1_555
C18 C13 1_555 1_555
H14 C18 1_555 1_555
C19 O1 1_555 1_555
C20 C17 1_555 1_555
H15 O5 1_555 1_555
Ni1M N1M 1_555 1_555
Ni1J N2 1_555 1_555
Ni1M_2 O2 1_555 1_555
Ni1G O4 1_555 1_555
Ni1K N2M 1_555 1_555
Ni1F O4M 1_555 1_555
N1M C1M 1_555 1_555
N2M C10M 1_555 1_555
N2B Ni1 1_555 1_555
N2C Ni1M 1_555 1_555
O1M Ni1M_2 1_555 1_555
O1M_2 Ni1M 1_555 1_555
O2M Ni1 1_555 1_555
O2_2 Ni1M 1_555 1_555
O3M C20M 1_555 1_555
O4M C20M 1_555 1_555
O4C Ni1 1_555 1_555
O4B Ni1M 1_555 1_555
O5_2 Ni1M 1_555 1_555
C1M H1M 1_555 1_555
C2M C1M 1_555 1_555
H2M C2M 1_555 1_555
C3M C2M 1_555 1_555
C4M C3M 1_555 1_555
H3M C4M 1_555 1_555
C5M N1M 1_555 1_555
H4M C5M 1_555 1_555
C6M C6 1_555 1_555
H5M C6M 1_555 1_555
C7M C7 1_555 1_555
H6M C7M 1_555 1_555
C8M C7M 1_555 1_555
C9M C8M 1_555 1_555
H7M C9M 1_555 1_555
C10M C9M 1_555 1_555
H8M C10M 1_555 1_555
C11M N2M 1_555 1_555
H9M C11M 1_555 1_555
C12M C8M 1_555 1_555
H10M C12M 1_555 1_555
C13M C14M 1_555 1_555
C14M H11M 1_555 1_555
C15M C14M 1_555 1_555
H12M C15M 1_555 1_555
C16M C15M 1_555 1_555
H13M C16M 1_555 1_555
C17M C16M 1_555 1_555
C18M C13M 1_555 1_555
H14M C18M 1_555 1_555
C19M O1M 1_555 1_555
C20M C17M 1_555 1_555
H15M O5 1_555 1_555
H15M_2 O5_2 1_555 1_555
H15_2 O5_2 1_555 1_555
O5 Ni1M_2 1_555 1_555
C4 C5 1_555 1_555
C11 C12 1_555 1_555
C13 C19 1_555 1_555
C17 C18 1_555 1_555
O2M C19M 1_555 1_555
C3M C6M 1_555 1_555
C4M C5M 1_555 1_555
C6M C7M 1_555 1_555
C11M C12M 1_555 1_555
C13M C19M 1_555 1_555
C17M C18M 1_555 1_555

#END
