
#######################################################################
#
#                 Cambridge Crystallographic Data Centre
#                                CCDC 
#
#######################################################################
#
# If this CIF has been generated from an entry in the Cambridge 
# Structural Database, then it will include bibliographic, chemical, 
# crystal, experimental, refinement or atomic coordinate data resulting 
# from the CCDC's data processing and validation procedures.
#
#######################################################################

data_KALFUA
_chemical_formula_moiety         '(C40 H30 N4 Ni2 O9)n,3.5n(C2 H6 O1)'
_chemical_name_systematic        
'catena-((\m~4~-1,2,3,4-tetrakis(pyridin-4-yl)cyclobutane)-bis(\m~3~-isophthalato)-(\m~2~-aqua)-di-nickel ethanol solvate)'
_symmetry_cell_setting           orthorhombic
_symmetry_space_group_name_H-M   'F d d 2'
_symmetry_Int_Tables_number      43
_space_group_name_Hall           'F 2 -2d'
loop_
_symmetry_equiv_pos_site_id
_symmetry_equiv_pos_as_xyz
1 x,y,z
2 -x,-y,z
3 1/4+x,1/4-y,1/4+z
4 1/4-x,1/4+y,1/4+z
5 x,1/2+y,1/2+z
6 -x,1/2-y,1/2+z
7 1/4+x,3/4-y,3/4+z
8 1/4-x,3/4+y,3/4+z
9 1/2+x,y,1/2+z
10 1/2-x,-y,1/2+z
11 3/4+x,1/4-y,3/4+z
12 3/4-x,1/4+y,3/4+z
13 1/2+x,1/2+y,z
14 1/2-x,1/2-y,z
15 3/4+x,3/4-y,1/4+z
16 3/4-x,3/4+y,1/4+z
_cell_length_a                   15.483(3)
_cell_length_b                   23.434(5)
_cell_length_c                   32.448(7)
_cell_angle_alpha                90
_cell_angle_beta                 90
_cell_angle_gamma                90
_cell_volume                     11773.1
_exptl_crystal_colour            green
_exptl_crystal_description       block
_cell_formula_units_Z            8
loop_
_atom_site_label
_atom_site_type_symbol
_atom_site_fract_x
_atom_site_fract_y
_atom_site_fract_z
Ni1 Ni -0.38818(6) 0.00996(4) 0.89886(3)
O1 O -0.4185(4) -0.0649(2) 0.92895(17)
N1 N -0.2743(5) 0.0144(3) 0.9321(2)
C1 C -0.2183(6) -0.0303(4) 0.9338(3)
H1 H -0.2329 -0.0631 0.9193
C2 C -0.1414(6) -0.0310(4) 0.9555(3)
H2 H -0.1080 -0.0640 0.9566
N2 N -0.1080(4) 0.1643(3) 1.1176(2)
O2 O -0.5570(3) -0.0565(2) 0.94549(16)
C3 C -0.1142(5) 0.0195(3) 0.9761(2)
O3 O -0.5704(4) -0.2146(2) 1.10514(17)
C4 C -0.1722(6) 0.0649(3) 0.9743(3)
H3 H -0.1589 0.0986 0.9880
O4 O -0.6705(4) -0.1770(3) 1.0646(2)
O5 O -0.5000 0.0000 0.8627(2)
H4 H -0.479(6) -0.025(2) 0.853(2)
C5 C -0.2481(5) 0.0613(4) 0.9530(3)
H5 H -0.2841 0.0931 0.9529
C6 C -0.0353(5) 0.0239(3) 1.0010(2)
H6 H -0.0080 0.0610 0.9961
C7 C -0.0460(5) 0.0141(3) 1.0484(2)
H8 H -0.0898 -0.0154 1.0532
C8 C -0.0662(6) 0.0654(3) 1.0741(2)
C9 C -0.0100(6) 0.1124(3) 1.0759(3)
H10 H 0.0428 0.1113 1.0622
C10 C -0.0328(6) 0.1586(4) 1.0974(3)
H12 H 0.0061 0.1888 1.0985
C11 C -0.1627(6) 0.1203(3) 1.1158(3)
H13 H -0.2153 0.1230 1.1295
C12 C -0.1432(6) 0.0700(4) 1.0939(3)
H14 H -0.1828 0.0402 1.0930
C13 C -0.4688(6) -0.1113(4) 0.9891(3)
C14 C -0.3823(11) -0.1379(9) 0.9947(6)
H15 H -0.3397 -0.1358 0.9746
C15 C -0.3689(12) -0.1662(8) 1.0319(5)
H16 H -0.3127 -0.1741 1.0403
C16 C -0.4353(11) -0.1824(8) 1.0557(6)
H17 H -0.4243 -0.2060 1.0781
C17 C -0.5221(6) -0.1648(4) 1.0480(3)
C18 C -0.5355(6) -0.1306(3) 1.0130(2)
H18 H -0.5917 -0.1207 1.0059
C19 C -0.4820(5) -0.0748(3) 0.9521(2)
C20 C -0.5929(6) -0.1874(4) 1.0743(3)
Ni1A Ni -0.61182(6) -0.00996(4) 0.89886(3)
Ni1B Ni -0.13818(6) 0.24004(4) 1.14886(3)
Ni1N Ni -0.63818(6) -0.25996(4) 1.14886(3)
Ni1A_2 Ni 0.38818(6) -0.00996(4) 0.89886(3)
Ni1O Ni 0.13818(6) -0.24004(4) 1.14886(3)
Ni1C Ni -0.36182(6) 0.25996(4) 1.14886(3)
O1A O -0.5815(4) 0.0649(2) 0.92895(17)
O1A_2 O 0.4185(4) 0.0649(2) 0.92895(17)
N1A N 0.2743(5) -0.0144(3) 0.9321(2)
C1A C 0.2183(6) 0.0303(4) 0.9338(3)
H1A H 0.2329 0.0631 0.9193
C2A C 0.1414(6) 0.0310(4) 0.9555(3)
H2A H 0.1080 0.0640 0.9566
N2A N 0.1080(4) -0.1643(3) 1.1176(2)
N2J N -0.3580(4) 0.0857(3) 0.8676(2)
N2G N 0.3580(4) -0.0857(3) 0.8676(2)
O2A O -0.4430(3) 0.0565(2) 0.94549(16)
O2_2 O 0.4430(3) -0.0565(2) 0.94549(16)
C3A C 0.1142(5) -0.0195(3) 0.9761(2)
O3A O -0.4296(4) 0.2146(2) 1.10514(17)
O3F O -0.3204(4) -0.0354(2) 0.85514(17)
O3K O 0.3204(4) 0.0354(2) 0.85514(17)
C4A C 0.1722(6) -0.0649(3) 0.9743(3)
H3A H 0.1589 -0.0986 0.9880
O4A O -0.3295(4) 0.1770(3) 1.0646(2)
O5_2 O 0.5000 0.0000 0.8627(2)
H4A H -0.521(6) 0.025(2) 0.853(2)
H4_2 H 0.521(6) -0.025(2) 0.853(2)
H4A_2 H 0.479(6) 0.025(2) 0.853(2)
C5A C 0.2481(5) -0.0613(4) 0.9530(3)
H5A H 0.2841 -0.0931 0.9529
C6A C 0.0353(5) -0.0239(3) 1.0010(2)
H6A H 0.0080 -0.0610 0.9961
C7A C 0.0460(5) -0.0141(3) 1.0484(2)
H8A H 0.0898 0.0154 1.0532
C8A C 0.0662(6) -0.0654(3) 1.0741(2)
C9A C 0.0100(6) -0.1124(3) 1.0759(3)
H10A H -0.0428 -0.1113 1.0622
C10A C 0.0328(6) -0.1586(4) 1.0974(3)
H12A H -0.0061 -0.1888 1.0985
C11A C 0.1627(6) -0.1203(3) 1.1158(3)
H13A H 0.2153 -0.1230 1.1295
C12A C 0.1432(6) -0.0700(4) 1.0939(3)
H14A H 0.1828 -0.0402 1.0930
C13A C -0.5312(6) 0.1113(4) 0.9891(3)
C14A C -0.6177(11) 0.1379(9) 0.9947(6)
H15A H -0.6603 0.1358 0.9746
C15A C -0.6311(12) 0.1662(8) 1.0319(5)
H16A H -0.6873 0.1741 1.0403
C16A C -0.5647(11) 0.1824(8) 1.0557(6)
H17A H -0.5757 0.2060 1.0781
C17A C -0.4779(6) 0.1648(4) 1.0480(3)
C18A C -0.4645(6) 0.1306(3) 1.0130(2)
H18A H -0.4083 0.1207 1.0059
C19A C -0.5180(5) 0.0748(3) 0.9521(2)
C20A C -0.4071(6) 0.1874(4) 1.0743(3)
O6 O 0.291(3) -0.1797(13) 0.6189(11)
H7 H 0.2535 -0.1971 0.6315
C21 C 0.321(5) -0.078(2) 0.608(2)
H19 H 0.2797 -0.0474 0.6108
H20 H 0.3184 -0.0925 0.5802
H21 H 0.3782 -0.0628 0.6127
C22 C 0.302(4) -0.1231(17) 0.6373(17)
H22 H 0.3492 -0.1250 0.6572
H23 H 0.2502 -0.1132 0.6522
O7 O 0.0874(19) -0.0776(13) 0.6809(9)
H9 H 0.1205 -0.0968 0.6669
C23 C 0.226(3) -0.0816(19) 0.7290(16)
H24 H 0.2691 -0.0526 0.7272
H25 H 0.2368 -0.1107 0.7088
H26 H 0.2265 -0.0982 0.7561
C24 C 0.137(3) -0.055(2) 0.7210(15)
H27 H 0.1439 -0.0141 0.7186
H28 H 0.1006 -0.0623 0.7448
O8? O 0.516(3) 0.0521(18) 0.7415(15)
H11? H 0.4700 0.0695 0.7443
C25? C 0.543(6) -0.002(5) 0.686(3)
H29? H 0.5161 0.0231 0.6662
H30? H 0.5421 -0.0404 0.6753
H31? H 0.6015 0.0097 0.6903
C26? C 0.5000 0.0000 0.721(3)
H32? H 0.5177 -0.0316 0.7382
H33? H 0.4387 -0.0039 0.7154
C27? C 0.1342(15) 0.1349(11) 0.7546(7)
C28? C 0.119(3) 0.1217(17) 0.7973(12)
C29? C 0.1863(19) 0.0974(13) 0.8186(10)
C30? C 0.168(2) 0.0081(16) 0.5418(11)
C31? C 0.097(3) -0.0121(17) 0.5728(11)
H34? H 0.0877 0.1410 0.7370
H35? H 0.0660 0.1292 0.8098
H36? H 0.1791 0.0884 0.8463
H37? H 0.1816 0.0474 0.5471
H38? H 0.1465 0.0043 0.5141
H39? H 0.2185 -0.0148 0.5451
H40? H 0.0786 -0.0512 0.5680
H41? H 0.0467 0.0129 0.5733
H42? H 0.1976 -0.0280 0.6124
O9? O 0.1572(19) -0.0054(12) 0.6137(8)
loop_
_geom_bond_atom_site_label_1
_geom_bond_atom_site_label_2
_geom_bond_site_symmetry_1
_geom_bond_site_symmetry_2
Ni1 O1 1_555 1_555
O1 C19 1_555 1_555
N1 Ni1 1_555 1_555
C1 N1 1_555 1_555
H1 C1 1_555 1_555
C2 C1 1_555 1_555
H2 C2 1_555 1_555
N2 C10 1_555 1_555
O2 C19 1_555 1_555
C3 C2 1_555 1_555
O3 C20 1_555 1_555
C4 C3 1_555 1_555
H3 C4 1_555 1_555
O4 C20 1_555 1_555
O5 Ni1 1_555 1_555
H4 O5 1_555 1_555
C5 N1 1_555 1_555
H5 C5 1_555 1_555
C6 C3 1_555 1_555
H6 C6 1_555 1_555
O6 H7 1_555 1_555
C7 C6 1_555 1_555
H8 C7 1_555 1_555
C8 C7 1_555 1_555
O7 H9 1_555 1_555
C9 C8 1_555 1_555
H10 C9 1_555 1_555
C10 C9 1_555 1_555
H12 C10 1_555 1_555
C11 N2 1_555 1_555
H13 C11 1_555 1_555
C12 C8 1_555 1_555
H14 C12 1_555 1_555
C13 C14 1_555 1_555
C14 H15 1_555 1_555
C15 C14 1_555 1_555
H16 C15 1_555 1_555
C16 C15 1_555 1_555
H17 C16 1_555 1_555
C17 C16 1_555 1_555
C18 C13 1_555 1_555
H18 C18 1_555 1_555
C19 C13 1_555 1_555
C20 C17 1_555 1_555
C21 H19 1_555 1_555
H20 C21 1_555 1_555
H21 C21 1_555 1_555
C22 O6 1_555 1_555
H22 C22 1_555 1_555
H23 C22 1_555 1_555
C23 H24 1_555 1_555
H25 C23 1_555 1_555
H26 C23 1_555 1_555
C24 O7 1_555 1_555
H27 C24 1_555 1_555
H28 C24 1_555 1_555
Ni1A O2 1_555 1_555
Ni1B N2 1_555 1_555
Ni1N O3 1_555 1_555
Ni1A_2 O1A_2 1_555 1_555
Ni1O N2A 1_555 1_555
Ni1C O3A 1_555 1_555
O1A Ni1A 1_555 1_555
N1A Ni1A_2 1_555 1_555
C1A N1A 1_555 1_555
H1A C1A 1_555 1_555
C2A C1A 1_555 1_555
H2A C2A 1_555 1_555
N2A C10A 1_555 1_555
N2J Ni1 1_555 1_555
N2G Ni1A_2 1_555 1_555
O2A Ni1 1_555 1_555
O2_2 Ni1A_2 1_555 1_555
C3A C2A 1_555 1_555
O3A C20A 1_555 1_555
O3F Ni1 1_555 1_555
O3K Ni1A_2 1_555 1_555
C4A C3A 1_555 1_555
H3A C4A 1_555 1_555
O4A C20A 1_555 1_555
O5_2 Ni1A_2 1_555 1_555
H4A O5 1_555 1_555
H4_2 O5_2 1_555 1_555
H4A_2 O5_2 1_555 1_555
C5A N1A 1_555 1_555
H5A C5A 1_555 1_555
C6A C6 1_555 1_555
H6A C6A 1_555 1_555
C7A C7 1_555 1_555
H8A C7A 1_555 1_555
C8A C7A 1_555 1_555
C9A C8A 1_555 1_555
H10A C9A 1_555 1_555
C10A C9A 1_555 1_555
H12A C10A 1_555 1_555
C11A N2A 1_555 1_555
H13A C11A 1_555 1_555
C12A C8A 1_555 1_555
H14A C12A 1_555 1_555
C13A C14A 1_555 1_555
C14A H15A 1_555 1_555
C15A C14A 1_555 1_555
H16A C15A 1_555 1_555
C16A C15A 1_555 1_555
H17A C16A 1_555 1_555
C17A C16A 1_555 1_555
C18A C13A 1_555 1_555
H18A C18A 1_555 1_555
C19A O1A 1_555 1_555
C20A C17A 1_555 1_555
C4 C5 1_555 1_555
O5 Ni1A 1_555 1_555
C11 C12 1_555 1_555
C17 C18 1_555 1_555
C21 C22 1_555 1_555
C23 C24 1_555 1_555
O2A C19A 1_555 1_555
C3A C6A 1_555 1_555
C4A C5A 1_555 1_555
C6A C7A 1_555 1_555
C11A C12A 1_555 1_555
C13A C19A 1_555 1_555
C17A C18A 1_555 1_555

#END
