
#######################################################################
#
#                 Cambridge Crystallographic Data Centre
#                                CCDC 
#
#######################################################################
#
# If this CIF has been generated from an entry in the Cambridge 
# Structural Database, then it will include bibliographic, chemical, 
# crystal, experimental, refinement or atomic coordinate data resulting 
# from the CCDC's data processing and validation procedures.
#
#######################################################################

data_KALFOU
_chemical_formula_moiety         '(C40 H30 N4 Ni2 O9)n,2n(C10 H8)'
_chemical_name_systematic        
'catena-((\m~4~-1,2,3,4-tetrakis(pyridin-4-yl)cyclobutane)-bis(\m~3~-isophthalato)-(\m~2~-aqua)-di-nickel bis(naphthalene))'
_symmetry_cell_setting           orthorhombic
_symmetry_space_group_name_H-M   'F d d 2'
_symmetry_Int_Tables_number      43
_space_group_name_Hall           'F 2 -2d'
loop_
_symmetry_equiv_pos_site_id
_symmetry_equiv_pos_as_xyz
1 x,y,z
2 -x,-y,z
3 1/4+x,1/4-y,1/4+z
4 1/4-x,1/4+y,1/4+z
5 x,1/2+y,1/2+z
6 -x,1/2-y,1/2+z
7 1/4+x,3/4-y,3/4+z
8 1/4-x,3/4+y,3/4+z
9 1/2+x,y,1/2+z
10 1/2-x,-y,1/2+z
11 3/4+x,1/4-y,3/4+z
12 3/4-x,1/4+y,3/4+z
13 1/2+x,1/2+y,z
14 1/2-x,1/2-y,z
15 3/4+x,3/4-y,1/4+z
16 3/4-x,3/4+y,1/4+z
_cell_length_a                   15.322(3)
_cell_length_b                   24.083(5)
_cell_length_c                   31.621(6)
_cell_angle_alpha                90
_cell_angle_beta                 90
_cell_angle_gamma                90
_cell_volume                     11668.1
_exptl_crystal_colour            green
_exptl_crystal_description       block
_cell_formula_units_Z            8
loop_
_atom_site_label
_atom_site_type_symbol
_atom_site_fract_x
_atom_site_fract_y
_atom_site_fract_z
Ni1 Ni 0.61149(4) 0.01087(3) 0.407371(19)
N1 N 0.7266(3) 0.01389(19) 0.44221(14)
N2 N 0.8911(3) 0.1635(2) 0.62807(14)
O1 O 0.5866(2) -0.06328(16) 0.43569(11)
O2 O 0.4462(2) -0.05559(16) 0.45541(11)
O3 O 0.3342(3) -0.1828(2) 0.57005(14)
O4 O 0.4347(2) -0.22159(16) 0.61133(11)
O5 O 0.5000 0.0000 0.36958(17)
H1 H 0.482(6) 0.024(3) 0.351(2)
C1 C 0.7838(4) -0.0270(3) 0.44073(19)
H2 H 0.7703 -0.0584 0.4243
C2 C 0.8626(4) -0.0260(3) 0.4621(2)
H3 H 0.9019 -0.0558 0.4595
C3 C 0.8833(3) 0.0190(2) 0.48731(16)
C4 C 0.8240(4) 0.0626(3) 0.48783(19)
H4 H 0.8366 0.0950 0.5033
C5 C 0.7474(4) 0.0588(3) 0.46594(19)
H5 H 0.7077 0.0884 0.4674
C6 C 0.9645(3) 0.0229(2) 0.51325(16)
H6 H 0.9925 0.0594 0.5082
C7 C 0.9537(3) 0.0138(2) 0.56203(16)
H7 H 0.9084 -0.0147 0.5674
C8 C 0.9350(3) 0.0644(2) 0.58726(15)
C9 C 0.8519(4) 0.0732(3) 0.6027(2)
H8 H 0.8083 0.0461 0.5992
C10 C 0.8337(4) 0.1228(3) 0.6236(2)
H9 H 0.7776 0.1276 0.6351
C11 C 0.9706(4) 0.1548(3) 0.6124(2)
H10 H 1.0128 0.1828 0.6156
C12 C 0.9939(4) 0.1069(3) 0.5917(2)
H11 H 1.0505 0.1033 0.5805
C13 C 0.5369(4) -0.1181(3) 0.49284(18)
C14 C 0.6186(4) -0.1408(4) 0.4982(2)
H12 H 0.6642 -0.1303 0.4799
C15 C 0.6344(5) -0.1783(4) 0.5297(3)
H13 H 0.6907 -0.1933 0.5327
C16 C 0.5700(4) -0.1946(3) 0.5568(2)
H14 H 0.5824 -0.2191 0.5791
C17 C 0.4847(4) -0.1742(3) 0.55082(19)
C18 C 0.4690(4) -0.1364(3) 0.51825(17)
H15 H 0.4120 -0.1232 0.5135
C19 C 0.4110(4) -0.1943(3) 0.57925(17)
C20 C 0.5211(3) -0.0749(2) 0.45878(16)
Ni1A Ni 1.38851(4) -0.01087(3) 0.407371(19)
Ni1B Ni 0.86149(4) 0.23913(3) 0.657371(19)
Ni1A_2 Ni 0.38851(4) -0.01087(3) 0.407371(19)
Ni1N Ni 0.36149(4) -0.26087(3) 0.657371(19)
Ni1O Ni 1.13851(4) -0.23913(3) 0.657371(19)
Ni1C Ni 0.63851(4) 0.26087(3) 0.657371(19)
N1A N 1.2734(3) -0.01389(19) 0.44221(14)
N2A N 1.1089(3) -0.1635(2) 0.62807(14)
N2J N 0.6411(3) 0.0865(2) 0.37807(14)
N2G N 1.3589(3) -0.0865(2) 0.37807(14)
O1A O 0.4134(2) 0.06328(16) 0.43569(11)
O1A_2 O 1.4134(2) 0.06328(16) 0.43569(11)
O2A O 0.5538(2) 0.05559(16) 0.45541(11)
O2_2 O 1.4462(2) -0.05559(16) 0.45541(11)
O3A O 0.6658(3) 0.1828(2) 0.57005(14)
O4A O 0.5653(2) 0.22159(16) 0.61133(11)
O4F O 0.6847(2) -0.02841(16) 0.36133(11)
O4K O 1.3153(2) 0.02841(16) 0.36133(11)
O5_2 O 1.5000 0.0000 0.36958(17)
H1A H 0.518(6) -0.024(3) 0.351(2)
H1A_2 H 1.518(6) -0.024(3) 0.351(2)
H1_2 H 1.482(6) 0.024(3) 0.351(2)
C1A C 1.2162(4) 0.0270(3) 0.44073(19)
H2A H 1.2297 0.0584 0.4243
C2A C 1.1374(4) 0.0260(3) 0.4621(2)
H3A H 1.0981 0.0558 0.4595
C3A C 1.1167(3) -0.0190(2) 0.48731(16)
C4A C 1.1760(4) -0.0626(3) 0.48783(19)
H4A H 1.1634 -0.0950 0.5033
C5A C 1.2526(4) -0.0588(3) 0.46594(19)
H5A H 1.2923 -0.0884 0.4674
C6A C 1.0355(3) -0.0229(2) 0.51325(16)
H6A H 1.0075 -0.0594 0.5082
C7A C 1.0463(3) -0.0138(2) 0.56203(16)
H7A H 1.0916 0.0147 0.5674
C8A C 1.0650(3) -0.0644(2) 0.58726(15)
C9A C 1.1481(4) -0.0732(3) 0.6027(2)
H8A H 1.1917 -0.0461 0.5992
C10A C 1.1663(4) -0.1228(3) 0.6236(2)
H9A H 1.2224 -0.1276 0.6351
C11A C 1.0294(4) -0.1548(3) 0.6124(2)
H10A H 0.9872 -0.1828 0.6156
C12A C 1.0061(4) -0.1069(3) 0.5917(2)
H11A H 0.9495 -0.1033 0.5805
C13A C 0.4631(4) 0.1181(3) 0.49284(18)
C14A C 0.3814(4) 0.1408(4) 0.4982(2)
H12A H 0.3358 0.1303 0.4799
C15A C 0.3656(5) 0.1783(4) 0.5297(3)
H13A H 0.3093 0.1933 0.5327
C16A C 0.4300(4) 0.1946(3) 0.5568(2)
H14A H 0.4176 0.2191 0.5791
C17A C 0.5153(4) 0.1742(3) 0.55082(19)
C18A C 0.5310(4) 0.1364(3) 0.51825(17)
H15A H 0.5880 0.1232 0.5135
C19A C 0.5890(4) 0.1943(3) 0.57925(17)
C20A C 0.4789(3) 0.0749(2) 0.45878(16)
C21 C 1.0248(13) 0.2195(8) 0.4377(7)
H16 H 1.0421 0.2388 0.4621
C22 C 0.9681(13) 0.1782(9) 0.4427(7)
H17 H 0.9330 0.1759 0.4670
C23 C 0.9628(13) 0.1402(8) 0.4121(7)
H18 H 0.9335 0.1062 0.4160
C24 C 1.0005(12) 0.1530(8) 0.3769(7)
H19 H 0.9933 0.1275 0.3547
C25 C 1.0819(13) 0.2135(8) 0.3264(6)
H20 H 1.0668 0.1912 0.3032
C26 C 1.1303(12) 0.2558(8) 0.3198(7)
H21 H 1.1550 0.2625 0.2931
C27 C 1.1453(12) 0.2915(8) 0.3537(6)
H22 H 1.1799 0.3231 0.3486
C28 C 1.1142(12) 0.2844(8) 0.3932(6)
H23 H 1.1266 0.3090 0.4155
C29 C 1.0484(13) 0.1979(8) 0.3682(7)
C30 C 1.0618(14) 0.2372(8) 0.3982(7)
loop_
_geom_bond_atom_site_label_1
_geom_bond_atom_site_label_2
_geom_bond_site_symmetry_1
_geom_bond_site_symmetry_2
Ni1 N1 1_555 1_555
N1 C1 1_555 1_555
N2 C10 1_555 1_555
O1 Ni1 1_555 1_555
O2 C20 1_555 1_555
O3 C19 1_555 1_555
O4 C19 1_555 1_555
O5 Ni1 1_555 1_555
H1 O5 1_555 1_555
C1 H2 1_555 1_555
C2 C1 1_555 1_555
H3 C2 1_555 1_555
C3 C2 1_555 1_555
C4 C3 1_555 1_555
H4 C4 1_555 1_555
C5 N1 1_555 1_555
H5 C5 1_555 1_555
C6 C3 1_555 1_555
H6 C6 1_555 1_555
C7 C6 1_555 1_555
H7 C7 1_555 1_555
C8 C7 1_555 1_555
C9 C8 1_555 1_555
H8 C9 1_555 1_555
C10 C9 1_555 1_555
H9 C10 1_555 1_555
C11 N2 1_555 1_555
H10 C11 1_555 1_555
C12 C8 1_555 1_555
H11 C12 1_555 1_555
C13 C14 1_555 1_555
C14 H12 1_555 1_555
C15 C14 1_555 1_555
H13 C15 1_555 1_555
C16 C15 1_555 1_555
H14 C16 1_555 1_555
C17 C16 1_555 1_555
C18 C13 1_555 1_555
H15 C18 1_555 1_555
C19 C17 1_555 1_555
C20 O1 1_555 1_555
C21 H16 1_555 1_555
C22 C21 1_555 1_555
H17 C22 1_555 1_555
C23 C22 1_555 1_555
H18 C23 1_555 1_555
C24 C23 1_555 1_555
H19 C24 1_555 1_555
C25 H20 1_555 1_555
C26 C25 1_555 1_555
H21 C26 1_555 1_555
C27 C26 1_555 1_555
H22 C27 1_555 1_555
C28 C27 1_555 1_555
H23 C28 1_555 1_555
C29 C24 1_555 1_555
C30 C21 1_555 1_555
Ni1A N1A 1_555 1_555
Ni1B N2 1_555 1_555
Ni1A_2 O2 1_555 1_555
Ni1N O4 1_555 1_555
Ni1O N2A 1_555 1_555
Ni1C O4A 1_555 1_555
N1A C1A 1_555 1_555
N2A C10A 1_555 1_555
N2J Ni1 1_555 1_555
N2G Ni1A 1_555 1_555
O1A Ni1A_2 1_555 1_555
O1A_2 Ni1A 1_555 1_555
O2A Ni1 1_555 1_555
O2_2 Ni1A 1_555 1_555
O3A C19A 1_555 1_555
O4A C19A 1_555 1_555
O4F Ni1 1_555 1_555
O4K Ni1A 1_555 1_555
O5_2 Ni1A 1_555 1_555
H1A O5 1_555 1_555
H1A_2 O5_2 1_555 1_555
H1_2 O5_2 1_555 1_555
C1A H2A 1_555 1_555
C2A C1A 1_555 1_555
H3A C2A 1_555 1_555
C3A C2A 1_555 1_555
C4A C3A 1_555 1_555
H4A C4A 1_555 1_555
C5A N1A 1_555 1_555
H5A C5A 1_555 1_555
C6A C6 1_555 1_555
H6A C6A 1_555 1_555
C7A C7 1_555 1_555
H7A C7A 1_555 1_555
C8A C7A 1_555 1_555
C9A C8A 1_555 1_555
H8A C9A 1_555 1_555
C10A C9A 1_555 1_555
H9A C10A 1_555 1_555
C11A N2A 1_555 1_555
H10A C11A 1_555 1_555
C12A C8A 1_555 1_555
H11A C12A 1_555 1_555
C13A C14A 1_555 1_555
C14A H12A 1_555 1_555
C15A C14A 1_555 1_555
H13A C15A 1_555 1_555
C16A C15A 1_555 1_555
H14A C16A 1_555 1_555
C17A C16A 1_555 1_555
C18A C13A 1_555 1_555
H15A C18A 1_555 1_555
C19A C17A 1_555 1_555
C20A O1A 1_555 1_555
O5 Ni1A_2 1_555 1_555
C4 C5 1_555 1_555
C11 C12 1_555 1_555
C13 C20 1_555 1_555
C17 C18 1_555 1_555
C25 C29 1_555 1_555
C28 C30 1_555 1_555
C29 C30 1_555 1_555
O2A C20A 1_555 1_555
C3A C6A 1_555 1_555
C4A C5A 1_555 1_555
C6A C7A 1_555 1_555
C11A C12A 1_555 1_555
C13A C20A 1_555 1_555
C17A C18A 1_555 1_555

#END
