
#######################################################################
#
#                 Cambridge Crystallographic Data Centre
#                                CCDC 
#
#######################################################################
#
# If this CIF has been generated from an entry in the Cambridge 
# Structural Database, then it will include bibliographic, chemical, 
# crystal, experimental, refinement or atomic coordinate data resulting 
# from the CCDC's data processing and validation procedures.
#
#######################################################################

data_XUDNUH
_chemical_name_common            DUT-71
_chemical_formula_moiety         '(C68 H48 Cu4 N4 O20)n'
_chemical_name_systematic        
"catena-[bis(\m-4,4',4'',4'''-(1,3-phenylenedinitrilo)tetrabenzoato)-tetra-aqua-tetra-copper unknown solvate]"
_symmetry_cell_setting           tetragonal
_symmetry_space_group_name_H-M   'P 4/m n c'
_symmetry_Int_Tables_number      128
_space_group_name_Hall           '-P 4 2n'
loop_
_symmetry_equiv_pos_site_id
_symmetry_equiv_pos_as_xyz
1 x,y,z
2 -x,-y,z
3 -y,x,z
4 y,-x,z
5 1/2-x,1/2+y,1/2-z
6 1/2+x,1/2-y,1/2-z
7 1/2+y,1/2+x,1/2-z
8 1/2-y,1/2-x,1/2-z
9 -x,-y,-z
10 x,y,-z
11 y,-x,-z
12 -y,x,-z
13 1/2+x,1/2-y,1/2+z
14 1/2-x,1/2+y,1/2+z
15 1/2-y,1/2-x,1/2+z
16 1/2+y,1/2+x,1/2+z
_cell_length_a                   26.600(4)
_cell_length_b                   26.600(4)
_cell_length_c                   27.120(5)
_cell_angle_alpha                90
_cell_angle_beta                 90
_cell_angle_gamma                90
_cell_volume                     19189
_exptl_crystal_colour            green
_exptl_crystal_description       block
_cell_formula_units_Z            4
_chemical_properties_physical    Moisture-sensitive
loop_
_atom_site_label
_atom_site_type_symbol
_atom_site_fract_x
_atom_site_fract_y
_atom_site_fract_z
Cu1 Cu 1.0000 1.0000 0.147563(19)
Cu2 Cu 1.0000 1.0000 0.244790(19)
Cu3 Cu 0.522092(11) 1.044207(16) 0.0000
N1 N 0.70966(6) 0.89412(8) 0.19624(9)
O1 O 0.93060(4) 0.97559(5) 0.23740(7)
O2 O 0.92903(4) 0.98080(5) 0.15457(7)
O3 O 0.56533(7) 1.01475(9) 0.05078(9)
O4 O 0.52790(6) 0.93841(9) 0.05037(9)
O5 O 0.55814(12) 1.11714(13) 0.0000
O6 O 1.0000 1.0000 0.0677(3)
O7 O 1.0000 1.0000 0.3264(2)
C1 C 0.90942(6) 0.97146(6) 0.19614(9)
C2 C 0.85629(6) 0.95332(7) 0.19650(9)
C3 C 0.83059(7) 0.94670(10) 0.15161(11)
H1 H 0.8460 0.9548 0.1219
C4 C 0.78197(8) 0.92789(11) 0.15229(11)
H2 H 0.7647 0.9236 0.1228
C5 C 0.75890(7) 0.91553(9) 0.19607(11)
C6 C 0.78441(8) 0.92188(11) 0.23943(11)
H3 H 0.7691 0.9131 0.2690
C7 C 0.83263(7) 0.94124(10) 0.23978(11)
H4 H 0.8491 0.9461 0.2696
C8 C 0.67233(7) 0.91318(9) 0.16489(12)
C9 C 0.66925(8) 0.96364(10) 0.15339(13)
H5 H 0.6926 0.9856 0.1672
C10 C 0.63409(7) 0.98227(10) 0.12323(13)
H6 H 0.6327 1.0167 0.1172
C11 C 0.59891(7) 0.94966(10) 0.10040(13)
C12 C 0.60114(8) 0.89965(10) 0.11266(13)
H7 H 0.5771 0.8779 0.0997
C13 C 0.63714(8) 0.88060(10) 0.14298(14)
H8 H 0.6385 0.8462 0.1492
C14 C 0.56143(8) 0.96984(12) 0.06424(14)
C15 C 0.70221(7) 0.84904(8) 0.22408(13)
C16 C 0.73888(10) 0.81188(11) 0.2244(2)
H9 H 0.7687 0.8166 0.2070
C17 C 0.65870(8) 0.84130(8) 0.2500
H10 H 0.6340 0.8660 0.2500
C18 C 0.73125(11) 0.76875(11) 0.2500
H11 H 0.7560 0.7440 0.2500
N1G N 0.60588(8) 0.79034(6) 0.30376(9)
O1G O 0.52441(5) 0.56940(4) 0.26260(7)
O2G O 0.51920(5) 0.57097(4) 0.34543(7)
O3G O 0.48525(9) 0.93467(7) 0.44922(9)
O4G O 0.56159(9) 0.97210(6) 0.44963(9)
C1G C 0.52854(6) 0.59058(6) 0.30386(9)
C2G C 0.54668(7) 0.64371(6) 0.30350(9)
C3G C 0.55330(10) 0.66941(7) 0.34839(11)
H1G H 0.5452 0.6540 0.3781
C4G C 0.57211(11) 0.71803(8) 0.34771(11)
H2G H 0.5764 0.7353 0.3772
C5G C 0.58447(9) 0.74110(7) 0.30393(11)
C6G C 0.57812(11) 0.71559(8) 0.26057(11)
H3G H 0.5869 0.7309 0.2310
C7G C 0.55876(10) 0.66737(7) 0.26022(11)
H4G H 0.5539 0.6509 0.2304
C8G C 0.58682(9) 0.82767(7) 0.33511(12)
C9G C 0.53636(10) 0.83075(8) 0.34661(13)
H5G H 0.5144 0.8074 0.3328
C10G C 0.51773(10) 0.86591(7) 0.37677(13)
H6G H 0.4833 0.8673 0.3828
C11G C 0.55034(10) 0.90109(7) 0.39960(13)
C12G C 0.60035(10) 0.89886(8) 0.38734(13)
H7G H 0.6221 0.9229 0.4003
C13G C 0.61940(10) 0.86286(8) 0.35702(14)
H8G H 0.6538 0.8615 0.3508
C14G C 0.53016(12) 0.93857(8) 0.43576(14)
C15G C 0.65096(8) 0.79779(7) 0.27592(13)
C16G C 0.68812(11) 0.76112(10) 0.2756(2)
H9G H 0.6834 0.7313 0.2930
Cu3A Cu 0.477908(11) 0.955793(16) 0.0000
N1A N 0.29034(6) 1.10588(8) 0.19624(9)
O1A O 0.06940(4) 1.02441(5) 0.23740(7)
O2A O 0.07097(4) 1.01920(5) 0.15457(7)
O3A O 0.43467(7) 0.98525(9) 0.05078(9)
O4A O 0.47210(6) 1.06159(9) 0.05037(9)
O5A O 0.44186(12) 0.88286(13) 0.0000
C1A C 0.09058(6) 1.02854(6) 0.19614(9)
C2A C 0.14371(6) 1.04668(7) 0.19650(9)
C3A C 0.16941(7) 1.05330(10) 0.15161(11)
H1A H 0.1540 1.0452 0.1219
C4A C 0.21803(8) 1.07211(11) 0.15229(11)
H2A H 0.2353 1.0764 0.1228
C5A C 0.24110(7) 1.08447(9) 0.19607(11)
C6A C 0.21559(8) 1.07812(11) 0.23943(11)
H3A H 0.2309 1.0869 0.2690
C7A C 0.16737(7) 1.05876(10) 0.23978(11)
H4A H 0.1509 1.0539 0.2696
C8A C 0.32767(7) 1.08682(9) 0.16489(12)
C9A C 0.33075(8) 1.03636(10) 0.15339(13)
H5A H 0.3074 1.0144 0.1672
C10A C 0.36591(7) 1.01773(10) 0.12323(13)
H6A H 0.3673 0.9833 0.1172
C11A C 0.40109(7) 1.05034(10) 0.10040(13)
C12A C 0.39886(8) 1.10035(10) 0.11266(13)
H7A H 0.4229 1.1221 0.0997
C13A C 0.36286(8) 1.11940(10) 0.14298(14)
H8A H 0.3615 1.1538 0.1492
C14A C 0.43857(8) 1.03016(12) 0.06424(14)
C15A C 0.29779(7) 1.15096(8) 0.22408(13)
C16A C 0.26112(10) 1.18812(11) 0.2244(2)
H9A H 0.2313 1.1834 0.2070
C17A C 0.34130(8) 1.15870(8) 0.2500
H10A H 0.3660 1.1340 0.2500
C18A C 0.26875(11) 1.23125(11) 0.2500
H11A H 0.2440 1.2560 0.2500
N1F N 0.39412(8) 1.20966(6) 0.30376(9)
O1F O 0.47559(5) 1.43060(4) 0.26260(7)
O2F O 0.48080(5) 1.42903(4) 0.34543(7)
O3F O 0.51475(9) 1.06533(7) 0.44922(9)
O4F O 0.43841(9) 1.02790(6) 0.44963(9)
C1F C 0.47146(6) 1.40942(6) 0.30386(9)
C2F C 0.45332(7) 1.35629(6) 0.30350(9)
C3F C 0.44670(10) 1.33059(7) 0.34839(11)
H1F H 0.4548 1.3460 0.3781
C4F C 0.42789(11) 1.28197(8) 0.34771(11)
H2F H 0.4236 1.2647 0.3772
C5F C 0.41553(9) 1.25890(7) 0.30393(11)
C6F C 0.42188(11) 1.28441(8) 0.26057(11)
H3F H 0.4131 1.2691 0.2310
C7F C 0.44124(10) 1.33263(7) 0.26022(11)
H4F H 0.4461 1.3491 0.2304
C8F C 0.41318(9) 1.17233(7) 0.33511(12)
C9F C 0.46364(10) 1.16925(8) 0.34661(13)
H5F H 0.4856 1.1926 0.3328
C10F C 0.48227(10) 1.13409(7) 0.37677(13)
H6F H 0.5167 1.1327 0.3828
C11F C 0.44966(10) 1.09891(7) 0.39960(13)
C12F C 0.39965(10) 1.10114(8) 0.38734(13)
H7F H 0.3779 1.0771 0.4003
C13F C 0.38060(10) 1.13714(8) 0.35702(14)
H8F H 0.3462 1.1385 0.3508
C14F C 0.46984(12) 1.06143(8) 0.43576(14)
C15F C 0.34904(8) 1.20221(7) 0.27592(13)
C16F C 0.31188(11) 1.23888(10) 0.2756(2)
H9F H 0.3166 1.2687 0.2930
Cu1_2 Cu 0.0000 1.0000 0.147563(19)
Cu1D Cu 0.5000 0.5000 0.352437(19)
Cu1D_2 Cu 0.5000 1.5000 0.352437(19)
Cu2_2 Cu 0.0000 1.0000 0.244790(19)
Cu2D Cu 0.5000 0.5000 0.255210(19)
Cu2D_2 Cu 0.5000 1.5000 0.255210(19)
Cu3F Cu 0.544207(16) 1.022092(11) 0.5000
Cu3G Cu 0.455793(16) 0.977908(11) 0.5000
O1A_2 O 1.06940(4) 1.02441(5) 0.23740(7)
O1B O 1.02441(5) 0.93060(4) 0.23740(7)
O1C O 0.97559(5) 1.06940(4) 0.23740(7)
O2A_2 O 1.07097(4) 1.01920(5) 0.15457(7)
O2B O 1.01920(5) 0.92903(4) 0.15457(7)
O2C O 0.98080(5) 1.07097(4) 0.15457(7)
O3H O 0.43467(7) 0.98525(9) -0.05078(9)
O3I O 0.56533(7) 1.01475(9) -0.05078(9)
O4H O 0.47210(6) 1.06159(9) -0.05037(9)
O4I O 0.52790(6) 0.93841(9) -0.05037(9)
loop_
_geom_bond_atom_site_label_1
_geom_bond_atom_site_label_2
_geom_bond_site_symmetry_1
_geom_bond_site_symmetry_2
Cu1 O2 1_555 1_555
Cu2 O1 1_555 1_555
Cu3 O3 1_555 1_555
N1 C5 1_555 1_555
O1 C1 1_555 1_555
O2 C1 1_555 1_555
O3 C14 1_555 1_555
O4 C14 1_555 1_555
O5 Cu3 1_555 1_555
O6 Cu1 1_555 1_555
O7 Cu2 1_555 1_555
C1 C2 1_555 1_555
C2 C3 1_555 1_555
C3 H1 1_555 1_555
C4 C3 1_555 1_555
H2 C4 1_555 1_555
C5 C4 1_555 1_555
C6 C5 1_555 1_555
H3 C6 1_555 1_555
C7 C2 1_555 1_555
H4 C7 1_555 1_555
C8 N1 1_555 1_555
C9 C8 1_555 1_555
H5 C9 1_555 1_555
C10 C9 1_555 1_555
H6 C10 1_555 1_555
C11 C10 1_555 1_555
C12 C11 1_555 1_555
H7 C12 1_555 1_555
C13 C8 1_555 1_555
H8 C13 1_555 1_555
C14 C11 1_555 1_555
C15 N1 1_555 1_555
C16 C15 1_555 1_555
H9 C16 1_555 1_555
C17 C15 1_555 1_555
H10 C17 1_555 1_555
C18 C16 1_555 1_555
H11 C18 1_555 1_555
N1G C5G 1_555 1_555
O1G C1G 1_555 1_555
O2G C1G 1_555 1_555
O3G C14G 1_555 1_555
O4G C14G 1_555 1_555
C1G C2G 1_555 1_555
C2G C3G 1_555 1_555
C3G H1G 1_555 1_555
C4G C3G 1_555 1_555
H2G C4G 1_555 1_555
C5G C4G 1_555 1_555
C6G C5G 1_555 1_555
H3G C6G 1_555 1_555
C7G C2G 1_555 1_555
H4G C7G 1_555 1_555
C8G N1G 1_555 1_555
C9G C8G 1_555 1_555
H5G C9G 1_555 1_555
C10G C9G 1_555 1_555
H6G C10G 1_555 1_555
C11G C10G 1_555 1_555
C12G C11G 1_555 1_555
H7G C12G 1_555 1_555
C13G C8G 1_555 1_555
H8G C13G 1_555 1_555
C14G C11G 1_555 1_555
C15G C17 1_555 1_555
C16G C18 1_555 1_555
H9G C16G 1_555 1_555
Cu3A O4 1_555 1_555
N1A C5A 1_555 1_555
O1A C1A 1_555 1_555
O2A C1A 1_555 1_555
O3A Cu3A 1_555 1_555
O4A Cu3 1_555 1_555
O5A Cu3A 1_555 1_555
C1A C2A 1_555 1_555
C2A C3A 1_555 1_555
C3A H1A 1_555 1_555
C4A C3A 1_555 1_555
H2A C4A 1_555 1_555
C5A C4A 1_555 1_555
C6A C5A 1_555 1_555
H3A C6A 1_555 1_555
C7A C2A 1_555 1_555
H4A C7A 1_555 1_555
C8A N1A 1_555 1_555
C9A C8A 1_555 1_555
H5A C9A 1_555 1_555
C10A C9A 1_555 1_555
H6A C10A 1_555 1_555
C11A C10A 1_555 1_555
C12A C11A 1_555 1_555
H7A C12A 1_555 1_555
C13A C8A 1_555 1_555
H8A C13A 1_555 1_555
C14A O3A 1_555 1_555
C15A N1A 1_555 1_555
C16A C15A 1_555 1_555
H9A C16A 1_555 1_555
C17A C15A 1_555 1_555
H10A C17A 1_555 1_555
C18A C16A 1_555 1_555
H11A C18A 1_555 1_555
N1F C5F 1_555 1_555
O1F C1F 1_555 1_555
O2F C1F 1_555 1_555
O3F C14F 1_555 1_555
O4F C14F 1_555 1_555
C1F C2F 1_555 1_555
C2F C3F 1_555 1_555
C3F H1F 1_555 1_555
C4F C3F 1_555 1_555
H2F C4F 1_555 1_555
C5F C4F 1_555 1_555
C6F C5F 1_555 1_555
H3F C6F 1_555 1_555
C7F C2F 1_555 1_555
H4F C7F 1_555 1_555
C8F N1F 1_555 1_555
C9F C8F 1_555 1_555
H5F C9F 1_555 1_555
C10F C9F 1_555 1_555
H6F C10F 1_555 1_555
C11F C10F 1_555 1_555
C12F C11F 1_555 1_555
H7F C12F 1_555 1_555
C13F C8F 1_555 1_555
H8F C13F 1_555 1_555
C14F C11F 1_555 1_555
C15F C17A 1_555 1_555
C16F C18A 1_555 1_555
H9F C16F 1_555 1_555
Cu1_2 O2A 1_555 1_555
Cu1D O2G 1_555 1_555
Cu1D_2 O2F 1_555 1_555
Cu2_2 O1A 1_555 1_555
Cu2D O1G 1_555 1_555
Cu2D_2 O1F 1_555 1_555
Cu3F O4G 1_555 1_555
Cu3G O3G 1_555 1_555
O1A_2 Cu2 1_555 1_555
O1B Cu2 1_555 1_555
O1C Cu2 1_555 1_555
O2A_2 Cu1 1_555 1_555
O2B Cu1 1_555 1_555
O2C Cu1 1_555 1_555
O3H Cu3A 1_555 1_555
O3I Cu3 1_555 1_555
O4H Cu3 1_555 1_555
O4I Cu3A 1_555 1_555
C6 C7 1_555 1_555
C12 C13 1_555 1_555
N1G C15G 1_555 1_555
C6G C7G 1_555 1_555
C12G C13G 1_555 1_555
C15G C16G 1_555 1_555
O4A C14A 1_555 1_555
C6A C7A 1_555 1_555
C11A C14A 1_555 1_555
C12A C13A 1_555 1_555
N1F C15F 1_555 1_555
O3F Cu3F 1_555 1_555
O4F Cu3G 1_555 1_555
C6F C7F 1_555 1_555
C12F C13F 1_555 1_555
C15F C16F 1_555 1_555

#END
