
#######################################################################
#
#                 Cambridge Crystallographic Data Centre
#                                CCDC 
#
#######################################################################
#
# If this CIF has been generated from an entry in the Cambridge 
# Structural Database, then it will include bibliographic, chemical, 
# crystal, experimental, refinement or atomic coordinate data resulting 
# from the CCDC's data processing and validation procedures.
#
#######################################################################

data_LOXKAM
_chemical_formula_moiety         
'(C154 H112 Cd4 N12 O16 2+)n,C1 O3 2-,10(C3 H7 N1 O1),18(H2 O1)'
_chemical_name_systematic        
"catena-(bis(N,N,N',N'-tetrakis(4-(pyridin-4-yl)phenyl)biphenyl-4,4'-diamine)-tris(\m-biphenyl-4,4'-dicarboxylato)-tetraaqua-tetra-cadmium carbonate N,N-dimethylformamide solvate octadecahydrate)"
_symmetry_cell_setting           monoclinic
_symmetry_space_group_name_H-M   'C 2'
_symmetry_Int_Tables_number      5
_space_group_name_Hall           'C 2y'
loop_
_symmetry_equiv_pos_site_id
_symmetry_equiv_pos_as_xyz
1 x,y,z
2 -x,y,-z
3 1/2+x,1/2+y,z
4 1/2-x,1/2+y,-z
_cell_length_a                   28.950(2)
_cell_length_b                   39.508(3)
_cell_length_c                   10.2785(8)
_cell_angle_alpha                90
_cell_angle_beta                 95.7370(10)
_cell_angle_gamma                90
_cell_volume                     11697.2
_exptl_crystal_colour            yellow
_exptl_crystal_description       prismatic
_cell_formula_units_Z            2
loop_
_atom_site_label
_atom_site_type_symbol
_atom_site_fract_x
_atom_site_fract_y
_atom_site_fract_z
Cd1 Cd 0.239664(8) 0.676039(6) -0.05537(2)
Cd2 Cd 0.232163(7) 0.686339(6) 0.45716(2)
O1 O 0.30626(7) 0.67952(9) 0.5723(2)
O2 O 0.30185(7) 0.66966(8) 0.3629(2)
O3 O 0.17394(8) 0.68258(11) 0.3028(3)
O4 O 0.19887(8) 0.69567(8) 0.1108(3)
O5 O 0.17733(8) 0.67064(8) -0.2054(3)
O6 O 0.19766(8) 0.70381(7) -0.3660(3)
N1 N 0.22594(12) 0.62129(8) 0.0134(3)
N2 N 0.13824(11) 0.42779(8) 0.2448(3)
N3 N 0.23753(11) 0.23044(8) 0.0936(4)
N4 N 0.21525(10) 0.62965(8) 0.5002(3)
N5 N 0.13690(11) 0.43360(8) 0.7441(3)
N6 N 0.25320(13) 0.24201(9) 0.5889(4)
C1 C 0.22947(16) 0.61289(11) 0.1387(4)
H1 H 0.2384 0.6296 0.2000
C2 C 0.22084(15) 0.58161(10) 0.1828(4)
H2 H 0.2242 0.5773 0.2722
C3 C 0.20707(15) 0.55583(10) 0.0962(4)
C4 C 0.2030(2) 0.56477(12) -0.0354(4)
H3 H 0.1943 0.5486 -0.0987
C5 C 0.2118(2) 0.59758(12) -0.0727(5)
H4 H 0.2077 0.6032 -0.1610
C6 C 0.19288(15) 0.52138(10) 0.1387(4)
C7 C 0.17803(15) 0.51673(10) 0.2606(4)
H5 H 0.1789 0.5349 0.3182
C8 C 0.16192(14) 0.48592(10) 0.3002(4)
H6 H 0.1526 0.4835 0.3837
C9 C 0.15957(13) 0.45811(9) 0.2142(4)
C10 C 0.17828(13) 0.46247(10) 0.0943(4)
H7 H 0.1796 0.4441 0.0385
C11 C 0.19463(14) 0.49341(10) 0.0576(4)
H8 H 0.2069 0.4956 -0.0222
C12 C 0.15561(13) 0.39637(9) 0.2082(4)
C13 C 0.20178(14) 0.38910(10) 0.2290(4)
H9 H 0.2223 0.4059 0.2621
C14 C 0.21904(14) 0.35735(10) 0.2022(4)
H10 H 0.2507 0.3530 0.2162
C15 C 0.18862(13) 0.33212(9) 0.1545(4)
C16 C 0.14242(13) 0.33968(10) 0.1282(4)
H11 H 0.1221 0.3230 0.0933
C17 C 0.12551(13) 0.37135(9) 0.1524(4)
H12 H 0.0942 0.3762 0.1318
C18 C 0.20606(13) 0.29673(10) 0.1333(4)
C19 C 0.25242(14) 0.28957(11) 0.1190(5)
H13 H 0.2742 0.3069 0.1229
C20 C 0.26562(14) 0.25718(11) 0.0993(6)
H14 H 0.2967 0.2534 0.0889
C21 C 0.19454(15) 0.23729(11) 0.1115(6)
H15 H 0.1739 0.2192 0.1110
C22 C 0.17759(15) 0.26842(11) 0.1307(5)
H16 H 0.1463 0.2710 0.1424
C23 C 0.09787(13) 0.42898(9) 0.3163(4)
C24 C 0.06706(13) 0.45563(9) 0.3077(4)
H17 H 0.0715 0.4735 0.2514
C25 C 0.02924(14) 0.45635(9) 0.3818(4)
H18 H 0.0101 0.4753 0.3777
C26 C 0.01963(12) 0.42985(10) 0.4606(4)
C27 C 0.04945(14) 0.40212(10) 0.4629(4)
H19 H 0.0428 0.3831 0.5111
C28 C 0.08811(14) 0.40193(10) 0.3968(4)
H20 H 0.1082 0.3835 0.4054
C29 C 0.24652(14) 0.60699(11) 0.5491(4)
H21 H 0.2776 0.6134 0.5599
C30 C 0.23535(13) 0.57474(10) 0.5843(4)
H22 H 0.2587 0.5601 0.6180
C31 C 0.18985(12) 0.56361(9) 0.5703(4)
C32 C 0.15758(13) 0.58702(9) 0.5180(4)
H23 H 0.1263 0.5813 0.5063
C33 C 0.17147(13) 0.61844(10) 0.4835(4)
H24 H 0.1489 0.6331 0.4456
C34 C 0.17758(12) 0.52912(10) 0.6116(4)
C35 C 0.21003(13) 0.50572(9) 0.6606(4)
H25 H 0.2414 0.5112 0.6659
C36 C 0.19682(13) 0.47454(10) 0.7016(4)
H26 H 0.2195 0.4594 0.7357
C37 C 0.15079(13) 0.46487(9) 0.6937(4)
C38 C 0.11721(12) 0.48726(9) 0.6394(4)
H27 H 0.0862 0.4808 0.6295
C39 C 0.12966(13) 0.51855(10) 0.6006(4)
H28 H 0.1068 0.5335 0.5663
C40 C 0.16413(14) 0.40370(10) 0.7245(4)
C41 C 0.17052(14) 0.37877(10) 0.8246(4)
H29 H 0.1605 0.3827 0.9064
C42 C 0.19157(16) 0.34905(11) 0.7985(4)
H30 H 0.1955 0.3328 0.8643
C43 C 0.20751(15) 0.34178(10) 0.6786(4)
C44 C 0.20334(15) 0.36794(10) 0.5835(4)
H31 H 0.2148 0.3645 0.5032
C45 C 0.18288(14) 0.39784(10) 0.6082(4)
H32 H 0.1815 0.4148 0.5453
C46 C 0.22567(16) 0.30848(10) 0.6486(4)
C47 C 0.2256(2) 0.28164(12) 0.7373(5)
H33 H 0.2159 0.2856 0.8195
C48 C 0.23944(19) 0.24964(13) 0.7063(5)
H34 H 0.2393 0.2327 0.7689
C49 C 0.2517(2) 0.26694(12) 0.5027(6)
H35 H 0.2611 0.2621 0.4208
C50 C 0.2374(2) 0.29909(13) 0.5246(5)
H36 H 0.2355 0.3149 0.4571
C51 C 0.09712(13) 0.43185(10) 0.8143(4)
C52 C 0.08577(13) 0.45918(11) 0.8895(4)
H37 H 0.1045 0.4784 0.8936
C53 C 0.04740(13) 0.45848(12) 0.9581(4)
H38 H 0.0396 0.4777 1.0035
C54 C 0.02022(13) 0.42985(11) 0.9610(4)
C55 C 0.03232(14) 0.40277(11) 0.8889(4)
H39 H 0.0145 0.3832 0.8892
C56 C 0.07028(14) 0.40324(11) 0.8147(4)
H40 H 0.0772 0.3844 0.7661
C57 C 0.32494(11) 0.67280(12) 0.4725(4)
C58 C 0.37727(11) 0.66897(14) 0.4802(4)
C59 C 0.40002(12) 0.66138(15) 0.3729(4)
H41 H 0.3825 0.6577 0.2933
C60 C 0.44696(13) 0.65907(16) 0.3780(5)
H42 H 0.4608 0.6540 0.3024
C61 C 0.47492(12) 0.66420(15) 0.4963(4)
C62 C 0.45155(13) 0.67270(18) 0.6065(4)
H43 H 0.4688 0.6767 0.6863
C63 C 0.40348(12) 0.67521(18) 0.5982(4)
H44 H 0.3889 0.6811 0.6716
C64 C 0.16776(11) 0.69027(13) 0.1835(4)
C65 C 0.11794(13) 0.69387(19) 0.1267(4)
C66 C 0.08388(13) 0.6897(2) 0.2065(4)
H45 H 0.0914 0.6839 0.2938
C67 C 0.03739(14) 0.6940(2) 0.1576(4)
H46 H 0.0143 0.6925 0.2141
C68 C 0.02533(13) 0.70061(18) 0.0274(4)
C69 C 0.06066(14) 0.70503(17) -0.0530(5)
H47 H 0.0534 0.7100 -0.1412
C70 C 0.10577(13) 0.70218(17) -0.0035(4)
H48 H 0.1290 0.7059 -0.0581
C71 C 0.16869(10) 0.68669(10) -0.3087(3)
C72 C 0.11787(10) 0.68840(10) -0.3664(3)
C73 C 0.08964(12) 0.66028(11) -0.3560(4)
H49 H 0.1019 0.6413 -0.3114
C74 C 0.04444(12) 0.65957(11) -0.4091(4)
H50 H 0.0268 0.6400 -0.4045
C75 C 0.02457(11) 0.68912(10) -0.4715(3)
C76 C 0.05225(14) 0.71572(11) -0.4795(5)
H51 H 0.0401 0.7354 -0.5193
C77 C 0.09947(13) 0.71527(11) -0.4296(4)
H52 H 0.1180 0.7341 -0.4413
O7 O 0.30666(8) 0.67415(10) 0.0977(3)
H53 H 0.2996 0.6814 0.1710
H54 H 0.3277 0.6867 0.0711
O8 O 0.29346(10) 0.65494(8) -0.1882(3)
H55 H 0.2801 0.6516 -0.2647
H56 H 0.3044 0.6364 -0.1569
O1A O 0.69374(7) 0.67952(9) 0.4277(2)
O2A O 0.69815(7) 0.66966(8) 0.6371(2)
C57A C 0.67506(11) 0.67280(12) 0.5275(4)
C58A C 0.62273(11) 0.66897(14) 0.5198(4)
C59A C 0.59998(12) 0.66138(15) 0.6271(4)
H41A H 0.6175 0.6577 0.7067
C60A C 0.55304(13) 0.65907(16) 0.6220(5)
H42A H 0.5392 0.6540 0.6976
C61A C 0.52508(12) 0.66420(15) 0.5037(4)
C62A C 0.54845(13) 0.67270(18) 0.3935(4)
H43A H 0.5312 0.6767 0.3137
C63A C 0.59652(12) 0.67521(18) 0.4018(4)
H44A H 0.6111 0.6811 0.3284
O3A O -0.17394(8) 0.68258(11) -0.3028(3)
O4A O -0.19887(8) 0.69567(8) -0.1108(3)
C64A C -0.16776(11) 0.69027(13) -0.1835(4)
C65A C -0.11794(13) 0.69387(19) -0.1267(4)
C66A C -0.08388(13) 0.6897(2) -0.2065(4)
H45A H -0.0914 0.6839 -0.2938
C67A C -0.03739(14) 0.6940(2) -0.1576(4)
H46A H -0.0143 0.6925 -0.2141
C68A C -0.02533(13) 0.70061(18) -0.0274(4)
C69A C -0.06066(14) 0.70503(17) 0.0530(5)
H47A H -0.0534 0.7100 0.1412
C70A C -0.10577(13) 0.70218(17) 0.0035(4)
H48A H -0.1290 0.7059 0.0581
O5A O -0.17733(8) 0.67064(8) -0.7946(3)
O6A O -0.19766(8) 0.70381(7) -0.6340(3)
C71A C -0.16869(10) 0.68669(10) -0.6913(3)
C72A C -0.11787(10) 0.68840(10) -0.6336(3)
C73A C -0.08964(12) 0.66028(11) -0.6440(4)
H49A H -0.1019 0.6413 -0.6886
C74A C -0.04444(12) 0.65957(11) -0.5909(4)
H50A H -0.0268 0.6400 -0.5955
C75A C -0.02457(11) 0.68912(10) -0.5285(3)
C76A C -0.05225(14) 0.71572(11) -0.5205(5)
H51A H -0.0401 0.7354 -0.4807
C77A C -0.09947(13) 0.71527(11) -0.5704(4)
H52A H -0.1180 0.7341 -0.5587
N1A N -0.22594(12) 0.62129(8) 0.9866(3)
N2A N -0.13824(11) 0.42779(8) 0.7552(3)
N3A N -0.23753(11) 0.23044(8) 0.9064(4)
C1A C -0.22947(16) 0.61289(11) 0.8613(4)
H1A H -0.2384 0.6296 0.8000
C2A C -0.22084(15) 0.58161(10) 0.8172(4)
H2A H -0.2242 0.5773 0.7278
C3A C -0.20707(15) 0.55583(10) 0.9038(4)
C4A C -0.2030(2) 0.56477(12) 1.0354(4)
H3A H -0.1943 0.5486 1.0987
C5A C -0.2118(2) 0.59758(12) 1.0727(5)
H4A H -0.2077 0.6032 1.1610
C6A C -0.19288(15) 0.52138(10) 0.8613(4)
C7A C -0.17803(15) 0.51673(10) 0.7394(4)
H5A H -0.1789 0.5349 0.6818
C8A C -0.16192(14) 0.48592(10) 0.6998(4)
H6A H -0.1526 0.4835 0.6163
C9A C -0.15957(13) 0.45811(9) 0.7858(4)
C10A C -0.17828(13) 0.46247(10) 0.9057(4)
H7A H -0.1796 0.4441 0.9615
C11A C -0.19463(14) 0.49341(10) 0.9424(4)
H8A H -0.2069 0.4956 1.0222
C12A C -0.15561(13) 0.39637(9) 0.7918(4)
C13A C -0.20178(14) 0.38910(10) 0.7710(4)
H9A H -0.2223 0.4059 0.7379
C14A C -0.21904(14) 0.35735(10) 0.7978(4)
H10A H -0.2507 0.3530 0.7838
C15A C -0.18862(13) 0.33212(9) 0.8455(4)
C16A C -0.14242(13) 0.33968(10) 0.8718(4)
H11A H -0.1221 0.3230 0.9067
C17A C -0.12551(13) 0.37135(9) 0.8476(4)
H12A H -0.0942 0.3762 0.8682
C18A C -0.20606(13) 0.29673(10) 0.8667(4)
C19A C -0.25242(14) 0.28957(11) 0.8810(5)
H13A H -0.2742 0.3069 0.8771
C20A C -0.26562(14) 0.25718(11) 0.9007(6)
H14A H -0.2967 0.2534 0.9111
C21A C -0.19454(15) 0.23729(11) 0.8885(6)
H15A H -0.1739 0.2192 0.8890
C22A C -0.17759(15) 0.26842(11) 0.8693(5)
H16A H -0.1463 0.2710 0.8576
C23A C -0.09787(13) 0.42898(9) 0.6837(4)
C24A C -0.06706(13) 0.45563(9) 0.6923(4)
H17A H -0.0715 0.4735 0.7486
C25A C -0.02924(14) 0.45635(9) 0.6182(4)
H18A H -0.0101 0.4753 0.6223
C26A C -0.01963(12) 0.42985(10) 0.5394(4)
C27A C -0.04945(14) 0.40212(10) 0.5371(4)
H19A H -0.0428 0.3831 0.4889
C28A C -0.08811(14) 0.40193(10) 0.6032(4)
H20A H -0.1082 0.3835 0.5946
N4A N -0.21525(10) 0.62965(8) 1.4998(3)
N5A N -0.13690(11) 0.43360(8) 1.2559(3)
N6A N -0.25320(13) 0.24201(9) 1.4111(4)
C29A C -0.24652(14) 0.60699(11) 1.4509(4)
H21A H -0.2776 0.6134 1.4401
C30A C -0.23535(13) 0.57474(10) 1.4157(4)
H22A H -0.2587 0.5601 1.3820
C31A C -0.18985(12) 0.56361(9) 1.4297(4)
C32A C -0.15758(13) 0.58702(9) 1.4820(4)
H23A H -0.1263 0.5813 1.4937
C33A C -0.17147(13) 0.61844(10) 1.5165(4)
H24A H -0.1489 0.6331 1.5544
C34A C -0.17758(12) 0.52912(10) 1.3884(4)
C35A C -0.21003(13) 0.50572(9) 1.3394(4)
H25A H -0.2414 0.5112 1.3341
C36A C -0.19682(13) 0.47454(10) 1.2984(4)
H26A H -0.2195 0.4594 1.2643
C37A C -0.15079(13) 0.46487(9) 1.3063(4)
C38A C -0.11721(12) 0.48726(9) 1.3606(4)
H27A H -0.0862 0.4808 1.3705
C39A C -0.12966(13) 0.51855(10) 1.3994(4)
H28A H -0.1068 0.5335 1.4337
C40A C -0.16413(14) 0.40370(10) 1.2755(4)
C41A C -0.17052(14) 0.37877(10) 1.1754(4)
H29A H -0.1605 0.3827 1.0936
C42A C -0.19157(16) 0.34905(11) 1.2015(4)
H30A H -0.1955 0.3328 1.1357
C43A C -0.20751(15) 0.34178(10) 1.3214(4)
C44A C -0.20334(15) 0.36794(10) 1.4165(4)
H31A H -0.2148 0.3645 1.4968
C45A C -0.18288(14) 0.39784(10) 1.3918(4)
H32A H -0.1815 0.4148 1.4547
C46A C -0.22567(16) 0.30848(10) 1.3514(4)
C47A C -0.2256(2) 0.28164(12) 1.2627(5)
H33A H -0.2159 0.2856 1.1805
C48A C -0.23944(19) 0.24964(13) 1.2937(5)
H34A H -0.2393 0.2327 1.2311
C49A C -0.2517(2) 0.26694(12) 1.4973(6)
H35A H -0.2611 0.2621 1.5792
C50A C -0.2374(2) 0.29909(13) 1.4754(5)
H36A H -0.2355 0.3149 1.5429
C51A C -0.09712(13) 0.43185(10) 1.1857(4)
C52A C -0.08577(13) 0.45918(11) 1.1105(4)
H37A H -0.1045 0.4784 1.1064
C53A C -0.04740(13) 0.45848(12) 1.0419(4)
H38A H -0.0396 0.4777 0.9965
C54A C -0.02022(13) 0.42985(11) 1.0390(4)
C55A C -0.03232(14) 0.40277(11) 1.1111(4)
H39A H -0.0145 0.3832 1.1108
C56A C -0.07028(14) 0.40324(11) 1.1853(4)
H40A H -0.0772 0.3844 1.2339
Cd1A Cd -0.239664(8) 0.676039(6) -0.94463(2)
O7A O -0.30666(8) 0.67415(10) -1.0977(3)
H53A H -0.2996 0.6814 -1.1710
H54A H -0.3277 0.6867 -1.0711
O8A O -0.29346(10) 0.65494(8) -0.8118(3)
H55A H -0.2801 0.6516 -0.7353
H56A H -0.3044 0.6364 -0.8431
Cd2_2 Cd 0.232163(7) 0.686339(6) -0.54284(2)
Cd1A_2 Cd -0.239664(8) 0.676039(6) 0.05537(2)
Cd1A_3 Cd -0.239664(8) 0.676039(6) 1.05537(2)
Cd1B Cd -0.260336(8) 0.176039(6) 0.94463(2)
Cd1C Cd 0.260336(8) 0.176039(6) 0.05537(2)
Cd2A Cd -0.232163(7) 0.686339(6) -0.45716(2)
Cd2A_2 Cd -0.232163(7) 0.686339(6) 1.54284(2)
Cd2A_3 Cd 0.767837(7) 0.686339(6) 0.54284(2)
Cd2B Cd -0.267837(7) 0.186339(6) 1.45716(2)
Cd2C Cd 0.267837(7) 0.186339(6) 0.54284(2)
O1_2 O 0.30626(7) 0.67952(9) -0.4277(2)
O2_2 O 0.30185(7) 0.66966(8) -0.6371(2)
O3_2 O 0.17394(8) 0.68258(11) -0.6972(3)
O4A_2 O -0.19887(8) 0.69567(8) -1.1108(3)
O6_2 O 0.19766(8) 0.70381(7) 0.6340(3)
N1A_2 N -0.22594(12) 0.62129(8) -1.0134(3)
N3B N -0.26247(11) 0.73044(8) -0.9064(4)
N3C N 0.26247(11) 0.73044(8) -0.0936(4)
N4_2 N 0.21525(10) 0.62965(8) -0.4998(3)
N6C N 0.24680(13) 0.74201(9) -0.5889(4)
N6C_2 N 0.24680(13) 0.74201(9) 0.4111(4)
C78? C 0.9942(6) 0.5581(4) 0.5516(17)
O9? O 1.0000 0.5303(3) 0.5000
O10? O 0.96921(19) 0.5704(3) 0.4643(12)
loop_
_geom_bond_atom_site_label_1
_geom_bond_atom_site_label_2
_geom_bond_site_symmetry_1
_geom_bond_site_symmetry_2
Cd1 O4 1_555 1_555
Cd2 O1 1_555 1_555
O1 C57 1_555 1_555
O2 Cd2 1_555 1_555
O3 Cd2 1_555 1_555
O4 C64 1_555 1_555
O5 Cd1 1_555 1_555
O6 C71 1_555 1_555
N1 Cd1 1_555 1_555
N2 C9 1_555 1_555
N3 C20 1_555 1_555
N4 Cd2 1_555 1_555
N5 C37 1_555 1_555
N6 C48 1_555 1_555
C1 N1 1_555 1_555
H1 C1 1_555 1_555
C2 C1 1_555 1_555
H2 C2 1_555 1_555
C3 C2 1_555 1_555
C4 C3 1_555 1_555
H3 C4 1_555 1_555
C5 N1 1_555 1_555
H4 C5 1_555 1_555
C6 C3 1_555 1_555
C7 C6 1_555 1_555
H5 C7 1_555 1_555
C8 C7 1_555 1_555
H6 C8 1_555 1_555
C9 C8 1_555 1_555
C10 C9 1_555 1_555
H7 C10 1_555 1_555
C11 C6 1_555 1_555
H8 C11 1_555 1_555
C12 N2 1_555 1_555
C13 C12 1_555 1_555
H9 C13 1_555 1_555
C14 C13 1_555 1_555
H10 C14 1_555 1_555
C15 C14 1_555 1_555
C16 C15 1_555 1_555
H11 C16 1_555 1_555
C17 C12 1_555 1_555
H12 C17 1_555 1_555
C18 C15 1_555 1_555
C19 C18 1_555 1_555
H13 C19 1_555 1_555
C20 C19 1_555 1_555
H14 C20 1_555 1_555
C21 N3 1_555 1_555
H15 C21 1_555 1_555
C22 C18 1_555 1_555
H16 C22 1_555 1_555
C23 N2 1_555 1_555
C24 C23 1_555 1_555
H17 C24 1_555 1_555
C25 C24 1_555 1_555
H18 C25 1_555 1_555
C26 C25 1_555 1_555
C27 C26 1_555 1_555
H19 C27 1_555 1_555
C28 C23 1_555 1_555
H20 C28 1_555 1_555
C29 N4 1_555 1_555
H21 C29 1_555 1_555
C30 C29 1_555 1_555
H22 C30 1_555 1_555
C31 C30 1_555 1_555
C32 C31 1_555 1_555
H23 C32 1_555 1_555
C33 N4 1_555 1_555
H24 C33 1_555 1_555
C34 C31 1_555 1_555
C35 C34 1_555 1_555
H25 C35 1_555 1_555
C36 C35 1_555 1_555
H26 C36 1_555 1_555
C37 C36 1_555 1_555
C38 C37 1_555 1_555
H27 C38 1_555 1_555
C39 C34 1_555 1_555
H28 C39 1_555 1_555
C40 N5 1_555 1_555
C41 C40 1_555 1_555
H29 C41 1_555 1_555
C42 C41 1_555 1_555
H30 C42 1_555 1_555
C43 C42 1_555 1_555
C44 C43 1_555 1_555
H31 C44 1_555 1_555
C45 C40 1_555 1_555
H32 C45 1_555 1_555
C46 C43 1_555 1_555
C47 C46 1_555 1_555
H33 C47 1_555 1_555
C48 C47 1_555 1_555
H34 C48 1_555 1_555
C49 N6 1_555 1_555
H35 C49 1_555 1_555
C50 C46 1_555 1_555
H36 C50 1_555 1_555
C51 N5 1_555 1_555
C52 C51 1_555 1_555
H37 C52 1_555 1_555
C53 C52 1_555 1_555
H38 C53 1_555 1_555
C54 C53 1_555 1_555
C55 C54 1_555 1_555
H39 C55 1_555 1_555
C56 C51 1_555 1_555
H40 C56 1_555 1_555
C57 O2 1_555 1_555
C58 C57 1_555 1_555
C59 C58 1_555 1_555
H41 C59 1_555 1_555
C60 C59 1_555 1_555
H42 C60 1_555 1_555
C61 C60 1_555 1_555
C62 C61 1_555 1_555
H43 C62 1_555 1_555
C63 C58 1_555 1_555
H44 C63 1_555 1_555
C64 O3 1_555 1_555
C65 C64 1_555 1_555
C66 C65 1_555 1_555
H45 C66 1_555 1_555
C67 C66 1_555 1_555
H46 C67 1_555 1_555
C68 C67 1_555 1_555
C69 C68 1_555 1_555
H47 C69 1_555 1_555
C70 C65 1_555 1_555
H48 C70 1_555 1_555
C71 O5 1_555 1_555
C72 C71 1_555 1_555
C73 C72 1_555 1_555
H49 C73 1_555 1_555
C74 C73 1_555 1_555
H50 C74 1_555 1_555
C75 C74 1_555 1_555
C76 C75 1_555 1_555
H51 C76 1_555 1_555
C77 C72 1_555 1_555
H52 C77 1_555 1_555
O7 Cd1 1_555 1_555
H53 O7 1_555 1_555
H54 O7 1_555 1_555
O8 Cd1 1_555 1_555
H55 O8 1_555 1_555
H56 O8 1_555 1_555
O1A C57A 1_555 1_555
O2A C57A 1_555 1_555
C57A C58A 1_555 1_555
C58A C59A 1_555 1_555
C59A H41A 1_555 1_555
C60A C59A 1_555 1_555
H42A C60A 1_555 1_555
C61A C61 1_555 1_555
C62A C61A 1_555 1_555
H43A C62A 1_555 1_555
C63A C58A 1_555 1_555
H44A C63A 1_555 1_555
O3A C64A 1_555 1_555
O4A C64A 1_555 1_555
C64A C65A 1_555 1_555
C65A C66A 1_555 1_555
C66A H45A 1_555 1_555
C67A C66A 1_555 1_555
H46A C67A 1_555 1_555
C68A C68 1_555 1_555
C69A C68A 1_555 1_555
H47A C69A 1_555 1_555
C70A C65A 1_555 1_555
H48A C70A 1_555 1_555
O5A C71A 1_555 1_555
O6A C71A 1_555 1_555
C71A C72A 1_555 1_555
C72A C73A 1_555 1_555
C73A H49A 1_555 1_555
C74A C73A 1_555 1_555
H50A C74A 1_555 1_555
C75A C75 1_555 1_555
C76A C75A 1_555 1_555
H51A C76A 1_555 1_555
C77A C72A 1_555 1_555
H52A C77A 1_555 1_555
N1A C1A 1_555 1_555
N2A C9A 1_555 1_555
N3A C20A 1_555 1_555
C1A H1A 1_555 1_555
C2A C1A 1_555 1_555
H2A C2A 1_555 1_555
C3A C2A 1_555 1_555
C4A C3A 1_555 1_555
H3A C4A 1_555 1_555
C5A N1A 1_555 1_555
H4A C5A 1_555 1_555
C6A C3A 1_555 1_555
C7A C6A 1_555 1_555
H5A C7A 1_555 1_555
C8A C7A 1_555 1_555
H6A C8A 1_555 1_555
C9A C8A 1_555 1_555
C10A C9A 1_555 1_555
H7A C10A 1_555 1_555
C11A C6A 1_555 1_555
H8A C11A 1_555 1_555
C12A N2A 1_555 1_555
C13A C12A 1_555 1_555
H9A C13A 1_555 1_555
C14A C13A 1_555 1_555
H10A C14A 1_555 1_555
C15A C14A 1_555 1_555
C16A C15A 1_555 1_555
H11A C16A 1_555 1_555
C17A C12A 1_555 1_555
H12A C17A 1_555 1_555
C18A C15A 1_555 1_555
C19A C18A 1_555 1_555
H13A C19A 1_555 1_555
C20A C19A 1_555 1_555
H14A C20A 1_555 1_555
C21A N3A 1_555 1_555
H15A C21A 1_555 1_555
C22A C18A 1_555 1_555
H16A C22A 1_555 1_555
C23A N2A 1_555 1_555
C24A C23A 1_555 1_555
H17A C24A 1_555 1_555
C25A C24A 1_555 1_555
H18A C25A 1_555 1_555
C26A C26 1_555 1_555
C27A C26A 1_555 1_555
H19A C27A 1_555 1_555
C28A C23A 1_555 1_555
H20A C28A 1_555 1_555
N4A C29A 1_555 1_555
N5A C37A 1_555 1_555
N6A C48A 1_555 1_555
C29A H21A 1_555 1_555
C30A C29A 1_555 1_555
H22A C30A 1_555 1_555
C31A C30A 1_555 1_555
C32A C31A 1_555 1_555
H23A C32A 1_555 1_555
C33A N4A 1_555 1_555
H24A C33A 1_555 1_555
C34A C31A 1_555 1_555
C35A C34A 1_555 1_555
H25A C35A 1_555 1_555
C36A C35A 1_555 1_555
H26A C36A 1_555 1_555
C37A C36A 1_555 1_555
C38A C37A 1_555 1_555
H27A C38A 1_555 1_555
C39A C34A 1_555 1_555
H28A C39A 1_555 1_555
C40A N5A 1_555 1_555
C41A C40A 1_555 1_555
H29A C41A 1_555 1_555
C42A C41A 1_555 1_555
H30A C42A 1_555 1_555
C43A C42A 1_555 1_555
C44A C43A 1_555 1_555
H31A C44A 1_555 1_555
C45A C40A 1_555 1_555
H32A C45A 1_555 1_555
C46A C43A 1_555 1_555
C47A C46A 1_555 1_555
H33A C47A 1_555 1_555
C48A C47A 1_555 1_555
H34A C48A 1_555 1_555
C49A N6A 1_555 1_555
H35A C49A 1_555 1_555
C50A C46A 1_555 1_555
H36A C50A 1_555 1_555
C51A N5A 1_555 1_555
C52A C51A 1_555 1_555
H37A C52A 1_555 1_555
C53A C52A 1_555 1_555
H38A C53A 1_555 1_555
C54A C54 1_555 1_555
C55A C54A 1_555 1_555
H39A C55A 1_555 1_555
C56A C51A 1_555 1_555
H40A C56A 1_555 1_555
Cd1A O5A 1_555 1_555
O7A Cd1A 1_555 1_555
H53A O7A 1_555 1_555
H54A O7A 1_555 1_555
O8A Cd1A 1_555 1_555
H55A O8A 1_555 1_555
H56A O8A 1_555 1_555
Cd2_2 O6 1_555 1_555
Cd1A_2 O4A 1_555 1_555
Cd1A_3 N1A 1_555 1_555
Cd1B N3A 1_555 1_555
Cd1C N3 1_555 1_555
Cd2A O3A 1_555 1_555
Cd2A_2 N4A 1_555 1_555
Cd2A_3 O1A 1_555 1_555
Cd2B N6A 1_555 1_555
Cd2C N6 1_555 1_555
O1_2 Cd2_2 1_555 1_555
O2_2 Cd2_2 1_555 1_555
O3_2 Cd2_2 1_555 1_555
O4A_2 Cd1A 1_555 1_555
O6_2 Cd2 1_555 1_555
N1A_2 Cd1A 1_555 1_555
N3B Cd1A 1_555 1_555
N3C Cd1 1_555 1_555
N4_2 Cd2_2 1_555 1_555
N6C Cd2_2 1_555 1_555
N6C_2 Cd2 1_555 1_555
C4 C5 1_555 1_555
C10 C11 1_555 1_555
C16 C17 1_555 1_555
C21 C22 1_555 1_555
C27 C28 1_555 1_555
C32 C33 1_555 1_555
C38 C39 1_555 1_555
C44 C45 1_555 1_555
C49 C50 1_555 1_555
C55 C56 1_555 1_555
C62 C63 1_555 1_555
C69 C70 1_555 1_555
C76 C77 1_555 1_555
O2A Cd2A_3 1_555 1_555
C60A C61A 1_555 1_555
C62A C63A 1_555 1_555
C67A C68A 1_555 1_555
C69A C70A 1_555 1_555
O6A Cd2A 1_555 1_555
C74A C75A 1_555 1_555
C76A C77A 1_555 1_555
C4A C5A 1_555 1_555
C10A C11A 1_555 1_555
C16A C17A 1_555 1_555
C21A C22A 1_555 1_555
C25A C26A 1_555 1_555
C27A C28A 1_555 1_555
C32A C33A 1_555 1_555
C38A C39A 1_555 1_555
C44A C45A 1_555 1_555
C49A C50A 1_555 1_555
C53A C54A 1_555 1_555
C55A C56A 1_555 1_555

#END
