
#######################################################################
#
#                 Cambridge Crystallographic Data Centre
#                                CCDC 
#
#######################################################################
#
# If this CIF has been generated from an entry in the Cambridge 
# Structural Database, then it will include bibliographic, chemical, 
# crystal, experimental, refinement or atomic coordinate data resulting 
# from the CCDC's data processing and validation procedures.
#
#######################################################################

data_GAWRED
_chemical_name_common            M'MOF-20
_chemical_formula_moiety         
'(C44 H32 Cu1 N4 O10 Zn2)n,3n(C3 H7 N1 O1),n(H2 O1)'
_chemical_name_systematic        
"catena-[bis(\m~4~-Biphenyl-4,4'-dicarboxylato)-(\m~3~-3,3'-(ethane-1,2-diylbis(nitrilomethylylidene))bis(5-methylpyridin-4-olato))-copper(ii)-di-zinc(ii) N,N-dimethylformamide solvate monohydrate]"
_symmetry_cell_setting           monoclinic
_symmetry_space_group_name_H-M   'C 2/c'
_symmetry_Int_Tables_number      15
_space_group_name_Hall           '-C 2yc'
loop_
_symmetry_equiv_pos_site_id
_symmetry_equiv_pos_as_xyz
1 x,y,z
2 -x,y,1/2-z
3 1/2+x,1/2+y,z
4 1/2-x,1/2+y,1/2-z
5 -x,-y,-z
6 x,-y,1/2+z
7 1/2-x,1/2-y,-z
8 1/2+x,1/2-y,1/2+z
_cell_length_a                   22.564(4)
_cell_length_b                   20.405(4)
_cell_length_c                   14.919(3)
_cell_angle_alpha                90
_cell_angle_beta                 129.76(3)
_cell_angle_gamma                90
_cell_volume                     5280.39
_exptl_crystal_colour            'light blue'
_exptl_crystal_description       platelet
_cell_formula_units_Z            4
loop_
_atom_site_label
_atom_site_type_symbol
_atom_site_fract_x
_atom_site_fract_y
_atom_site_fract_z
Zn1 Zn -0.44560(3) 0.80450(2) -0.62112(5)
O1 O -0.3965(2) 0.72913(18) -0.6403(4)
O2 O -0.4666(2) 0.74397(19) -0.8316(4)
O3 O -0.0139(2) 0.38091(17) -0.6519(3)
O4 O -0.1086(2) 0.36579(17) -0.8439(3)
C1 C -0.4122(3) 0.7174(3) -0.7369(5)
C2 C -0.3640(4) 0.6692(3) -0.7382(5)
C3 C -0.2990(4) 0.6411(3) -0.6337(5)
H1 H -0.2861 0.6532 -0.5615
C4 C -0.2538(4) 0.5959(3) -0.6352(5)
H2 H -0.2113 0.5763 -0.5643
C5 C -0.2699(3) 0.5787(3) -0.7399(5)
C6 C -0.3314(4) 0.6094(4) -0.8414(6)
H3 H -0.3419 0.5996 -0.9126
C7 C -0.3788(4) 0.6547(4) -0.8418(6)
H4 H -0.4206 0.6751 -0.9125
C8 C -0.2209(3) 0.5321(3) -0.7429(5)
C9 C -0.1452(4) 0.5176(3) -0.6401(6)
H5 H -0.1253 0.5386 -0.5689
C10 C -0.1003(4) 0.4733(3) -0.6426(6)
H6 H -0.0499 0.4636 -0.5728
C11 C -0.1280(3) 0.4424(2) -0.7465(4)
C12 C -0.2028(3) 0.4549(3) -0.8455(5)
H7 H -0.2237 0.4322 -0.9158
C13 C -0.2478(3) 0.5005(3) -0.8435(5)
H8 H -0.2982 0.5099 -0.9134
C14 C -0.0796(3) 0.3930(2) -0.7477(5)
Cu1 Cu -0.2238(2) 0.71920(17) 0.0008(2)
N1 N -0.3853(3) 0.7968(2) -0.4494(4)
O5 O -0.2518(10) 0.7576(8) -0.0988(11)
C15 C -0.4076(6) 0.8259(5) -0.3970(7)
H9 H -0.4508 0.8545 -0.4420
C16 C -0.3723(9) 0.8176(6) -0.2796(10)
C17 C -0.3060(8) 0.7787(7) -0.2106(9)
C18 C -0.2836(6) 0.7457(4) -0.2669(7)
C19 C -0.3238(4) 0.7566(3) -0.3840(6)
H10 H -0.3073 0.7345 -0.4206
C20 C -0.4082(10) 0.8608(7) -0.2374(12)
C21 C -0.2191(8) 0.7016(6) -0.2017(10)
H14 H -0.1994 0.6792 -0.2335
N2 N -0.1901(14) 0.6958(12) -0.0909(16)
C22 C -0.122(2) 0.6539(18) -0.021(2)
H15 H -0.0751 0.6806 0.0331
H16 H -0.1167 0.6285 -0.0720
N3 N -0.3495(16) 0.8466(13) -0.1073(18)
C23 C -0.1352(17) 0.6046(15) 0.0514(19)
H17 H -0.1797 0.5751 -0.0011
H18 H -0.0885 0.5784 0.1095
Zn1A Zn -0.55440(3) 0.80450(2) -0.87888(5)
Zn1B Zn 0.05440(3) 0.30450(2) -0.62112(5)
Zn1C Zn -0.05440(3) 0.30450(2) -0.87888(5)
Zn1F Zn -0.05440(3) 0.69550(2) 0.62112(5)
Zn1C_2 Zn -1.05440(3) 0.30450(2) -0.87888(5)
Zn1B_2 Zn -0.94560(3) 0.30450(2) -0.62112(5)
O1A O -0.6035(2) 0.72913(18) -0.8597(4)
O2A O -0.5334(2) 0.74397(19) -0.6684(4)
O3A O -0.9861(2) 0.38091(17) -0.8481(3)
O3B O -0.5139(2) 0.88091(17) -0.6519(3)
O3C O -0.4861(2) 0.88091(17) -0.8481(3)
O4A O -0.8914(2) 0.36579(17) -0.6561(3)
O4C O -0.3914(2) 0.86579(17) -0.6561(3)
O4B O -0.6086(2) 0.86579(17) -0.8439(3)
C1A C -0.5878(3) 0.7174(3) -0.7631(5)
C2A C -0.6360(4) 0.6692(3) -0.7618(5)
C3A C -0.7010(4) 0.6411(3) -0.8663(5)
H1A H -0.7139 0.6532 -0.9385
C4A C -0.7462(4) 0.5959(3) -0.8648(5)
H2A H -0.7887 0.5763 -0.9357
C5A C -0.7301(3) 0.5787(3) -0.7601(5)
C6A C -0.6686(4) 0.6094(4) -0.6586(6)
H3A H -0.6581 0.5996 -0.5874
C7A C -0.6212(4) 0.6547(4) -0.6582(6)
H4A H -0.5794 0.6751 -0.5875
C8A C -0.7791(3) 0.5321(3) -0.7571(5)
C9A C -0.8548(4) 0.5176(3) -0.8599(6)
H5A H -0.8747 0.5386 -0.9311
C10A C -0.8997(4) 0.4733(3) -0.8574(6)
H6A H -0.9501 0.4636 -0.9272
C11A C -0.8720(3) 0.4424(2) -0.7535(4)
C12A C -0.7972(3) 0.4549(3) -0.6545(5)
H7A H -0.7763 0.4322 -0.5842
C13A C -0.7522(3) 0.5005(3) -0.6565(5)
H8A H -0.7018 0.5099 -0.5866
C14A C -0.9204(3) 0.3930(2) -0.7523(5)
Cu1F Cu -0.2762(2) 0.78080(17) -0.0008(2)
N1F N -0.1147(3) 0.7032(2) 0.4494(4)
N1A N -0.6147(3) 0.7968(2) -1.0506(4)
O5F O -0.2482(10) 0.7424(8) 0.0988(11)
C15F C -0.0924(6) 0.6741(5) 0.3970(7)
H9F H -0.0492 0.6455 0.4420
C16F C -0.1277(9) 0.6824(6) 0.2796(10)
C17F C -0.1940(8) 0.7213(7) 0.2106(9)
C18F C -0.2164(6) 0.7543(4) 0.2669(7)
C19F C -0.1762(4) 0.7434(3) 0.3840(6)
H10F H -0.1927 0.7655 0.4206
C20F C -0.0918(10) 0.6392(7) 0.2374(12)
C21F C -0.2809(8) 0.7984(6) 0.2017(10)
H14F H -0.3006 0.8208 0.2335
N2F N -0.3099(14) 0.8042(12) 0.0909(16)
C22F C -0.378(2) 0.8461(18) 0.021(2)
H15F H -0.4249 0.8194 -0.0331
H16F H -0.3833 0.8715 0.0720
N3F N -0.1505(16) 0.6534(13) 0.1073(18)
C23F C -0.3648(17) 0.8954(15) -0.0514(19)
H17F H -0.3203 0.9249 0.0011
H18F H -0.4115 0.9216 -0.1095
H11? H -0.3815 0.8560 -0.1556
H12? H -0.4053 0.9056 -0.2540
H13? H -0.4613 0.8485 -0.2812
O6? O -0.2967(13) 0.7839(9) -0.1131(15)
loop_
_geom_bond_atom_site_label_1
_geom_bond_atom_site_label_2
_geom_bond_site_symmetry_1
_geom_bond_site_symmetry_2
Zn1 O1 1_555 1_555
O1 C1 1_555 1_555
O2 C1 1_555 1_555
O3 C14 1_555 1_555
O4 C14 1_555 1_555
C1 C2 1_555 1_555
C2 C3 1_555 1_555
C3 H1 1_555 1_555
C4 C3 1_555 1_555
H2 C4 1_555 1_555
C5 C4 1_555 1_555
C6 C5 1_555 1_555
H3 C6 1_555 1_555
C7 C2 1_555 1_555
H4 C7 1_555 1_555
C8 C5 1_555 1_555
C9 C8 1_555 1_555
H5 C9 1_555 1_555
C10 C9 1_555 1_555
H6 C10 1_555 1_555
C11 C10 1_555 1_555
C12 C11 1_555 1_555
H7 C12 1_555 1_555
C13 C8 1_555 1_555
H8 C13 1_555 1_555
C14 C11 1_555 1_555
Cu1 O5 1_555 1_555
N1 Zn1 1_555 1_555
O5 C17 1_555 1_555
C15 N1 1_555 1_555
H9 C15 1_555 1_555
C16 C15 1_555 1_555
C17 C16 1_555 1_555
C18 C17 1_555 1_555
C19 N1 1_555 1_555
H10 C19 1_555 1_555
C20 C16 1_555 1_555
C21 C18 1_555 1_555
H14 C21 1_555 1_555
N2 Cu1 1_555 1_555
C22 N2 1_555 1_555
H15 C22 1_555 1_555
H16 C22 1_555 1_555
N3 C20 1_555 1_555
C23 C22 1_555 1_555
H17 C23 1_555 1_555
H18 C23 1_555 1_555
Zn1A O2 1_555 1_555
Zn1B O3 1_555 1_555
Zn1C O4 1_555 1_555
Zn1F N1F 1_555 1_555
Zn1C_2 O3A 1_555 1_555
Zn1B_2 O4A 1_555 1_555
O1A Zn1A 1_555 1_555
O2A Zn1 1_555 1_555
O3A C14A 1_555 1_555
O3B Zn1 1_555 1_555
O3C Zn1A 1_555 1_555
O4A C14A 1_555 1_555
O4C Zn1 1_555 1_555
O4B Zn1A 1_555 1_555
C1A O1A 1_555 1_555
C2A C1A 1_555 1_555
C3A C2A 1_555 1_555
H1A C3A 1_555 1_555
C4A C3A 1_555 1_555
H2A C4A 1_555 1_555
C5A C4A 1_555 1_555
C6A C5A 1_555 1_555
H3A C6A 1_555 1_555
C7A C2A 1_555 1_555
H4A C7A 1_555 1_555
C8A C5A 1_555 1_555
C9A C8A 1_555 1_555
H5A C9A 1_555 1_555
C10A C9A 1_555 1_555
H6A C10A 1_555 1_555
C11A C10A 1_555 1_555
C12A C11A 1_555 1_555
H7A C12A 1_555 1_555
C13A C8A 1_555 1_555
H8A C13A 1_555 1_555
C14A C11A 1_555 1_555
Cu1F Cu1 1_555 1_555
N1F C15F 1_555 1_555
N1A Zn1A 1_555 1_555
O5F Cu1 1_555 1_555
C15F H9F 1_555 1_555
C16F C15F 1_555 1_555
C17F O5F 1_555 1_555
C18F C17F 1_555 1_555
C19F N1F 1_555 1_555
H10F C19F 1_555 1_555
C20F C16F 1_555 1_555
C21F C18F 1_555 1_555
H14F C21F 1_555 1_555
N2F Cu1F 1_555 1_555
C22F N2F 1_555 1_555
H15F C22F 1_555 1_555
H16F C22F 1_555 1_555
N3F Cu1 1_555 1_555
C23F N3 1_555 1_555
H17F C23F 1_555 1_555
H18F C23F 1_555 1_555
C6 C7 1_555 1_555
C12 C13 1_555 1_555
O5 Cu1F 1_555 1_555
C18 C19 1_555 1_555
C21 N2 1_555 1_555
N3 Cu1F 1_555 1_555
C23 N3F 1_555 1_555
O2A C1A 1_555 1_555
C6A C7A 1_555 1_555
C12A C13A 1_555 1_555
Cu1F O5F 1_555 1_555
C16F C17F 1_555 1_555
C18F C19F 1_555 1_555
C20F N3F 1_555 1_555
C21F N2F 1_555 1_555
C22F C23F 1_555 1_555

#END
