
#######################################################################
#
#                 Cambridge Crystallographic Data Centre
#                                CCDC 
#
#######################################################################
#
# If this CIF has been generated from an entry in the Cambridge 
# Structural Database, then it will include bibliographic, chemical, 
# crystal, experimental, refinement or atomic coordinate data resulting 
# from the CCDC's data processing and validation procedures.
#
#######################################################################

data_CUHGIX
_chemical_formula_moiety         
'(C50 H33 N12 Ni2 O5 1+)n,N1 O3 1-,3(C4 H9 N1 O1),4(C1 H4 O1),6(H2 O1)'
_chemical_name_systematic        
"catena-[(\m~4~-biphenyl-4,4'-dicarboxylato)-bis(\m~3~-2,4,6-tri(pyridin-4-yl)-1,3,5-triazine)-(\m~2~-hydroxo)-di-nickel nitrate N,N-dimethylacetamide methanol solvate hexahydrate]"
_symmetry_cell_setting           orthorhombic
_symmetry_space_group_name_H-M   'C m c 21'
_symmetry_Int_Tables_number      36
_space_group_name_Hall           'C 2c -2'
loop_
_symmetry_equiv_pos_site_id
_symmetry_equiv_pos_as_xyz
1 x,y,z
2 -x,-y,1/2+z
3 x,-y,1/2+z
4 -x,y,z
5 1/2+x,1/2+y,z
6 1/2-x,1/2-y,1/2+z
7 1/2+x,1/2-y,1/2+z
8 1/2-x,1/2+y,z
_cell_length_a                   24.345(4)
_cell_length_b                   20.477(3)
_cell_length_c                   19.098(3)
_cell_angle_alpha                90
_cell_angle_beta                 90
_cell_angle_gamma                90
_cell_volume                     9520.59
_exptl_crystal_colour            green
_exptl_crystal_description       block
_cell_formula_units_Z            4
loop_
_atom_site_label
_atom_site_type_symbol
_atom_site_fract_x
_atom_site_fract_y
_atom_site_fract_z
Ni1 Ni 0.070287(5) -0.225397(6) 0.890813(13)
O1 O 0.0000 -0.17919(5) 0.87457(5)
O2 O 0.04608(4) -0.25397(5) 0.98895(5)
N1 N 0.09474(5) -0.19690(6) 0.79036(6)
O3 O 0.04590(4) -0.31141(4) 0.84688(5)
N2 N 0.14431(5) -0.27353(5) 0.92106(7)
N3 N 0.10135(4) -0.13650(5) 0.92989(6)
C1 C 0.0000 -0.27385(8) 1.00863(10)
C2 C 0.13005(8) -0.23063(8) 0.75058(9)
C3 C 0.07603(6) -0.13988(8) 0.76396(8)
C4 C 0.0000 -0.32865(10) 1.06171(12)
H1 H 0.1413 -0.2715 0.7662
C5 C 0.15063(9) -0.20818(9) 0.68791(10)
C6 C 0.09376(7) -0.11429(8) 0.70092(9)
H2 H 0.0500 -0.1167 0.7894
C7 C 0.04819(8) -0.35527(11) 1.08497(14)
H3 H 0.1763 -0.2326 0.6631
C8 C 0.13226(6) -0.14813(7) 0.66213(8)
H4 H 0.0799 -0.0747 0.6848
H5 H 0.0815 -0.3380 1.0698
C9 C 0.04796(8) -0.40778(13) 1.13100(15)
C10 C 0.15589(7) -0.12155(8) 0.59752(9)
H6 H 0.0812 -0.4260 1.1450
C11 C 0.0000 -0.43316(13) 1.15623(17)
N4 N 0.13486(6) -0.06592(6) 0.57308(7)
N5 N 0.19718(6) -0.15483(7) 0.56819(7)
C12 C 0.0000 -0.49395(14) 1.20046(17)
C13 C 0.16006(7) -0.04251(8) 0.51536(8)
C14 C 0.21938(7) -0.12692(8) 0.51174(9)
C15 C 0.04751(15) -0.53238(19) 1.2085(2)
N6 N 0.20256(5) -0.07081(6) 0.48266(7)
C16 C 0.13881(7) 0.01858(7) 0.48549(8)
C17 C 0.26685(7) -0.16060(8) 0.48043(9)
H7 H 0.0797 -0.5201 1.1858
C18 C 0.04740(15) -0.58728(19) 1.2488(2)
C19 C 0.09418(7) 0.05024(8) 0.51432(9)
C20 C 0.16484(7) 0.04738(9) 0.42836(10)
C21 C 0.29454(7) -0.13531(9) 0.42303(9)
C22 C 0.28653(9) -0.21796(9) 0.50979(12)
H8 H 0.0788 -0.6130 1.2514
C23 C 0.0000 -0.60535(10) 1.28667(12)
C24 C 0.07659(6) 0.10838(8) 0.48492(8)
H9 H 0.0762 0.0328 0.5530
H10 H 0.1950 0.0274 0.4076
C25 C 0.14528(6) 0.10594(8) 0.40299(9)
C26 C 0.33877(6) -0.17017(7) 0.39647(10)
H11 H 0.2838 -0.0960 0.4029
H12 H 0.2700 -0.2357 0.5493
C27 C 0.33086(9) -0.24796(10) 0.47938(11)
C28 C 0.0000 -0.66624(9) 1.33113(10)
H13 H 0.0461 0.1290 0.5043
H14 H 0.1634 0.1252 0.3654
H15 H 0.3577 -0.1524 0.3587
H16 H 0.3446 -0.2855 0.5005
Ni1C Ni -0.070287(5) -0.225397(6) 0.890813(13)
O2C O -0.04608(4) -0.25397(5) 0.98895(5)
N1C N -0.09474(5) -0.19690(6) 0.79036(6)
O3C O -0.04590(4) -0.31141(4) 0.84688(5)
N2C N -0.14431(5) -0.27353(5) 0.92106(7)
N3C N -0.10135(4) -0.13650(5) 0.92989(6)
C2C C -0.13005(8) -0.23063(8) 0.75058(9)
C3C C -0.07603(6) -0.13988(8) 0.76396(8)
C7C C -0.04819(8) -0.35527(11) 1.08497(14)
H1C H -0.1413 -0.2715 0.7662
C5C C -0.15063(9) -0.20818(9) 0.68791(10)
C6C C -0.09376(7) -0.11429(8) 0.70092(9)
H2C H -0.0500 -0.1167 0.7894
H5C H -0.0815 -0.3380 1.0698
C9C C -0.04796(8) -0.40778(13) 1.13100(15)
H3C H -0.1763 -0.2326 0.6631
C8C C -0.13226(6) -0.14813(7) 0.66213(8)
H4C H -0.0799 -0.0747 0.6848
H6C H -0.0812 -0.4260 1.1450
C10C C -0.15589(7) -0.12155(8) 0.59752(9)
N4C N -0.13486(6) -0.06592(6) 0.57308(7)
N5C N -0.19718(6) -0.15483(7) 0.56819(7)
C15C C -0.04751(15) -0.53238(19) 1.2085(2)
C13C C -0.16006(7) -0.04251(8) 0.51536(8)
C14C C -0.21938(7) -0.12692(8) 0.51174(9)
H7C H -0.0797 -0.5201 1.1858
C18C C -0.04740(15) -0.58728(19) 1.2488(2)
N6C N -0.20256(5) -0.07081(6) 0.48266(7)
C16C C -0.13881(7) 0.01858(7) 0.48549(8)
C17C C -0.26685(7) -0.16060(8) 0.48043(9)
H8C H -0.0788 -0.6130 1.2514
C19C C -0.09418(7) 0.05024(8) 0.51432(9)
C20C C -0.16484(7) 0.04738(9) 0.42836(10)
C21C C -0.29454(7) -0.13531(9) 0.42303(9)
C22C C -0.28653(9) -0.21796(9) 0.50979(12)
N3B N 0.10135(4) 0.13650(5) 0.42989(6)
N2E N 0.35569(5) -0.22647(5) 0.42106(7)
C24C C -0.07659(6) 0.10838(8) 0.48492(8)
H9C H -0.0762 0.0328 0.5530
H10C H -0.1950 0.0274 0.4076
C25C C -0.14528(6) 0.10594(8) 0.40299(9)
C26C C -0.33877(6) -0.17017(7) 0.39647(10)
H11C H -0.2838 -0.0960 0.4029
H12C H -0.2700 -0.2357 0.5493
C27C C -0.33086(9) -0.24796(10) 0.47938(11)
O3A O -0.04590(4) -0.68859(4) 1.34688(5)
O3B O 0.04590(4) -0.68859(4) 1.34688(5)
Ni1B Ni 0.070287(5) 0.225397(6) 0.390813(13)
Ni1E Ni 0.429713(5) -0.274603(6) 0.390813(13)
N3A N -0.10135(4) 0.13650(5) 0.42989(6)
H13C H -0.0461 0.1290 0.5043
H14C H -0.1634 0.1252 0.3654
N2F N -0.35569(5) -0.22647(5) 0.42106(7)
H15C H -0.3577 -0.1524 0.3587
H16C H -0.3446 -0.2855 0.5005
Ni1A Ni -0.070287(5) -0.774603(6) 1.390813(13)
Ni1B_2 Ni 0.070287(5) -0.774603(6) 1.390813(13)
Ni1A_2 Ni -0.070287(5) 0.225397(6) 0.390813(13)
Ni1F Ni -0.429713(5) -0.274603(6) 0.390813(13)
C29? C 0.04612(16) -0.5116(2) 1.2379(2)
H17? H 0.0773 -0.4855 1.2356
C30? C 0.04683(17) -0.5682(2) 1.2795(2)
H18? H 0.0790 -0.5806 1.3021
loop_
_geom_bond_atom_site_label_1
_geom_bond_atom_site_label_2
_geom_bond_site_symmetry_1
_geom_bond_site_symmetry_2
Ni1 O1 1_555 1_555
O1 Ni1C 1_555 1_555
O2 Ni1 1_555 1_555
N1 Ni1 1_555 1_555
O3 Ni1 1_555 1_555
N2 Ni1 1_555 1_555
N3 Ni1 1_555 1_555
C1 O2 1_555 1_555
C2 N1 1_555 1_555
C3 N1 1_555 1_555
C4 C1 1_555 1_555
H1 C2 1_555 1_555
C5 C2 1_555 1_555
C6 C3 1_555 1_555
H2 C3 1_555 1_555
C7 C4 1_555 1_555
H3 C5 1_555 1_555
C8 C5 1_555 1_555
H4 C6 1_555 1_555
H5 C7 1_555 1_555
C9 C7 1_555 1_555
C10 C8 1_555 1_555
H6 C9 1_555 1_555
C11 C9 1_555 1_555
N4 C10 1_555 1_555
N5 C10 1_555 1_555
C12 C11 1_555 1_555
C13 N4 1_555 1_555
C14 N5 1_555 1_555
C15 C12 1_555 1_555
N6 C13 1_555 1_555
C16 C13 1_555 1_555
C17 C14 1_555 1_555
H7 C15 1_555 1_555
C18 C15 1_555 1_555
C19 C16 1_555 1_555
C20 C16 1_555 1_555
C21 C17 1_555 1_555
C22 C17 1_555 1_555
H8 C18 1_555 1_555
C23 C18 1_555 1_555
C24 C19 1_555 1_555
H9 C19 1_555 1_555
H10 C20 1_555 1_555
C25 C20 1_555 1_555
C26 C21 1_555 1_555
H11 C21 1_555 1_555
H12 C22 1_555 1_555
C27 C22 1_555 1_555
C28 C23 1_555 1_555
H13 C24 1_555 1_555
H14 C25 1_555 1_555
H15 C26 1_555 1_555
H16 C27 1_555 1_555
Ni1C O2C 1_555 1_555
O2C C1 1_555 1_555
N1C Ni1C 1_555 1_555
O3C Ni1C 1_555 1_555
N2C Ni1C 1_555 1_555
N3C Ni1C 1_555 1_555
C2C N1C 1_555 1_555
C3C N1C 1_555 1_555
C7C C4 1_555 1_555
H1C C2C 1_555 1_555
C5C C2C 1_555 1_555
C6C C3C 1_555 1_555
H2C C3C 1_555 1_555
H5C C7C 1_555 1_555
C9C C11 1_555 1_555
H3C C5C 1_555 1_555
C8C C5C 1_555 1_555
H4C C6C 1_555 1_555
H6C C9C 1_555 1_555
C10C C8C 1_555 1_555
N4C C10C 1_555 1_555
N5C C10C 1_555 1_555
C15C C12 1_555 1_555
C13C N4C 1_555 1_555
C14C N5C 1_555 1_555
H7C C15C 1_555 1_555
C18C C23 1_555 1_555
N6C C13C 1_555 1_555
C16C C13C 1_555 1_555
C17C C14C 1_555 1_555
H8C C18C 1_555 1_555
C19C C16C 1_555 1_555
C20C C16C 1_555 1_555
C21C C17C 1_555 1_555
C22C C17C 1_555 1_555
N3B C24 1_555 1_555
N2E C26 1_555 1_555
C24C C19C 1_555 1_555
H9C C19C 1_555 1_555
H10C C20C 1_555 1_555
C25C C20C 1_555 1_555
C26C C21C 1_555 1_555
H11C C21C 1_555 1_555
H12C C22C 1_555 1_555
C27C C22C 1_555 1_555
O3A C28 1_555 1_555
O3B C28 1_555 1_555
Ni1B N3B 1_555 1_555
Ni1E N2E 1_555 1_555
N3A C24C 1_555 1_555
H13C C24C 1_555 1_555
H14C C25C 1_555 1_555
N2F C26C 1_555 1_555
H15C C26C 1_555 1_555
H16C C27C 1_555 1_555
Ni1A O3A 1_555 1_555
Ni1B_2 O3B 1_555 1_555
Ni1A_2 N3A 1_555 1_555
Ni1F N2F 1_555 1_555
C6 C8 1_555 1_555
C14 N6 1_555 1_555
C25 N3B 1_555 1_555
C27 N2E 1_555 1_555
C7C C9C 1_555 1_555
C6C C8C 1_555 1_555
C15C C18C 1_555 1_555
C14C N6C 1_555 1_555
C25C N3A 1_555 1_555
C27C N2F 1_555 1_555

#END
