
#######################################################################
#
#                 Cambridge Crystallographic Data Centre
#                                CCDC 
#
#######################################################################
#
# If this CIF has been generated from an entry in the Cambridge 
# Structural Database, then it will include bibliographic, chemical, 
# crystal, experimental, refinement or atomic coordinate data resulting 
# from the CCDC's data processing and validation procedures.
#
#######################################################################

data_QIWCOQ
_chemical_formula_moiety         '(C42 H30 Cu2 N8 O10)n,5.6n(C3 H7 N1 O1)'
_chemical_name_systematic        
"catena-[(\m~6~-4,4',4'',4'''-(ethane-1,1,2,2-tetrayltetrakis(1H-pyrazole-1,4-diyl))tetrabenzoato)-diaqua-di-copper N,N-dimethylformamide solvate]"
_symmetry_cell_setting           orthorhombic
_symmetry_space_group_name_H-M   'P n n m'
_symmetry_Int_Tables_number      58
_space_group_name_Hall           '-P 2 2n'
loop_
_symmetry_equiv_pos_site_id
_symmetry_equiv_pos_as_xyz
1 x,y,z
2 -x,-y,z
3 1/2+x,1/2-y,1/2-z
4 1/2-x,1/2+y,1/2-z
5 -x,-y,-z
6 x,y,-z
7 1/2-x,1/2+y,1/2+z
8 1/2+x,1/2-y,1/2+z
_cell_length_a                   11.9272(15)
_cell_length_b                   13.954(3)
_cell_length_c                   20.185(2)
_cell_angle_alpha                90
_cell_angle_beta                 90
_cell_angle_gamma                90
_cell_volume                     3359.43
_exptl_crystal_colour            blue
_exptl_crystal_description       rod
_cell_formula_units_Z            2
loop_
_atom_site_label
_atom_site_type_symbol
_atom_site_fract_x
_atom_site_fract_y
_atom_site_fract_z
Cu1 Cu 0.26257(10) 0.07272(10) 0.0000
O1 O 0.3216(5) 0.1533(5) 0.0721(2)
O2 O 0.1508(5) 0.2086(4) 0.0744(2)
O3 O 0.4116(9) -0.0332(11) 0.0000
N1 N 0.3130(5) 0.4916(5) 0.4325(3)
N2 N 0.4067(5) 0.4361(4) 0.4416(2)
C1 C 0.2452(7) 0.2001(7) 0.0960(4)
C2 C 0.2765(7) 0.2538(7) 0.1610(3)
C3 C 0.2024(9) 0.3138(8) 0.1840(5)
H1 H 0.1355 0.3259 0.1599
C4 C 0.2222(9) 0.3617(8) 0.2460(5)
H2 H 0.1673 0.4019 0.2657
C5 C 0.3225(8) 0.3467(7) 0.2745(5)
C6 C 0.3996(7) 0.2885(9) 0.2511(4)
H3 H 0.4690 0.2788 0.2732
C7 C 0.3732(8) 0.2413(8) 0.1912(4)
H4 H 0.4268 0.1992 0.1721
C8 C 0.3393(7) 0.3964(6) 0.3439(4)
C9 C 0.2743(8) 0.4644(6) 0.3741(4)
H5 H 0.2078 0.4896 0.3549
C10 C 0.4256(6) 0.3790(5) 0.3903(3)
H6 H 0.4857 0.3348 0.3857
C11 C 0.4747(7) 0.4492(6) 0.5000
H7 H 0.5366 0.4010 0.5000
O1A O 0.6784(5) 0.8467(5) 0.0721(2)
O2A O 0.8492(5) 0.7914(4) 0.0744(2)
N1A N 0.6870(5) 0.5084(5) 0.4325(3)
N2A N 0.5933(5) 0.5639(4) 0.4416(2)
C1A C 0.7548(7) 0.7999(7) 0.0960(4)
C2A C 0.7235(7) 0.7462(7) 0.1610(3)
C3A C 0.7976(9) 0.6862(8) 0.1840(5)
H1A H 0.8645 0.6741 0.1599
C4A C 0.7778(9) 0.6383(8) 0.2460(5)
H2A H 0.8327 0.5981 0.2657
C5A C 0.6775(8) 0.6533(7) 0.2745(5)
C6A C 0.6004(7) 0.7115(9) 0.2511(4)
H3A H 0.5310 0.7212 0.2732
C7A C 0.6268(8) 0.7587(8) 0.1912(4)
H4A H 0.5732 0.8008 0.1721
C8A C 0.6607(7) 0.6036(6) 0.3439(4)
C9A C 0.7257(8) 0.5356(6) 0.3741(4)
H5A H 0.7922 0.5104 0.3549
C10A C 0.5744(6) 0.6210(5) 0.3903(3)
H6A H 0.5143 0.6652 0.3857
C11A C 0.5253(7) 0.5508(6) 0.5000
H7A H 0.4634 0.5990 0.5000
O1D O 0.6784(5) 0.8467(5) 0.9279(2)
O2D O 0.8492(5) 0.7914(4) 0.9256(2)
N1D N 0.6870(5) 0.5084(5) 0.5675(3)
N2D N 0.5933(5) 0.5639(4) 0.5584(2)
C1D C 0.7548(7) 0.7999(7) 0.9040(4)
C2D C 0.7235(7) 0.7462(7) 0.8390(3)
C3D C 0.7976(9) 0.6862(8) 0.8160(5)
H1D H 0.8645 0.6741 0.8401
C4D C 0.7778(9) 0.6383(8) 0.7540(5)
H2D H 0.8327 0.5981 0.7343
C5D C 0.6775(8) 0.6533(7) 0.7255(5)
C6D C 0.6004(7) 0.7115(9) 0.7489(4)
H3D H 0.5310 0.7212 0.7268
C7D C 0.6268(8) 0.7587(8) 0.8088(4)
H4D H 0.5732 0.8008 0.8279
C8D C 0.6607(7) 0.6036(6) 0.6561(4)
C9D C 0.7257(8) 0.5356(6) 0.6259(4)
H5D H 0.7922 0.5104 0.6451
C10D C 0.5744(6) 0.6210(5) 0.6097(3)
H6D H 0.5143 0.6652 0.6143
O1E O 0.3216(5) 0.1533(5) 0.9279(2)
O2E O 0.1508(5) 0.2086(4) 0.9256(2)
N1E N 0.3130(5) 0.4916(5) 0.5675(3)
N2E N 0.4067(5) 0.4361(4) 0.5584(2)
C1E C 0.2452(7) 0.2001(7) 0.9040(4)
C2E C 0.2765(7) 0.2538(7) 0.8390(3)
C3E C 0.2024(9) 0.3138(8) 0.8160(5)
H1E H 0.1355 0.3259 0.8401
C4E C 0.2222(9) 0.3617(8) 0.7540(5)
H2E H 0.1673 0.4019 0.7343
C5E C 0.3225(8) 0.3467(7) 0.7255(5)
C6E C 0.3996(7) 0.2885(9) 0.7489(4)
H3E H 0.4690 0.2788 0.7268
C7E C 0.3732(8) 0.2413(8) 0.8088(4)
H4E H 0.4268 0.1992 0.8279
C8E C 0.3393(7) 0.3964(6) 0.6561(4)
C9E C 0.2743(8) 0.4644(6) 0.6259(4)
H5E H 0.2078 0.4896 0.6451
C10E C 0.4256(6) 0.3790(5) 0.6097(3)
H6E H 0.4857 0.3348 0.6143
Cu1A Cu 0.73743(10) 0.92728(10) 0.0000
O3A O 0.5884(9) 1.0332(11) 0.0000
Cu1_2 Cu 0.26257(10) 0.07272(10) 1.0000
Cu1A_2 Cu 0.73743(10) 0.92728(10) 1.0000
Cu1B Cu 0.76257(10) 0.42728(10) 0.5000
Cu1C Cu 0.23743(10) 0.57272(10) 0.5000
O1D_2 O 0.6784(5) 0.8467(5) -0.0721(2)
O1E_2 O 0.3216(5) 0.1533(5) -0.0721(2)
O2D_2 O 0.8492(5) 0.7914(4) -0.0744(2)
O2E_2 O 0.1508(5) 0.2086(4) -0.0744(2)
N1B N 0.8130(5) 1.0084(5) 0.0675(3)
N1C N 0.1870(5) -0.0084(5) 0.0675(3)
N1F N 0.1870(5) -0.0084(5) -0.0675(3)
N1G N 0.8130(5) 1.0084(5) -0.0675(3)
loop_
_geom_bond_atom_site_label_1
_geom_bond_atom_site_label_2
_geom_bond_site_symmetry_1
_geom_bond_site_symmetry_2
Cu1 O1 1_555 1_555
O1 C1 1_555 1_555
O2 Cu1 1_555 1_555
O3 Cu1 1_555 1_555
N1 N2 1_555 1_555
N2 C10 1_555 1_555
C1 O2 1_555 1_555
C2 C1 1_555 1_555
C3 C2 1_555 1_555
H1 C3 1_555 1_555
C4 C3 1_555 1_555
H2 C4 1_555 1_555
C5 C4 1_555 1_555
C6 C5 1_555 1_555
H3 C6 1_555 1_555
C7 C2 1_555 1_555
H4 C7 1_555 1_555
C8 C5 1_555 1_555
C9 N1 1_555 1_555
H5 C9 1_555 1_555
C10 C8 1_555 1_555
H6 C10 1_555 1_555
C11 N2 1_555 1_555
H7 C11 1_555 1_555
O1A C1A 1_555 1_555
O2A C1A 1_555 1_555
N1A N2A 1_555 1_555
N2A C10A 1_555 1_555
C1A C2A 1_555 1_555
C2A C3A 1_555 1_555
C3A H1A 1_555 1_555
C4A C3A 1_555 1_555
H2A C4A 1_555 1_555
C5A C4A 1_555 1_555
C6A C5A 1_555 1_555
H3A C6A 1_555 1_555
C7A C2A 1_555 1_555
H4A C7A 1_555 1_555
C8A C5A 1_555 1_555
C9A N1A 1_555 1_555
H5A C9A 1_555 1_555
C10A C8A 1_555 1_555
H6A C10A 1_555 1_555
C11A C11 1_555 1_555
H7A C11A 1_555 1_555
O1D C1D 1_555 1_555
O2D C1D 1_555 1_555
N1D N2D 1_555 1_555
N2D C11A 1_555 1_555
C1D C2D 1_555 1_555
C2D C3D 1_555 1_555
C3D H1D 1_555 1_555
C4D C3D 1_555 1_555
H2D C4D 1_555 1_555
C5D C4D 1_555 1_555
C6D C5D 1_555 1_555
H3D C6D 1_555 1_555
C7D C2D 1_555 1_555
H4D C7D 1_555 1_555
C8D C5D 1_555 1_555
C9D N1D 1_555 1_555
H5D C9D 1_555 1_555
C10D N2D 1_555 1_555
H6D C10D 1_555 1_555
O1E C1E 1_555 1_555
O2E C1E 1_555 1_555
N1E N2E 1_555 1_555
N2E C11 1_555 1_555
C1E C2E 1_555 1_555
C2E C3E 1_555 1_555
C3E H1E 1_555 1_555
C4E C3E 1_555 1_555
H2E C4E 1_555 1_555
C5E C4E 1_555 1_555
C6E C5E 1_555 1_555
H3E C6E 1_555 1_555
C7E C2E 1_555 1_555
H4E C7E 1_555 1_555
C8E C5E 1_555 1_555
C9E N1E 1_555 1_555
H5E C9E 1_555 1_555
C10E N2E 1_555 1_555
H6E C10E 1_555 1_555
Cu1A O1A 1_555 1_555
O3A Cu1A 1_555 1_555
Cu1_2 O1E 1_555 1_555
Cu1A_2 O1D 1_555 1_555
Cu1B N1A 1_555 1_555
Cu1C N1 1_555 1_555
O1D_2 Cu1A 1_555 1_555
O1E_2 Cu1 1_555 1_555
O2D_2 Cu1A 1_555 1_555
O2E_2 Cu1 1_555 1_555
N1B Cu1A 1_555 1_555
N1C Cu1 1_555 1_555
N1F Cu1 1_555 1_555
N1G Cu1A 1_555 1_555
C6 C7 1_555 1_555
C8 C9 1_555 1_555
O2A Cu1A 1_555 1_555
N2A C11A 1_555 1_555
C6A C7A 1_555 1_555
C8A C9A 1_555 1_555
O2D Cu1A_2 1_555 1_555
N1D Cu1B 1_555 1_555
C6D C7D 1_555 1_555
C8D C9D 1_555 1_555
C8D C10D 1_555 1_555
O2E Cu1_2 1_555 1_555
N1E Cu1C 1_555 1_555
C6E C7E 1_555 1_555
C8E C9E 1_555 1_555
C8E C10E 1_555 1_555

#END
