
#######################################################################
#
#                 Cambridge Crystallographic Data Centre
#                                CCDC 
#
#######################################################################
#
# If this CIF has been generated from an entry in the Cambridge 
# Structural Database, then it will include bibliographic, chemical, 
# crystal, experimental, refinement or atomic coordinate data resulting 
# from the CCDC's data processing and validation procedures.
#
#######################################################################

data_LUSQUN
_chemical_formula_moiety         
'(C46 H30 N4 O12 Zn2)n,2n(C3 H7 N1 O1),2n(H2 O1)'
_chemical_name_systematic        
"catena-[(\m-N,N'-di(pyridin-4-yl)terephthalamide)-bis(\m-4,4'-oxydibenzoato)-di-zinc N,N-dimethylformamide solvate dihydrate]"
_symmetry_cell_setting           monoclinic
_symmetry_space_group_name_H-M   'P 21/c'
_symmetry_Int_Tables_number      14
_space_group_name_Hall           '-P 2ybc'
loop_
_symmetry_equiv_pos_site_id
_symmetry_equiv_pos_as_xyz
1 x,y,z
2 -x,1/2+y,1/2-z
3 -x,-y,-z
4 x,1/2-y,1/2+z
_cell_length_a                   14.5740(7)
_cell_length_b                   23.5585(11)
_cell_length_c                   15.4557(7)
_cell_angle_alpha                90
_cell_angle_beta                 110.801(3)
_cell_angle_gamma                90
_cell_volume                     4960.7
_exptl_crystal_colour            colorless
_exptl_crystal_description       block
_cell_formula_units_Z            4
_exptl_crystal_preparation       Luminescent
loop_
_atom_site_label
_atom_site_type_symbol
_atom_site_fract_x
_atom_site_fract_y
_atom_site_fract_z
C47 C 0.5609(11) 0.8845(7) 0.2789(10)
H31 H 0.5057 0.9074 0.2665
C48 C 0.6615(8) 0.9710(4) 0.3101(8)
H32 H 0.6263 0.9914 0.2543
H33 H 0.7307 0.9769 0.3259
H34 H 0.6419 0.9846 0.3595
C49 C 0.7288(9) 0.8765(5) 0.3105(9)
H35 H 0.7263 0.8422 0.3430
H36 H 0.7844 0.8987 0.3468
H37 H 0.7349 0.8672 0.2523
N5 N 0.6381(7) 0.9099(3) 0.2952(5)
O13 O 0.5439(4) 0.8296(2) 0.2747(3)
C1 C 0.2249(2) 0.77236(15) 1.1240(3)
C2 C 0.2139(2) 0.83448(14) 1.1330(3)
C3 C 0.2460(3) 0.86031(15) 1.2186(3)
H1 H 0.2785 0.8389 1.2711
C4 C 0.2305(3) 0.91771(17) 1.2274(3)
H2 H 0.2519 0.9350 1.2853
C5 C 0.1823(3) 0.94863(15) 1.1478(4)
C6 C 0.1496(3) 0.92382(18) 1.0634(4)
H3 H 0.1163 0.9452 1.0111
C7 C 0.1659(3) 0.86687(17) 1.0553(3)
H4 H 0.1445 0.8500 0.9971
C8 C 0.0864(3) 1.02574(14) 1.1677(3)
C9 C 0.0070(3) 0.99170(15) 1.1587(3)
H5 H 0.0073 0.9536 1.1432
C10 C -0.0738(3) 1.01517(15) 1.1730(3)
H6 H -0.1272 0.9922 1.1681
C11 C -0.0764(2) 1.07173(14) 1.1942(3)
C12 C 0.0039(3) 1.10521(14) 1.2008(3)
H7 H 0.0030 1.1436 1.2145
C13 C 0.0847(3) 1.08295(15) 1.1875(3)
H8 H 0.1379 1.1060 1.1918
C14 C -0.1633(3) 1.09597(16) 1.2100(3)
C15 C 0.3594(2) 0.62367(15) 1.1052(3)
C16 C 0.4496(2) 0.59764(15) 1.0979(3)
C17 C 0.5229(3) 0.57829(17) 1.1762(3)
H9 H 0.5159 0.5824 1.2334
C18 C 0.6062(3) 0.55301(18) 1.1721(4)
H10 H 0.6548 0.5398 1.2255
C19 C 0.6157(3) 0.54769(17) 1.0881(4)
C20 C 0.5451(3) 0.56635(19) 1.0085(4)
H11 H 0.5532 0.5623 0.9518
C21 C 0.4616(3) 0.59132(18) 1.0137(3)
H12 H 0.4130 0.6040 0.9599
C22 C 0.7742(3) 0.55111(16) 1.0753(3)
C23 C 0.8529(3) 0.52121(16) 1.0701(3)
H13 H 0.8533 0.4817 1.0716
C24 C 0.9313(3) 0.55066(17) 1.0628(3)
H14 H 0.9852 0.5306 1.0601
C25 C 0.9320(2) 0.60922(15) 1.0592(3)
C26 C 0.8521(2) 0.63797(16) 1.0645(3)
H15 H 0.8516 0.6774 1.0629
C27 C 0.7728(3) 0.60933(17) 1.0722(3)
H16 H 0.7189 0.6293 1.0751
C28 C 1.0157(2) 0.64072(17) 1.0489(2)
C29 C 0.0285(3) 0.64163(15) 0.8247(3)
H17 H 0.0201 0.6095 0.8561
C30 C -0.0277(3) 0.64655(15) 0.7332(3)
H18 H -0.0736 0.6188 0.7040
C31 C -0.0155(2) 0.69351(14) 0.6840(2)
C32 C 0.0526(2) 0.73440(15) 0.7329(3)
H19 H 0.0623 0.7670 0.7032
C33 C 0.1048(2) 0.72607(15) 0.8249(3)
H20 H 0.1497 0.7538 0.8564
C34 C -0.1430(3) 0.67232(18) 0.5333(3)
C35 C -0.1882(3) 0.69347(16) 0.4361(3)
C36 C -0.1360(3) 0.72068(16) 0.3890(3)
H21 H -0.0699 0.7290 0.4191
C37 C -0.1820(3) 0.73555(16) 0.2975(3)
H22 H -0.1458 0.7523 0.2654
C38 C -0.2814(3) 0.72589(16) 0.2527(3)
C39 C -0.3326(3) 0.6991(2) 0.2999(3)
H23 H -0.3994 0.6924 0.2708
C40 C -0.2860(3) 0.6820(2) 0.3904(3)
H24 H -0.3211 0.6625 0.4207
C41 C -0.3292(3) 0.74281(16) 0.1541(3)
C42 C -0.4882(3) 0.77715(18) 0.0447(3)
C43 C -0.4818(3) 0.7575(2) -0.0372(3)
H25 H -0.4313 0.7331 -0.0365
C44 C -0.5503(3) 0.7742(2) -0.1186(3)
H26 H -0.5462 0.7593 -0.1728
C45 C -0.6308(3) 0.8269(2) -0.0471(3)
H27 H -0.6833 0.8503 -0.0500
C46 C -0.5672(3) 0.8119(2) 0.0378(3)
H28 H -0.5766 0.8247 0.0910
N1 N 0.09485(19) 0.68022(12) 0.8722(2)
N2 N -0.0664(2) 0.70360(13) 0.5901(2)
H29 H -0.0457 0.7324 0.5703
N3 N -0.4243(2) 0.76212(15) 0.1317(2)
H30 H -0.4416 0.7791 0.1822
N4 N -0.6230(2) 0.81042(14) -0.1264(2)
O1 O 0.25946(19) 0.74434(10) 1.19743(19)
O2 O 0.19802(19) 0.75190(10) 1.04406(19)
O3 O 0.1717(2) 1.00675(10) 1.1563(2)
O4 O -0.15688(17) 1.14749(11) 1.23819(19)
O5 O -0.2391(2) 1.06844(12) 1.1958(2)
O6 O 0.35698(19) 0.62999(12) 1.1846(2)
O7 O 0.29235(17) 0.63675(12) 1.0306(2)
O8 O 0.6985(2) 0.51893(11) 1.0833(3)
O9 O 1.01359(17) 0.69350(11) 1.04284(18)
O10 O 1.08819(16) 0.61288(11) 1.04349(18)
O11 O -0.1747(3) 0.63042(15) 0.5593(2)
O12 O -0.2881(2) 0.74007(14) 0.0986(2)
Zn1 Zn 0.28021(3) 0.665787(17) 1.24821(3)
Zn2 Zn 0.16479(3) 0.672541(16) 1.01068(3)
N4C N 0.3770(2) 0.68958(14) 1.3736(2)
O4A O 0.15688(17) 0.64749(11) 1.26181(19)
O9_2 O 0.01359(17) 0.69350(11) 1.04284(18)
O10_2 O 0.08819(16) 0.61288(11) 1.04349(18)
Zn1A Zn -0.28021(3) 1.165787(17) 1.25179(3)
Zn1C Zn -0.71979(3) 0.834213(17) -0.25179(3)
Zn2_2 Zn 1.16479(3) 0.672541(16) 1.01068(3)
loop_
_geom_bond_atom_site_label_1
_geom_bond_atom_site_label_2
_geom_bond_site_symmetry_1
_geom_bond_site_symmetry_2
C1 C2 1_555 1_555
C2 C3 1_555 1_555
C3 H1 1_555 1_555
C4 C3 1_555 1_555
H2 C4 1_555 1_555
C5 C4 1_555 1_555
C6 C5 1_555 1_555
H3 C6 1_555 1_555
C7 C2 1_555 1_555
H4 C7 1_555 1_555
C8 C9 1_555 1_555
C9 H5 1_555 1_555
C10 C9 1_555 1_555
H6 C10 1_555 1_555
C11 C10 1_555 1_555
C12 C11 1_555 1_555
H7 C12 1_555 1_555
C13 C8 1_555 1_555
H8 C13 1_555 1_555
C14 C11 1_555 1_555
C15 C16 1_555 1_555
C16 C17 1_555 1_555
C17 H9 1_555 1_555
C18 C17 1_555 1_555
H10 C18 1_555 1_555
C19 C18 1_555 1_555
C20 C19 1_555 1_555
H11 C20 1_555 1_555
C21 C16 1_555 1_555
H12 C21 1_555 1_555
C22 C23 1_555 1_555
C23 H13 1_555 1_555
C24 C23 1_555 1_555
H14 C24 1_555 1_555
C25 C24 1_555 1_555
C26 C25 1_555 1_555
H15 C26 1_555 1_555
C27 C22 1_555 1_555
H16 C27 1_555 1_555
C28 C25 1_555 1_555
C29 H17 1_555 1_555
C30 C29 1_555 1_555
H18 C30 1_555 1_555
C31 C30 1_555 1_555
C32 C31 1_555 1_555
H19 C32 1_555 1_555
C33 C32 1_555 1_555
H20 C33 1_555 1_555
C34 C35 1_555 1_555
C35 C36 1_555 1_555
C36 H21 1_555 1_555
C37 C36 1_555 1_555
H22 C37 1_555 1_555
C38 C37 1_555 1_555
C39 C38 1_555 1_555
H23 C39 1_555 1_555
C40 C35 1_555 1_555
H24 C40 1_555 1_555
C41 C38 1_555 1_555
C42 C43 1_555 1_555
C43 H25 1_555 1_555
C44 C43 1_555 1_555
H26 C44 1_555 1_555
C45 H27 1_555 1_555
C46 C42 1_555 1_555
H28 C46 1_555 1_555
N1 C29 1_555 1_555
N2 C31 1_555 1_555
H29 N2 1_555 1_555
N3 C41 1_555 1_555
H30 N3 1_555 1_555
N4 C44 1_555 1_555
O1 C1 1_555 1_555
O2 C1 1_555 1_555
O3 C5 1_555 1_555
O4 C14 1_555 1_555
O5 C14 1_555 1_555
O6 C15 1_555 1_555
O7 C15 1_555 1_555
O8 C19 1_555 1_555
O9 C28 1_555 1_555
O10 C28 1_555 1_555
O11 C34 1_555 1_555
O12 C41 1_555 1_555
Zn1 O1 1_555 1_555
Zn2 N1 1_555 1_555
C47 H31 1_555 1_555
C48 H32 1_555 1_555
H33 C48 1_555 1_555
H34 C48 1_555 1_555
C49 H35 1_555 1_555
H36 C49 1_555 1_555
H37 C49 1_555 1_555
N5 C47 1_555 1_555
O13 C47 1_555 1_555
N4C Zn1 1_555 1_555
O4A Zn1 1_555 1_555
O9_2 Zn2 1_555 1_555
O10_2 Zn2 1_555 1_555
Zn1A O4 1_555 1_555
Zn1C N4 1_555 1_555
Zn2_2 O9 1_555 1_555
C6 C7 1_555 1_555
C8 O3 1_555 1_555
C12 C13 1_555 1_555
C20 C21 1_555 1_555
C22 O8 1_555 1_555
C26 C27 1_555 1_555
C33 N1 1_555 1_555
C34 N2 1_555 1_555
C39 C40 1_555 1_555
C42 N3 1_555 1_555
C45 C46 1_555 1_555
C45 N4 1_555 1_555
O2 Zn2 1_555 1_555
O6 Zn1 1_555 1_555
O7 Zn2 1_555 1_555
O10 Zn2_2 1_555 1_555
C48 N5 1_555 1_555
C49 N5 1_555 1_555

#END
