
#######################################################################
#
#                 Cambridge Crystallographic Data Centre
#                                CCDC 
#
#######################################################################
#
# If this CIF has been generated from an entry in the Cambridge 
# Structural Database, then it will include bibliographic, chemical, 
# crystal, experimental, refinement or atomic coordinate data resulting 
# from the CCDC's data processing and validation procedures.
#
#######################################################################

data_RUQVEF
_chemical_formula_moiety         '(C22 H20 N2 O8 Zn2)n,6.69n(C1 H4)'
_chemical_name_systematic        
'catena-(bis(\m~4~-Benzene-1,4-dicarboxylato)-(\m~2~-1,4-diazabicyclo(2.2.2)octane)-di-zinc methane)'
_symmetry_cell_setting           tetragonal
_symmetry_space_group_name_H-M   'P 4/m m m'
_symmetry_Int_Tables_number      123
_space_group_name_Hall           '-P 4 2'
loop_
_symmetry_equiv_pos_site_id
_symmetry_equiv_pos_as_xyz
1 x,y,z
2 -x,-y,z
3 -y,x,z
4 y,-x,z
5 -x,y,-z
6 x,-y,-z
7 y,x,-z
8 -y,-x,-z
9 -x,-y,-z
10 x,y,-z
11 y,-x,-z
12 -y,x,-z
13 x,-y,z
14 -x,y,z
15 -y,-x,z
16 y,x,z
_cell_length_a                   10.9520(10)
_cell_length_b                   10.9520(10)
_cell_length_c                   9.6270(10)
_cell_angle_alpha                90
_cell_angle_beta                 90
_cell_angle_gamma                90
_cell_volume                     1154.72
_exptl_crystal_colour            colorless
_exptl_crystal_description       block
_cell_formula_units_Z            1
loop_
_atom_site_label
_atom_site_type_symbol
_atom_site_fract_x
_atom_site_fract_y
_atom_site_fract_z
C5 C 0.6959(19) 0.6959(19) 0.225(3)
C6 C 0.5000 0.855(4) 0.5000
C7 C 0.5000 0.5000 0.5000
Zn1 Zn 1.0000 1.0000 0.15090(10)
O1 O 0.8174(4) 1.0000 0.1170(5)
C1 C 0.7631(7) 1.0000 0.0000
C2 C 0.6294(7) 1.0000 0.0000
C3 C 0.5643(6) 1.0000 0.1251(6)
H1 H 0.6073 1.0000 0.2109
N1 N 1.0000 1.0000 0.3655(10)
C4 C 0.9527(13) 0.8832(11) 0.4186(8)
H2 H 1.0042 0.8154 0.3842
H3 H 0.8685 0.8704 0.3842
Zn1D Zn 1.0000 1.0000 -0.15090(10)
Zn1_2 Zn 0.0000 1.0000 0.15090(10)
Zn1D_2 Zn 0.0000 1.0000 -0.15090(10)
Zn1D_3 Zn 1.0000 1.0000 0.84910(10)
Zn1_3 Zn 2.0000 1.0000 0.15090(10)
Zn1D_4 Zn 2.0000 1.0000 -0.15090(10)
O1E O 0.8174(4) 1.0000 -0.1170(5)
O1A O 0.1826(4) 1.0000 0.1170(5)
O1D O 0.1826(4) 1.0000 -0.1170(5)
O1A_2 O 1.1826(4) 1.0000 0.1170(5)
O1D_2 O 1.1826(4) 1.0000 -0.1170(5)
O1_2 O 1.8174(4) 1.0000 0.1170(5)
O1E_2 O 1.8174(4) 1.0000 -0.1170(5)
O1B O 1.0000 0.8174(4) 0.1170(5)
O1C O 1.0000 1.1826(4) 0.1170(5)
O1G O 1.0000 1.1826(4) -0.1170(5)
O1F O 1.0000 0.8174(4) -0.1170(5)
C1A C 0.2369(7) 1.0000 0.0000
C1A_2 C 1.2369(7) 1.0000 0.0000
C1_2 C 1.7631(7) 1.0000 0.0000
C2A C 0.3706(7) 1.0000 0.0000
C2A_2 C 1.3706(7) 1.0000 0.0000
C2_2 C 1.6294(7) 1.0000 0.0000
C3A C 0.4357(6) 1.0000 0.1251(6)
C3D C 0.4357(6) 1.0000 -0.1251(6)
C3E C 0.5643(6) 1.0000 -0.1251(6)
C3A_2 C 1.4357(6) 1.0000 0.1251(6)
C3_2 C 1.5643(6) 1.0000 0.1251(6)
C3E_2 C 1.5643(6) 1.0000 -0.1251(6)
C3D_2 C 1.4357(6) 1.0000 -0.1251(6)
H1E H 0.6073 1.0000 -0.2109
H1D H 0.3927 1.0000 -0.2109
H1A H 0.3927 1.0000 0.2109
H1A_2 H 1.3927 1.0000 0.2109
H1D_2 H 1.3927 1.0000 -0.2109
H1E_2 H 1.6073 1.0000 -0.2109
H1_2 H 1.6073 1.0000 0.2109
N1D N 1.0000 1.0000 0.6345(10)
N1D_2 N 1.0000 1.0000 -0.3655(10)
C4M C 1.0473(13) 0.8832(11) 0.4186(8)
C4A C 1.0473(13) 1.1168(11) 0.4186(8)
C4L C 0.9527(13) 1.1168(11) 0.4186(8)
C4B C 1.1168(11) 0.9527(13) 0.4186(8)
C4N C 1.1168(11) 1.0473(13) 0.4186(8)
C4C C 0.8832(11) 1.0473(13) 0.4186(8)
C4O C 0.8832(11) 0.9527(13) 0.4186(8)
C4F C 0.8832(11) 0.9527(13) 0.5814(8)
C4G C 1.1168(11) 1.0473(13) 0.5814(8)
C4K C 1.1168(11) 0.9527(13) 0.5814(8)
C4E C 0.9527(13) 1.1168(11) 0.5814(8)
C4H C 1.0473(13) 1.1168(11) 0.5814(8)
C4D C 1.0473(13) 0.8832(11) 0.5814(8)
C4I C 0.9527(13) 0.8832(11) 0.5814(8)
C4J C 0.8832(11) 1.0473(13) 0.5814(8)
H2A H 0.9958 1.1846 0.3842
H2B H 1.1846 1.0042 0.3842
H2C H 0.8154 0.9958 0.3842
H2O H 0.8154 1.0042 0.3842
H2L H 1.0042 1.1846 0.3842
H2N H 1.1846 0.9958 0.3842
H2M H 0.9958 0.8154 0.3842
H2G H 1.1846 0.9958 0.6158
H2E H 1.0042 1.1846 0.6158
H2D H 0.9958 0.8154 0.6158
H2J H 0.8154 0.9958 0.6158
H2F H 0.8154 1.0042 0.6158
H2H H 0.9958 1.1846 0.6158
H2K H 1.1846 1.0042 0.6158
H2I H 1.0042 0.8154 0.6158
H3C H 0.8704 1.1315 0.3842
H3A H 1.1315 1.1296 0.3842
H3B H 1.1296 0.8685 0.3842
H3J H 0.8704 1.1315 0.6158
H3H H 1.1315 1.1296 0.6158
H3K H 1.1296 0.8685 0.6158
H3I H 0.8685 0.8704 0.6158
loop_
_geom_bond_atom_site_label_1
_geom_bond_atom_site_label_2
_geom_bond_site_symmetry_1
_geom_bond_site_symmetry_2
Zn1 O1 1_555 1_555
O1 C1 1_555 1_555
C1 C2 1_555 1_555
C2 C3 1_555 1_555
C3 H1 1_555 1_555
N1 Zn1 1_555 1_555
C4 N1 1_555 1_555
H2 C4 1_555 1_555
H3 C4 1_555 1_555
Zn1D O1E 1_555 1_555
Zn1_2 O1A 1_555 1_555
Zn1D_2 O1D 1_555 1_555
Zn1D_3 N1D 1_555 1_555
Zn1_3 O1_2 1_555 1_555
Zn1D_4 O1E_2 1_555 1_555
O1E C1 1_555 1_555
O1A C1A 1_555 1_555
O1D C1A 1_555 1_555
O1A_2 Zn1 1_555 1_555
O1D_2 Zn1D 1_555 1_555
O1_2 C1_2 1_555 1_555
O1E_2 C1_2 1_555 1_555
O1B Zn1 1_555 1_555
O1C Zn1 1_555 1_555
O1G Zn1D 1_555 1_555
O1F Zn1D 1_555 1_555
C1A C2A 1_555 1_555
C1A_2 O1A_2 1_555 1_555
C1_2 C2_2 1_555 1_555
C2A C3A 1_555 1_555
C2A_2 C1A_2 1_555 1_555
C2_2 C3_2 1_555 1_555
C3A C3 1_555 1_555
C3D C2A 1_555 1_555
C3E C2 1_555 1_555
C3A_2 C2A_2 1_555 1_555
C3_2 C3A_2 1_555 1_555
C3E_2 C2_2 1_555 1_555
C3D_2 C2A_2 1_555 1_555
H1E C3E 1_555 1_555
H1D C3D 1_555 1_555
H1A C3A 1_555 1_555
H1A_2 C3A_2 1_555 1_555
H1D_2 C3D_2 1_555 1_555
H1E_2 C3E_2 1_555 1_555
H1_2 C3_2 1_555 1_555
N1D C4F 1_555 1_555
N1D_2 Zn1D 1_555 1_555
C4M N1 1_555 1_555
C4A N1 1_555 1_555
C4L N1 1_555 1_555
C4B N1 1_555 1_555
C4N N1 1_555 1_555
C4C N1 1_555 1_555
C4O N1 1_555 1_555
C4F C4O 1_555 1_555
C4G N1D 1_555 1_555
C4K N1D 1_555 1_555
C4E N1D 1_555 1_555
C4H N1D 1_555 1_555
C4D N1D 1_555 1_555
C4I C4 1_555 1_555
C4J N1D 1_555 1_555
H2A C4A 1_555 1_555
H2B C4B 1_555 1_555
H2C C4C 1_555 1_555
H2O C4C 1_555 1_555
H2L C4A 1_555 1_555
H2N C4B 1_555 1_555
H2M C4 1_555 1_555
H2G C4G 1_555 1_555
H2E C4E 1_555 1_555
H2D C4D 1_555 1_555
H2J C4F 1_555 1_555
H2F C4F 1_555 1_555
H2H C4E 1_555 1_555
H2K C4G 1_555 1_555
H2I C4D 1_555 1_555
H3C C4L 1_555 1_555
H3A C4A 1_555 1_555
H3B C4M 1_555 1_555
H3J C4E 1_555 1_555
H3H C4G 1_555 1_555
H3K C4K 1_555 1_555
H3I C4F 1_555 1_555
C4 C4M 1_555 1_555
C4 C4O 1_555 1_555
H2 C4M 1_555 1_555
H2 H2M 1_555 1_555
H3 C4O 1_555 1_555
O1D_2 C1A_2 1_555 1_555
C3D C3E 1_555 1_555
C3E_2 C3D_2 1_555 1_555
N1D C4I 1_555 1_555
C4M C4B 1_555 1_555
C4M C4D 1_555 1_555
C4M H2M 1_555 1_555
C4A C4L 1_555 1_555
C4A C4N 1_555 1_555
C4A C4H 1_555 1_555
C4L C4C 1_555 1_555
C4L C4E 1_555 1_555
C4L H2A 1_555 1_555
C4L H2L 1_555 1_555
C4B C4N 1_555 1_555
C4B C4K 1_555 1_555
C4B H3B 1_555 1_555
C4N C4G 1_555 1_555
C4N H2B 1_555 1_555
C4N H2N 1_555 1_555
C4N H3A 1_555 1_555
C4C C4O 1_555 1_555
C4C C4J 1_555 1_555
C4C H3C 1_555 1_555
C4O H2C 1_555 1_555
C4O H2O 1_555 1_555
C4F C4I 1_555 1_555
C4F C4J 1_555 1_555
C4G C4K 1_555 1_555
C4G C4H 1_555 1_555
C4K C4D 1_555 1_555
C4K H2G 1_555 1_555
C4K H2K 1_555 1_555
C4E C4H 1_555 1_555
C4E C4J 1_555 1_555
C4H H2E 1_555 1_555
C4H H2H 1_555 1_555
C4H H3H 1_555 1_555
C4D C4I 1_555 1_555
C4D H3K 1_555 1_555
C4I H2D 1_555 1_555
C4I H2I 1_555 1_555
C4I H3I 1_555 1_555
C4J H2J 1_555 1_555
C4J H2F 1_555 1_555
C4J H3J 1_555 1_555
H2A H2L 1_555 1_555
H2B H2N 1_555 1_555
H2C H2O 1_555 1_555
H2G H2K 1_555 1_555
H2E H2H 1_555 1_555
H2D H2I 1_555 1_555
H2J H2F 1_555 1_555

#END
