
#######################################################################
#
#                 Cambridge Crystallographic Data Centre
#                                CCDC 
#
#######################################################################
#
# If this CIF has been generated from an entry in the Cambridge 
# Structural Database, then it will include bibliographic, chemical, 
# crystal, experimental, refinement or atomic coordinate data resulting 
# from the CCDC's data processing and validation procedures.
#
#######################################################################

data_NONXAQ
_chemical_formula_moiety         '(C17 H13 Cd1 N3 O6)n,5n(H2 O1)'
_chemical_name_systematic        
"catena-((\m~3~-Pyridine-3,5-dicarboxylato N-oxide)-aqua-(4,4'-bipyridine)-cadmium pentahydrate)"
_symmetry_cell_setting           triclinic
_symmetry_space_group_name_H-M   'P -1'
_symmetry_Int_Tables_number      2
_space_group_name_Hall           '-P 1'
loop_
_symmetry_equiv_pos_site_id
_symmetry_equiv_pos_as_xyz
1 x,y,z
2 -x,-y,-z
_cell_length_a                   7.7037(8)
_cell_length_b                   8.8208(10)
_cell_length_c                   15.5582(17)
_cell_angle_alpha                83.059(2)
_cell_angle_beta                 77.095(2)
_cell_angle_gamma                77.234(2)
_cell_volume                     1002.2
_exptl_crystal_colour            colorless
_cell_formula_units_Z            2
_exptl_crystal_preparation       lumiescent
loop_
_atom_site_label
_atom_site_type_symbol
_atom_site_fract_x
_atom_site_fract_y
_atom_site_fract_z
C1 C 0.9736(5) 0.7337(4) 0.0434(2)
C2 C 1.0488(5) 0.5987(4) 0.0875(3)
H1 H 0.9947 0.5707 0.1451
C3 C 1.2070(5) 0.5046(4) 0.0444(3)
C4 C 1.2874(5) 0.5510(4) -0.0397(2)
H2 H 1.3923 0.4885 -0.0692
C5 C 1.0600(5) 0.7766(4) -0.0411(3)
H3 H 1.0106 0.8679 -0.0711
C6 C 0.8021(5) 0.8382(4) 0.0867(3)
C7 C 1.2963(5) 0.3558(4) 0.0882(3)
C8 C 1.5927(7) 0.8299(5) -0.3431(3)
H4 H 1.5647 0.7359 -0.3162
C9 C 1.6693(7) 0.8366(6) -0.4317(3)
H5 H 1.6897 0.7493 -0.4634
C10 C 1.7160(5) 0.9732(5) -0.4734(3)
C11 C 1.6706(7) 1.0999(5) -0.4229(3)
H6 H 1.6927 1.1964 -0.4485
C12 C 1.5931(6) 1.0834(5) -0.3352(3)
H7 H 1.5645 1.1705 -0.3026
C13 C 1.8110(5) 0.9825(6) -0.5677(3)
C14 C 1.8653(7) 1.1163(6) -0.6094(3)
H8 H 1.8363 1.2064 -0.5793
C15 C 1.9614(7) 1.1172(7) -0.6946(3)
H9 H 1.9978 1.2087 -0.7207
C16 C 1.9510(8) 0.8674(8) -0.7026(4)
H10 H 1.9798 0.7794 -0.7345
C17 C 1.8538(8) 0.8565(7) -0.6171(3)
H11 H 1.8174 0.7640 -0.5932
Cd1 Cd 1.48351(3) 0.91509(3) -0.146100(16)
N1 N 1.2148(4) 0.6862(3) -0.0796(2)
N2 N 1.5565(4) 0.9496(4) -0.2938(2)
N3 N 2.0055(6) 0.9934(6) -0.7419(3)
O1 O 1.3013(4) 0.7344(3) -0.15936(18)
O2 O 0.7543(4) 0.9689(3) 0.04672(19)
O3 O 0.7193(4) 0.7948(4) 0.1603(2)
O4 O 1.2418(5) 0.3269(4) 0.1690(2)
O5 O 1.4245(4) 0.2698(3) 0.0403(2)
O6 O 1.6874(4) 1.0574(4) -0.1269(2)
H12 H 1.7893 1.0276 -0.1608
H13 H 1.7001 1.0432 -0.0734
Cd1A Cd 0.51649(3) 1.08491(3) 0.146100(16)
Cd1A_2 Cd 1.51649(3) 0.08491(3) 0.146100(16)
O2A O 1.2457(4) 1.0311(3) -0.04672(19)
O3A O 1.2807(4) 1.2052(4) -0.1603(2)
O4A O 1.7582(5) 0.6731(4) -0.1690(2)
O5A O 1.5755(4) 0.7302(3) -0.0403(2)
O7 O 0.343(2) 0.4937(11) 0.5547(5)
H14 H 0.3622 0.5579 0.5100
H15 H 0.3168 0.5413 0.6017
O8 O 0.3210(9) 0.4917(6) 0.7323(3)
H16 H 0.3802 0.3985 0.7276
H17 H 0.3579 0.5344 0.7690
O9 O 0.652(3) 0.389(2) 0.773(2)
H18 H 0.6415 0.4423 0.7246
H19 H 0.6729 0.4451 0.8088
O10 O 0.108(6) 0.549(2) 0.474(3)
H20 H 0.1553 0.6126 0.4349
H21 H 0.0776 0.5880 0.5237
O11 O 0.952(4) 0.516(2) 0.6789(16)
H22 H 1.0599 0.5272 0.6764
H23 H 0.8833 0.5540 0.7254
loop_
_geom_bond_atom_site_label_1
_geom_bond_atom_site_label_2
_geom_bond_site_symmetry_1
_geom_bond_site_symmetry_2
C1 C2 1_555 1_555
C2 H1 1_555 1_555
C3 C2 1_555 1_555
C4 C3 1_555 1_555
H2 C4 1_555 1_555
C5 C1 1_555 1_555
H3 C5 1_555 1_555
C6 C1 1_555 1_555
C7 C3 1_555 1_555
C8 H4 1_555 1_555
C9 C8 1_555 1_555
H5 C9 1_555 1_555
C10 C9 1_555 1_555
C11 C10 1_555 1_555
H6 C11 1_555 1_555
C12 C11 1_555 1_555
H7 C12 1_555 1_555
C13 C10 1_555 1_555
C14 C13 1_555 1_555
H8 C14 1_555 1_555
C15 C14 1_555 1_555
H9 C15 1_555 1_555
C16 H10 1_555 1_555
C17 C13 1_555 1_555
H11 C17 1_555 1_555
Cd1 N2 1_555 1_555
N1 C4 1_555 1_555
N2 C8 1_555 1_555
N3 C15 1_555 1_555
O1 Cd1 1_555 1_555
O2 C6 1_555 1_555
O3 C6 1_555 1_555
O4 C7 1_555 1_555
O5 C7 1_555 1_555
O6 Cd1 1_555 1_555
H12 O6 1_555 1_555
H13 O6 1_555 1_555
O7 H14 1_555 1_555
H15 O7 1_555 1_555
O8 H16 1_555 1_555
H17 O8 1_555 1_555
O9 H18 1_555 1_555
H19 O9 1_555 1_555
O10 H20 1_555 1_555
H21 O10 1_555 1_555
O11 H22 1_555 1_555
H23 O11 1_555 1_555
Cd1A O2 1_555 1_555
Cd1A_2 O4 1_555 1_555
O2A Cd1 1_555 1_555
O3A Cd1 1_555 1_555
O4A Cd1 1_555 1_555
O5A Cd1 1_555 1_555
C5 N1 1_555 1_555
C12 N2 1_555 1_555
C16 C17 1_555 1_555
C16 N3 1_555 1_555
N1 O1 1_555 1_555
O3 Cd1A 1_555 1_555
O5 Cd1A_2 1_555 1_555

#END
