
#######################################################################
#
#                 Cambridge Crystallographic Data Centre
#                                CCDC 
#
#######################################################################
#
# If this CIF has been generated from an entry in the Cambridge 
# Structural Database, then it will include bibliographic, chemical, 
# crystal, experimental, refinement or atomic coordinate data resulting 
# from the CCDC's data processing and validation procedures.
#
#######################################################################

data_GIKMOD01
_chemical_formula_moiety         '(C8 H6 Cu2 O9 S1)n,2n(H2 O1)'
_chemical_name_systematic        
'catena-((\m~6~-5-sulfoisophthalato)-(\m~3~-hydroxo)-aqua-di-copper dihydrate)'
_symmetry_cell_setting           monoclinic
_symmetry_space_group_name_H-M   'P 21/n'
_symmetry_Int_Tables_number      14
_space_group_name_Hall           '-P 2yn'
loop_
_symmetry_equiv_pos_site_id
_symmetry_equiv_pos_as_xyz
1 x,y,z
2 1/2-x,1/2+y,1/2-z
3 -x,-y,-z
4 1/2+x,1/2-y,1/2+z
_cell_length_a                   7.2806(5)
_cell_length_b                   18.2421(11)
_cell_length_c                   10.1075(6)
_cell_angle_alpha                90
_cell_angle_beta                 94.8860(10)
_cell_angle_gamma                90
_cell_volume                     1337.53
_exptl_crystal_colour            blue
_exptl_crystal_description       prism
_cell_formula_units_Z            4
loop_
_atom_site_label
_atom_site_type_symbol
_atom_site_fract_x
_atom_site_fract_y
_atom_site_fract_z
Cu1 Cu 0.44842(5) 0.06851(2) 0.06421(4)
Cu2 Cu 0.13383(6) 0.40758(2) 0.28302(4)
S1 S 0.61384(11) 0.43348(4) 0.30354(7)
O1 O 0.4515(3) 0.40185(13) 0.3574(2)
O2 O 0.8365(3) 0.50967(13) -0.1674(2)
O3 O 0.6076(4) 0.51227(14) 0.2913(2)
O4 O 0.6156(3) 0.18446(12) -0.1268(2)
O5 O 0.6340(3) 0.03495(11) -0.0525(2)
O6 O 0.1089(4) 0.34984(13) 0.1186(2)
H1 H 0.076(6) 0.3012(12) 0.117(4)
H2 H 0.154(5) 0.362(2) 0.036(3)
C1 C 0.5921(4) 0.32036(17) 0.1303(3)
H3 H 0.5496 0.2934 0.1996
C2 C 0.7158(4) 0.40247(16) -0.0777(3)
C3 C 0.6258(4) 0.39483(17) 0.1449(3)
C4 C 0.6852(4) 0.32779(17) -0.0916(3)
H4 H 0.7069 0.3049 -0.1710
C5 C 0.6225(4) 0.28648(17) 0.0111(3)
C6 C 0.5917(4) 0.20598(17) -0.0121(3)
C7 C 0.6881(5) 0.43656(17) 0.0428(3)
H5 H 0.7110 0.4864 0.0545
O7 O 0.7949(3) 0.40927(13) -0.2967(2)
O8 O 0.5448(3) 0.16761(12) 0.0838(2)
O9 O 0.7818(3) 0.40693(15) 0.3763(3)
C8 C 0.7880(4) 0.44426(17) -0.1883(3)
Cu1B Cu 0.55158(5) -0.06851(2) -0.06421(4)
Cu1C Cu 0.94842(5) 0.43149(2) -0.43579(4)
Cu1C_2 Cu 0.94842(5) 0.43149(2) 0.56421(4)
Cu2B Cu 0.86617(6) 0.59242(2) -0.28302(4)
Cu2C Cu 0.63383(6) 0.09242(2) -0.21698(4)
O2B O 0.1635(3) 0.49033(13) 0.1674(2)
O4C O 0.1156(3) 0.31554(12) 0.3732(2)
O5B O 0.3660(3) -0.03495(11) 0.0525(2)
O5C O 0.1340(3) 0.46505(11) 0.4475(2)
O7C O 0.2949(3) 0.09073(13) 0.2033(2)
O9C O 0.2818(3) 0.09307(15) -0.1237(3)
O10 O 0.5403(5) 0.29724(16) 0.5794(3)
H6 H 0.503(7) 0.318(3) 0.497(3)
H7 H 0.629(5) 0.326(2) 0.623(4)
O11 O 0.7007(5) 0.12423(18) 0.3586(3)
H8 H 0.675(6) 0.1649(19) 0.304(4)
H9 H 0.777(6) 0.094(2) 0.314(4)
loop_
_geom_bond_atom_site_label_1
_geom_bond_atom_site_label_2
_geom_bond_site_symmetry_1
_geom_bond_site_symmetry_2
Cu1 O5 1_555 1_555
Cu2 O1 1_555 1_555
S1 O1 1_555 1_555
O2 C8 1_555 1_555
O3 S1 1_555 1_555
O4 C6 1_555 1_555
O5 Cu1B 1_555 1_555
O6 Cu2 1_555 1_555
H1 O6 1_555 1_555
H2 O6 1_555 1_555
C1 H3 1_555 1_555
C2 C4 1_555 1_555
C3 S1 1_555 1_555
C4 H4 1_555 1_555
C5 C1 1_555 1_555
C6 C5 1_555 1_555
C7 C2 1_555 1_555
H5 C7 1_555 1_555
O7 C8 1_555 1_555
O8 Cu1 1_555 1_555
O9 S1 1_555 1_555
O10 H6 1_555 1_555
H7 O10 1_555 1_555
O11 H8 1_555 1_555
H9 O11 1_555 1_555
C8 C2 1_555 1_555
Cu1B O5B 1_555 1_555
Cu1C O7 1_555 1_555
Cu1C_2 O9 1_555 1_555
Cu2B O2 1_555 1_555
Cu2C O4 1_555 1_555
O2B Cu2 1_555 1_555
O4C Cu2 1_555 1_555
O5B Cu1 1_555 1_555
O5C Cu2 1_555 1_555
O7C Cu1 1_555 1_555
O9C Cu1 1_555 1_555
O5 Cu2C 1_555 1_555
C1 C3 1_555 1_555
C3 C7 1_555 1_555
C4 C5 1_555 1_555
C6 O8 1_555 1_555

#END
