
#######################################################################
#
#                 Cambridge Crystallographic Data Centre
#                                CCDC 
#
#######################################################################
#
# If this CIF has been generated from an entry in the Cambridge 
# Structural Database, then it will include bibliographic, chemical, 
# crystal, experimental, refinement or atomic coordinate data resulting 
# from the CCDC's data processing and validation procedures.
#
#######################################################################

data_HUCBOX
_chemical_formula_moiety         '(C16 H8 Cu4 O16 S2)n'
_chemical_name_systematic        
catena-(bis(\m~6~-5-sulfoisophthalato)-bis(\m~3~-hydroxo)-tetra-copper)
_symmetry_cell_setting           monoclinic
_symmetry_space_group_name_H-M   'P 21/n'
_symmetry_Int_Tables_number      14
_space_group_name_Hall           '-P 2yn'
loop_
_symmetry_equiv_pos_site_id
_symmetry_equiv_pos_as_xyz
1 x,y,z
2 1/2-x,1/2+y,1/2-z
3 -x,-y,-z
4 1/2+x,1/2-y,1/2+z
_cell_length_a                   13.833(6)
_cell_length_b                   19.434(12)
_cell_length_c                   12.102(7)
_cell_angle_alpha                90
_cell_angle_beta                 139.16(3)
_cell_angle_gamma                90
_cell_volume                     2127.55
_exptl_crystal_colour            blue
_exptl_crystal_description       prism
_cell_formula_units_Z            4
_exptl_crystal_preparation       
'Prepared by careful dehydration of single crystals at 500 K'
loop_
_atom_site_label
_atom_site_type_symbol
_atom_site_fract_x
_atom_site_fract_y
_atom_site_fract_z
C1 C 0.4698(9) 0.1694(4) -0.1549(11)
C2 C 0.2775(10) 0.4005(4) -0.1988(13)
C3 C 0.4768(9) 0.2460(4) -0.1486(11)
C4 C 0.3755(9) 0.2844(4) -0.1754(12)
C5 C 0.3808(9) 0.3550(4) -0.1749(12)
C6 C 0.4832(10) 0.3882(4) -0.1539(12)
C7 C 0.5837(9) 0.3497(4) -0.1271(11)
C8 C 0.5824(9) 0.2786(4) -0.1233(12)
C9 C -0.2501(10) 0.0826(4) -0.2341(13)
C10 C -0.0404(9) 0.3113(4) -0.1729(12)
C11 C -0.1421(9) 0.1255(4) -0.2058(12)
C12 C -0.1438(10) 0.1968(4) -0.1994(12)
C13 C -0.0389(9) 0.2344(4) -0.1712(11)
C14 C 0.0652(10) 0.1999(4) -0.1468(12)
C15 C 0.0612(9) 0.1290(4) -0.1530(11)
C16 C -0.0416(9) 0.0910(4) -0.1826(12)
O1 O 0.4737(6) 0.0049(3) -0.1605(8)
O2 O -0.4762(6) -0.0257(2) -0.3242(8)
O3 O -0.2804(9) 0.0260(3) -0.3019(12)
O4 O -0.3087(7) 0.1070(3) -0.2005(10)
O5 O 0.5819(6) 0.1382(3) -0.0956(8)
O6 O 0.3522(6) 0.1419(2) -0.2225(8)
O7 O 0.1801(7) 0.3712(3) -0.2264(10)
O8 O 0.3028(8) 0.4616(3) -0.1785(12)
O9 O 0.0733(6) 0.3396(3) -0.1183(8)
O10 O -0.1497(6) 0.3406(2) -0.2273(8)
O11 O 0.8536(7) 0.3516(4) 0.0280(10)
O12 O 0.6631(6) 0.4051(3) -0.2463(8)
O13 O 0.7395(8) 0.4574(4) -0.0071(10)
O14 O 0.2116(7) 0.0178(3) -0.0461(9)
O15 O 0.3348(6) 0.1246(3) 0.0155(8)
O16 O 0.1447(7) 0.0806(3) -0.2711(8)
S1 S 0.7216(3) 0.39345(11) -0.0832(3)
S2 S 0.1999(2) 0.08462(10) -0.1090(3)
Cu1 Cu 0.28678(12) 0.04903(4) -0.26872(16)
Cu2 Cu -0.31575(12) -0.06515(4) -0.27558(16)
Cu3 Cu 0.44553(12) -0.08236(5) -0.26921(17)
Cu4 Cu 0.57111(13) 0.05853(5) -0.19718(17)
H1 H -0.038(11) 0.0410(15) -0.195(12)
H2 H 0.129(8) 0.237(3) -0.123(10)
H3 H -0.194(10) 0.220(5) -0.179(12)
H4 H 0.638(8) 0.244(3) -0.119(10)
H5 H 0.475(9) 0.4390(12) -0.169(10)
H6 H 0.318(6) 0.263(3) -0.164(8)
O2_2 O 0.5238(6) -0.0257(2) -0.3242(8)
O4_2 O 0.6913(7) 0.1070(3) -0.2005(10)
O7A O 0.3199(7) -0.1288(3) -0.2736(10)
O8A O 0.1972(8) -0.0384(3) -0.3215(12)
O9A O 0.4267(6) -0.1604(3) -0.3817(8)
O10A O -0.3503(6) -0.1594(2) -0.2727(8)
O12A O -0.1631(6) -0.0949(3) -0.2537(8)
O13C O 0.2395(8) 0.0426(4) -0.5071(10)
O15B O 0.6652(6) -0.1246(3) -0.0155(8)
Cu1A Cu 0.21322(12) 0.54903(4) -0.23128(16)
Cu1C Cu 0.78678(12) 0.45097(4) 0.23128(16)
Cu2A Cu -0.18425(12) 0.43485(4) -0.22442(16)
Cu2A_2 Cu 0.81575(12) 0.43485(4) -0.22442(16)
Cu3_2 Cu -0.55447(12) -0.08236(5) -0.26921(17)
Cu3A Cu 0.05447(12) 0.41764(5) -0.23079(17)
Cu3B Cu 0.55447(12) 0.08236(5) 0.26921(17)
Cu4_2 Cu -0.42889(13) 0.05853(5) -0.19718(17)
loop_
_geom_bond_atom_site_label_1
_geom_bond_atom_site_label_2
_geom_bond_site_symmetry_1
_geom_bond_site_symmetry_2
C1 C3 1_555 1_555
C2 C5 1_555 1_555
C3 C4 1_555 1_555
C4 C5 1_555 1_555
C5 C6 1_555 1_555
C6 C7 1_555 1_555
C7 C8 1_555 1_555
C8 C3 1_555 1_555
C9 C11 1_555 1_555
C10 C13 1_555 1_555
C11 C12 1_555 1_555
C12 C13 1_555 1_555
C13 C14 1_555 1_555
C14 C15 1_555 1_555
C15 C16 1_555 1_555
C16 C11 1_555 1_555
O1 Cu1 1_555 1_555
O2 Cu2 1_555 1_555
O3 C9 1_555 1_555
O4 C9 1_555 1_555
O5 C1 1_555 1_555
O6 C1 1_555 1_555
O7 C2 1_555 1_555
O8 C2 1_555 1_555
O9 C10 1_555 1_555
O10 C10 1_555 1_555
O11 S1 1_555 1_555
O12 S1 1_555 1_555
O13 S1 1_555 1_555
O14 S2 1_555 1_555
O15 S2 1_555 1_555
O16 S2 1_555 1_555
S1 C7 1_555 1_555
S2 C15 1_555 1_555
Cu1 O6 1_555 1_555
Cu2 O3 1_555 1_555
Cu3 O1 1_555 1_555
Cu4 O1 1_555 1_555
H1 C16 1_555 1_555
H2 C14 1_555 1_555
H3 C12 1_555 1_555
H4 C8 1_555 1_555
H5 C6 1_555 1_555
H6 C4 1_555 1_555
O2_2 Cu3 1_555 1_555
O4_2 Cu4 1_555 1_555
O7A Cu3 1_555 1_555
O8A Cu1 1_555 1_555
O9A Cu3 1_555 1_555
O10A Cu2 1_555 1_555
O12A Cu2 1_555 1_555
O13C Cu1 1_555 1_555
O15B Cu3 1_555 1_555
Cu1A O8 1_555 1_555
Cu1C O13 1_555 1_555
Cu2A O10 1_555 1_555
Cu2A_2 O12 1_555 1_555
Cu3_2 O2 1_555 1_555
Cu3A O7 1_555 1_555
Cu3B O15 1_555 1_555
Cu4_2 O2 1_555 1_555
O4 Cu4_2 1_555 1_555
O5 Cu4 1_555 1_555
O9 Cu3A 1_555 1_555
O16 Cu1 1_555 1_555
Cu4 O2_2 1_555 1_555

#END
