
#######################################################################
#
#                 Cambridge Crystallographic Data Centre
#                                CCDC 
#
#######################################################################
#
# If this CIF has been generated from an entry in the Cambridge 
# Structural Database, then it will include bibliographic, chemical, 
# crystal, experimental, refinement or atomic coordinate data resulting 
# from the CCDC's data processing and validation procedures.
#
#######################################################################

data_HUCBUD
_chemical_formula_moiety         '(C13 H9 Cu2 N1 O8 S1)n,n(H2 O1)'
_chemical_name_systematic        
'catena-((\m~4~-5-sulfoisophthalato)-(\m~3~-hydroxo)-pyridine-di-copper monohydrate)'
_symmetry_cell_setting           monoclinic
_symmetry_space_group_name_H-M   'P 21/n'
_symmetry_Int_Tables_number      14
_space_group_name_Hall           '-P 2yn'
loop_
_symmetry_equiv_pos_site_id
_symmetry_equiv_pos_as_xyz
1 x,y,z
2 1/2-x,1/2+y,1/2-z
3 -x,-y,-z
4 1/2+x,1/2-y,1/2+z
_cell_length_a                   7.492(4)
_cell_length_b                   18.289(9)
_cell_length_c                   10.942(6)
_cell_angle_alpha                90
_cell_angle_beta                 90.778(7)
_cell_angle_gamma                90
_cell_volume                     1499.15
_exptl_crystal_colour            blue
_exptl_crystal_description       prism
_cell_formula_units_Z            4
_exptl_crystal_preparation       
'Dehydration of the material occurs at approximately 425 K, but the pyridine is retained so no structural phase transition was observed'
loop_
_atom_site_label
_atom_site_type_symbol
_atom_site_fract_x
_atom_site_fract_y
_atom_site_fract_z
_atom_site_U_iso_or_equiv
_atom_site_thermal_displace_type
Cu1 Cu 0.95031(12) 0.05969(4) 0.58331(8) 0.0244 Uani
Cu2 Cu 0.84079(12) 0.08323(4) 0.28829(8) 0.0240 Uani
S1 S 1.3009(3) 0.07868(9) 1.28290(16) 0.0261 Uani
O1 O 1.4726(7) 0.1029(3) 1.3307(5) 0.0315 Uani
O2 O 1.2903(8) -0.0007(3) 1.2657(5) 0.0369 Uani
O3 O 1.1508(7) 0.1060(3) 1.3534(5) 0.0341 Uani
O4 O 0.8603(7) 0.0164(2) 0.4310(4) 0.0241 Uani
O5 O 1.3124(7) 0.3270(2) 0.8803(4) 0.0271 Uani
O6 O 1.1359(7) -0.0010(3) 0.8256(4) 0.0278 Uani
O7 O 1.0564(7) 0.1024(3) 0.7260(4) 0.0272 Uani
O8 O 1.3063(7) 0.3511(3) 1.0820(4) 0.0257 Uani
C1 C 1.2712(9) 0.1202(4) 1.1361(6) 0.0218 Uani
C2 C 1.2098(10) 0.0784(4) 1.0390(6) 0.0238 Uani
H1 H 1.1920 0.0273 1.0489 0.0290 Uiso
C3 C 1.1741(9) 0.1115(4) 0.9264(6) 0.0228 Uani
C4 C 1.1935(10) 0.1866(4) 0.9156(6) 0.0231 Uani
H2 H 1.1620 0.2096 0.8404 0.0280 Uiso
C5 C 1.2578(10) 0.2293(4) 1.0116(6) 0.0244 Uani
C6 C 1.2983(9) 0.1959(4) 1.1232(6) 0.0224 Uani
H3 H 1.3436 0.2240 1.1898 0.0270 Uiso
C7 C 1.2939(9) 0.3093(4) 0.9892(6) 0.0231 Uani
C8 C 0.6979(11) 0.1124(4) 0.0398(7) 0.0307 Uani
H4 H 0.6655 0.0623 0.0443 0.0370 Uiso
N1 N 0.7856(8) 0.1431(3) 0.1380(5) 0.0247 Uani
C9 C 0.6543(10) 0.1504(4) -0.0649(7) 0.0318 Uani
H5 H 0.5981 0.1265 -0.1322 0.0380 Uiso
C10 C 0.6942(11) 0.2245(5) -0.0700(7) 0.0334 Uani
H6 H 0.6625 0.2524 -0.1402 0.0400 Uiso
C11 C 0.7810(11) 0.2573(4) 0.0285(7) 0.0320 Uani
H7 H 0.8092 0.3079 0.0271 0.0380 Uiso
C12 C 0.8257(10) 0.2145(4) 0.1289(6) 0.0284 Uani
H8 H 0.8880 0.2370 0.1951 0.0340 Uiso
C13 C 1.1173(9) 0.0662(4) 0.8179(6) 0.0238 Uani
Cu1B Cu 1.04969(12) -0.05969(4) 0.41669(8) 0.0244 Uani
Cu1C Cu 1.45031(12) 0.44031(4) 1.08331(8) 0.0244 Uani
Cu2C Cu 1.34079(12) 0.41677(4) 0.78829(8) 0.0240 Uani
Cu2B Cu 1.15921(12) -0.08323(4) 0.71171(8) 0.0240 Uani
O4B O 1.1397(7) -0.0164(2) 0.5690(4) 0.0241 Uani
O5C O 0.8124(7) 0.1730(2) 0.3803(4) 0.0271 Uani
O6B O 0.8641(7) 0.0010(3) 0.1744(4) 0.0278 Uani
O8C O 0.8063(7) 0.1489(3) 0.5820(4) 0.0257 Uani
O9 O 0.4289(8) 0.0670(3) 0.5878(6) 0.0298 Uani
H9 H 0.491(10) 0.081(4) 0.529(8) 0.0200 Uiso
H10 H 0.492(14) 0.062(6) 0.637(10) 0.0500 Uiso
loop_
_atom_site_aniso_label
_atom_site_aniso_U_11
_atom_site_aniso_U_22
_atom_site_aniso_U_33
_atom_site_aniso_U_23
_atom_site_aniso_U_13
_atom_site_aniso_U_12
Cu1 0.0331(5) 0.0164(4) 0.0233(4) -0.0009(3) -0.0162(3) 0.0019(3)
Cu2 0.0352(5) 0.0153(4) 0.0212(4) 0.0004(3) -0.0126(3) 0.0005(3)
S1 0.0343 0.0217 0.0219 0.0027 -0.0136 -0.0033
O1 0.037 0.03 0.027 0.002 -0.016 -0.005
O2 0.056 0.017 0.037 0 -0.026 0
O3 0.037 0.038 0.027 0.006 -0.009 -0.003
O4 0.032(3) 0.017(2) 0.023(2) -0.0012(17) -0.016(2) 0.0008(19)
O5 0.045 0.017 0.019 0.0016 -0.008 -0.003
O6 0.046 0.014 0.023 -0.0036 -0.013 0
O7 0.039 0.02 0.022 -0.0013 -0.019 0.002
O8 0.037 0.02 0.02 -0.0042 -0.008 0
C1 0.027 0.019 0.019 -0.002 -0.009 -0.001
C2 0.03 0.015 0.026 -0.002 -0.013 -0.001
C3 0.025 0.018 0.025 0 -0.01 -0.002
C4 0.031 0.023 0.015 -0.002 -0.009 0.002
C5 0.032 0.019 0.022 -0.002 -0.007 -0.001
C6 0.027 0.022 0.018 -0.002 -0.006 -0.002
C7 0.024 0.02 0.025 -0.001 -0.009 0.001
C8 0.037(4) 0.024(4) 0.031(4) 0.002(3) -0.008(3) 0.000(3)
N1 0.040(4) 0.018(3) 0.016(3) 0.001(2) -0.004(2) 0.003(2)
C9 0.036(4) 0.034(4) 0.025(4) -0.004(3) -0.009(3) 0.002(3)
C10 0.030(4) 0.040(4) 0.030(4) 0.008(3) -0.008(3) 0.004(3)
C11 0.038(4) 0.024(4) 0.034(4) 0.013(3) -0.004(3) -0.001(3)
C12 0.038(4) 0.028(4) 0.019(3) -0.003(3) -0.010(3) 0.003(3)
C13 0.024 0.028 0.019 0.001 -0.011 -0.004
Cu1B 0.0331 0.0164 0.0233 -0.0009 -0.0162 0.0019
Cu1C 0.0331 0.0164 0.0233 0.0009 -0.0162 -0.0019
Cu2C 0.0352 0.0153 0.0212 -0.0004 -0.0126 -0.0005
Cu2B 0.0352 0.0153 0.0212 0.0004 -0.0126 0.0005
O4B 0.032 0.017 0.023 -0.0012 -0.016 0.0008
O5C 0.045(3) 0.017(2) 0.019(2) -0.0016(18) -0.008(2) 0.003(2)
O6B 0.046 0.014 0.023 -0.0036 -0.013 0
O8C 0.037(3) 0.020(2) 0.020(2) 0.0042(18) -0.008(2) 0.000(2)
O9 0.035(3) 0.027(3) 0.027(3) 0.007(2) -0.010(2) -0.003(2)
loop_
_geom_bond_atom_site_label_1
_geom_bond_atom_site_label_2
_geom_bond_site_symmetry_1
_geom_bond_site_symmetry_2
Cu1 O4 1_555 1_555
Cu2 O4 1_555 1_555
S1 O1 1_555 1_555
O2 S1 1_555 1_555
O3 S1 1_555 1_555
O4 Cu1B 1_555 1_555
O5 C7 1_555 1_555
O6 C13 1_555 1_555
O7 Cu1 1_555 1_555
O8 C7 1_555 1_555
C1 S1 1_555 1_555
C2 C1 1_555 1_555
H1 C2 1_555 1_555
C3 C2 1_555 1_555
C4 C3 1_555 1_555
H2 C4 1_555 1_555
C5 C4 1_555 1_555
C6 C1 1_555 1_555
H3 C6 1_555 1_555
C7 C5 1_555 1_555
C8 H4 1_555 1_555
N1 Cu2 1_555 1_555
C9 C8 1_555 1_555
H5 C9 1_555 1_555
C10 C9 1_555 1_555
H6 C10 1_555 1_555
C11 C10 1_555 1_555
H7 C11 1_555 1_555
C12 N1 1_555 1_555
H8 C12 1_555 1_555
C13 O7 1_555 1_555
O9 H9 1_555 1_555
H10 O9 1_555 1_555
Cu1B O4B 1_555 1_555
Cu1C O8 1_555 1_555
Cu2C O5 1_555 1_555
Cu2B O6 1_555 1_555
O4B Cu1 1_555 1_555
O5C Cu2 1_555 1_555
O6B Cu2 1_555 1_555
O8C Cu1 1_555 1_555
C3 C13 1_555 1_555
C5 C6 1_555 1_555
C8 N1 1_555 1_555
C11 C12 1_555 1_555
Cu2B O4B 1_555 1_555

#END
