
#######################################################################
#
#                 Cambridge Crystallographic Data Centre
#                                CCDC 
#
#######################################################################
#
# If this CIF has been generated from an entry in the Cambridge 
# Structural Database, then it will include bibliographic, chemical, 
# crystal, experimental, refinement or atomic coordinate data resulting 
# from the CCDC's data processing and validation procedures.
#
#######################################################################

data_BIJJOV
_chemical_formula_moiety         '(C28 H16 Cd2 O12 S2)n,2.5n(H2 O1)'
_chemical_name_systematic        
"catena-[bis(\m~6~-4,4'-Sulfonyldibenzoato)-di-cadmium(ii) hydrate]"
_symmetry_cell_setting           monoclinic
_symmetry_space_group_name_H-M   'C 2/c'
_symmetry_Int_Tables_number      15
_space_group_name_Hall           '-C 2yc'
loop_
_symmetry_equiv_pos_site_id
_symmetry_equiv_pos_as_xyz
1 x,y,z
2 -x,y,1/2-z
3 1/2+x,1/2+y,z
4 1/2-x,1/2+y,1/2-z
5 -x,-y,-z
6 x,-y,1/2+z
7 1/2-x,1/2-y,-z
8 1/2+x,1/2-y,1/2+z
_cell_length_a                   13.3382(4)
_cell_length_b                   21.4986(7)
_cell_length_c                   10.1527(6)
_cell_angle_alpha                90
_cell_angle_beta                 95.0000(10)
_cell_angle_gamma                90
_cell_volume                     2900.23
_exptl_crystal_colour            colorless
_exptl_crystal_description       needle
_cell_formula_units_Z            4
loop_
_atom_site_label
_atom_site_type_symbol
_atom_site_fract_x
_atom_site_fract_y
_atom_site_fract_z
C1 C 0.1033(4) 0.7198(3) 0.7546(6)
C2 C 0.2599(5) 0.8031(3) 0.7541(7)
C3 C 0.1367(9) 0.7365(5) 0.6357(11)
H1 H 0.1082 0.7198 0.5566
C4 C 0.2156(9) 0.7798(5) 0.6382(12)
H2 H 0.2383 0.7929 0.5588
C5 C 0.2215(10) 0.7859(7) 0.8749(13)
H3 H 0.2492 0.8029 0.9541
C6 C 0.1424(10) 0.7436(6) 0.8752(12)
H4 H 0.1167 0.7317 0.9537
C7 C 0.3466(4) 0.8475(3) 0.7522(7)
C8 C 0.3628(4) 1.0173(3) 0.8044(6)
C9 C 0.2726(4) 1.0593(3) 0.7927(6)
C10 C 0.2384(5) 1.0820(3) 0.6681(7)
H5 H 0.2716 1.0718 0.5942
C11 C 0.1540(5) 1.1201(3) 0.6559(7)
H6 H 0.1304 1.1358 0.5737
C12 C 0.1051(4) 1.1346(3) 0.7678(7)
C13 C 0.1382(5) 1.1117(3) 0.8916(7)
H7 H 0.1045 1.1215 0.9652
C14 C 0.2227(5) 1.0737(3) 0.9033(7)
H8 H 0.2460 1.0578 0.9856
Cd1 Cd 0.51548(3) 0.926968(19) 0.91945(4)
O1 O 0.3851(3) 0.9906(2) 0.7035(5)
O2 O 0.4100(3) 1.0095(2) 0.9191(4)
O3 O 0.3789(3) 0.8710(2) 0.8607(5)
O4 O 0.3802(4) 0.8568(2) 0.6406(5)
O5 O 0.0046(3) 0.6338(2) 0.8725(5)
O6 O 0.0045(4) 1.2183(2) 0.6280(6)
S1 S 0.0000 0.66852(9) 0.7500
S2 S 0.0000 1.18504(10) 0.7500
C1A C -0.1033(4) 0.7198(3) 0.7454(6)
C2A C -0.2599(5) 0.8031(3) 0.7459(7)
C3A C -0.1367(9) 0.7365(5) 0.8643(11)
H1A H -0.1082 0.7198 0.9434
C4A C -0.2156(9) 0.7798(5) 0.8618(12)
H2A H -0.2383 0.7929 0.9412
C5A C -0.2215(10) 0.7859(7) 0.6251(13)
H3A H -0.2492 0.8029 0.5459
C6A C -0.1424(10) 0.7436(6) 0.6248(12)
H4A H -0.1167 0.7317 0.5463
C7A C -0.3466(4) 0.8475(3) 0.7478(7)
O3A O -0.3789(3) 0.8710(2) 0.6393(5)
O4A O -0.3802(4) 0.8568(2) 0.8594(5)
O5A O -0.0046(3) 0.6338(2) 0.6275(5)
C8A C -0.3628(4) 1.0173(3) 0.6956(6)
C9A C -0.2726(4) 1.0593(3) 0.7073(6)
C10A C -0.2384(5) 1.0820(3) 0.8319(7)
H5A H -0.2716 1.0718 0.9058
C11A C -0.1540(5) 1.1201(3) 0.8441(7)
H6A H -0.1304 1.1358 0.9263
C12A C -0.1051(4) 1.1346(3) 0.7322(7)
C13A C -0.1382(5) 1.1117(3) 0.6084(7)
H7A H -0.1045 1.1215 0.5348
C14A C -0.2227(5) 1.0737(3) 0.5967(7)
H8A H -0.2460 1.0578 0.5144
O1A O -0.3851(3) 0.9906(2) 0.7965(5)
O2A O -0.4100(3) 1.0095(2) 0.5809(4)
O6A O -0.0045(4) 1.2183(2) 0.8720(6)
Cd1A Cd -0.51548(3) 0.926968(19) 0.58055(4)
Cd1_2 Cd -0.48452(3) 0.926968(19) 0.91945(4)
Cd1A_2 Cd 0.48452(3) 0.926968(19) 0.58055(4)
Cd1D Cd 0.48452(3) 1.073032(19) 1.08055(4)
Cd1E Cd -0.48452(3) 1.073032(19) 0.41945(4)
Cd1F Cd -0.01548(3) 0.573032(19) 1.08055(4)
Cd1G Cd 0.01548(3) 0.573032(19) 0.41945(4)
O1_2 O -0.6149(3) 0.9906(2) 0.7035(5)
O1A_2 O 0.6149(3) 0.9906(2) 0.7965(5)
O2D O 0.5900(3) 0.9905(2) 1.0809(4)
O2E O -0.5900(3) 0.9905(2) 0.4191(4)
O4_2 O -0.6198(4) 0.8568(2) 0.6406(5)
O4A_2 O 0.6198(4) 0.8568(2) 0.8594(5)
O5F O 0.4954(3) 0.8662(2) 1.1275(5)
O5G O -0.4954(3) 0.8662(2) 0.3725(5)
O7 O 0.0000 0.898(5) 0.7500
O8 O 0.036(4) 0.945(2) 0.915(5)
C15? C 0.1713(17) 0.7145(11) 0.660(2)
H9? H 0.1638 0.6834 0.5961
C16? C 0.2514(16) 0.7563(10) 0.662(2)
H10? H 0.2989 0.7525 0.6002
C17? C 0.195(2) 0.8092(16) 0.846(3)
H11? H 0.2046 0.8405 0.9094
C18? C 0.113(2) 0.7691(15) 0.848(3)
H12? H 0.0652 0.7745 0.9091
O9? O -0.024(5) 0.963(3) 0.806(6)
loop_
_geom_bond_atom_site_label_1
_geom_bond_atom_site_label_2
_geom_bond_site_symmetry_1
_geom_bond_site_symmetry_2
C1 C3 1_555 1_555
C2 C4 1_555 1_555
C3 H1 1_555 1_555
C4 C3 1_555 1_555
H2 C4 1_555 1_555
C5 C2 1_555 1_555
H3 C5 1_555 1_555
C6 C1 1_555 1_555
H4 C6 1_555 1_555
C7 C2 1_555 1_555
C8 C9 1_555 1_555
C9 C10 1_555 1_555
C10 H5 1_555 1_555
C11 C10 1_555 1_555
H6 C11 1_555 1_555
C12 C11 1_555 1_555
C13 C12 1_555 1_555
H7 C13 1_555 1_555
C14 C9 1_555 1_555
H8 C14 1_555 1_555
Cd1 O2 1_555 1_555
O1 C8 1_555 1_555
O2 C8 1_555 1_555
O3 C7 1_555 1_555
O4 C7 1_555 1_555
O5 S1 1_555 1_555
O6 S2 1_555 1_555
S1 C1 1_555 1_555
S2 C12 1_555 1_555
C1A S1 1_555 1_555
C2A C4A 1_555 1_555
C3A C1A 1_555 1_555
H1A C3A 1_555 1_555
C4A C3A 1_555 1_555
H2A C4A 1_555 1_555
C5A C2A 1_555 1_555
H3A C5A 1_555 1_555
C6A C1A 1_555 1_555
H4A C6A 1_555 1_555
C7A C2A 1_555 1_555
O3A C7A 1_555 1_555
O4A C7A 1_555 1_555
O5A S1 1_555 1_555
C8A C9A 1_555 1_555
C9A C10A 1_555 1_555
C10A H5A 1_555 1_555
C11A C10A 1_555 1_555
H6A C11A 1_555 1_555
C12A S2 1_555 1_555
C13A C12A 1_555 1_555
H7A C13A 1_555 1_555
C14A C9A 1_555 1_555
H8A C14A 1_555 1_555
O1A C8A 1_555 1_555
O2A C8A 1_555 1_555
O6A S2 1_555 1_555
Cd1A O3A 1_555 1_555
Cd1_2 O4A 1_555 1_555
Cd1A_2 O1 1_555 1_555
Cd1D O2 1_555 1_555
Cd1E O2A 1_555 1_555
Cd1F O5 1_555 1_555
Cd1G O5A 1_555 1_555
O1_2 Cd1A 1_555 1_555
O1A_2 Cd1 1_555 1_555
O2D Cd1 1_555 1_555
O2E Cd1A 1_555 1_555
O4_2 Cd1A 1_555 1_555
O4A_2 Cd1 1_555 1_555
O5F Cd1 1_555 1_555
O5G Cd1A 1_555 1_555
C5 C6 1_555 1_555
C13 C14 1_555 1_555
Cd1 O3 1_555 1_555
O4 Cd1A_2 1_555 1_555
C5A C6A 1_555 1_555
C11A C12A 1_555 1_555
C13A C14A 1_555 1_555
O1A Cd1_2 1_555 1_555
O2A Cd1A 1_555 1_555
Cd1D O2D 1_555 1_555
Cd1E O2E 1_555 1_555

#END
