
#######################################################################
#
#                 Cambridge Crystallographic Data Centre
#                                CCDC 
#
#######################################################################
#
# If this CIF has been generated from an entry in the Cambridge 
# Structural Database, then it will include bibliographic, chemical, 
# crystal, experimental, refinement or atomic coordinate data resulting 
# from the CCDC's data processing and validation procedures.
#
#######################################################################

data_LIHDUC
_chemical_formula_moiety         '(C54 H44 N2 O14 Zn3)n'
_chemical_name_systematic        
catena-(tris(\m~4~-trans-4,4'-stilbenedicarboxylato)-bis(dimethylformamide)-tri-zinc)
_symmetry_cell_setting           rhombohedral
_symmetry_space_group_name_H-M   'R -3'
_symmetry_Int_Tables_number      148
_space_group_name_Hall           '-R 3'
loop_
_symmetry_equiv_pos_site_id
_symmetry_equiv_pos_as_xyz
1 x,y,z
2 -y,x-y,z
3 -x+y,-x,z
4 2/3+x,1/3+y,1/3+z
5 2/3-y,1/3+x-y,1/3+z
6 2/3-x+y,1/3-x,1/3+z
7 1/3+x,2/3+y,2/3+z
8 1/3-y,2/3+x-y,2/3+z
9 1/3-x+y,2/3-x,2/3+z
10 -x,-y,-z
11 y,-x+y,-z
12 x-y,x,-z
13 1/3-x,2/3-y,2/3-z
14 1/3+y,2/3-x+y,2/3-z
15 1/3+x-y,2/3+x,2/3-z
16 2/3-x,1/3-y,1/3-z
17 2/3+y,1/3-x+y,1/3-z
18 2/3+x-y,1/3+x,1/3-z
_cell_length_a                   16.1661(4)
_cell_length_b                   16.1661(4)
_cell_length_c                   16.4796(9)
_cell_angle_alpha                90
_cell_angle_beta                 90
_cell_angle_gamma                120
_cell_volume                     3729.82
_exptl_crystal_colour            colorless
_exptl_crystal_description       prism
_cell_formula_units_Z            3
_chemical_properties_physical    light-sensitive
_exptl_crystal_preparation       photoluminescent
loop_
_atom_site_label
_atom_site_type_symbol
_atom_site_fract_x
_atom_site_fract_y
_atom_site_fract_z
O1 O 0.54427(8) 0.26839(8) -0.09478(7)
O2 O 0.55099(9) 0.33825(9) 0.02375(7)
C1 C 0.51431(12) 0.30678(11) -0.04602(10)
C2 C 0.42977(13) 0.31568(14) -0.06809(11)
C3 C 0.41263(15) 0.38127(16) -0.02873(13)
H1 H 0.4529 0.4180 0.0147
C4 C 0.33745(17) 0.39380(18) -0.05213(14)
H2 H 0.3280 0.4407 -0.0258
C5 C 0.27624(17) 0.3393(2) -0.11307(15)
C6 C 0.2910(2) 0.2692(2) -0.14999(17)
H3 H 0.2472 0.2280 -0.1897
C7 C 0.36863(16) 0.25957(18) -0.12912(14)
H4 H 0.3800 0.2145 -0.1566
C8 C 0.19803(19) 0.3558(2) -0.13728(16)
H5 H 0.1919 0.4030 -0.1080
Zn1 Zn 0.6667 0.3333 -0.1667
Zn2 Zn 0.6667 0.3333 0.046564(19)
O3 O 0.6901(4) 0.3302(7) 0.1675(2)
C9 C 0.6472(7) 0.2584(6) 0.2121(4)
N1 N 0.6833(5) 0.2457(5) 0.2810(4)
C10 C 0.7822(6) 0.3099(9) 0.3037(8)
C11 C 0.6256(7) 0.1676(10) 0.3360(7)
O1L O -0.21094(8) 0.39828(8) -0.23855(7)
O1A O 0.73161(8) 0.27588(11) -0.09478(7)
O1M O 0.60172(8) -0.60921(11) -0.23855(7)
O1B O 0.72412(11) 0.45573(8) -0.09478(7)
O1N O 1.60921(11) 1.21094(8) -0.23855(7)
O1L_2 O 0.78906(8) 0.39828(8) -0.23855(7)
O1M_2 O 0.60172(8) 0.39079(11) -0.23855(7)
O1N_2 O 0.60921(11) 0.21094(8) -0.23855(7)
O2L O -0.21766(9) 0.32842(9) -0.35708(7)
O2A O 0.66175(9) 0.21274(13) 0.02375(7)
O2M O 0.67158(9) -0.54607(13) -0.35708(7)
O2B O 0.78726(13) 0.44901(9) 0.02375(7)
O2N O 1.54607(13) 1.21766(9) -0.35708(7)
O2M_2 O -0.32842(9) 0.45393(13) -0.35708(7)
O2N_2 O -0.45393(13) 0.21766(9) -0.35708(7)
C1L C -0.18098(12) 0.35989(11) -0.28731(10)
C1A C 0.69322(11) 0.20753(16) -0.04602(10)
C1M C 0.64011(11) -0.54086(16) -0.28731(10)
C1B C 0.79247(16) 0.48569(12) -0.04602(10)
C1N C 1.54086(16) 1.18098(12) -0.28731(10)
C2L C -0.09644(13) 0.35099(14) -0.26524(11)
C2A C 0.68432(14) 0.11409(19) -0.06809(11)
C2M C 0.64901(14) -0.44742(19) -0.26524(11)
C2B C 0.88591(19) 0.57023(13) -0.06809(11)
C2N C 1.44742(19) 1.09644(13) -0.26524(11)
C3L C -0.07930(15) 0.28540(16) -0.30460(13)
C3A C 0.61873(16) 0.03136(22) -0.02873(13)
C3M C 0.71460(16) -0.36469(22) -0.30460(13)
C3B C 0.96864(22) 0.58737(15) -0.02873(13)
C3N C 1.36469(22) 1.07930(15) -0.30460(13)
H1L H -0.1196 0.2487 -0.3480
H1A H 0.5820 0.0349 0.0147
H1M H 0.7513 -0.3682 -0.3480
H1B H 0.9651 0.5471 0.0147
H1N H 1.3682 1.1196 -0.3480
C4L C -0.00412(17) 0.27287(18) -0.28120(14)
C4A C 0.60620(18) -0.05635(25) -0.05213(14)
C4M C 0.72713(18) -0.27698(25) -0.28120(14)
C4B C 1.05635(25) 0.66255(17) -0.05213(14)
C4N C 1.27698(25) 1.00412(17) -0.28120(14)
H2L H 0.0053 0.2260 -0.3075
H2A H 0.5593 -0.1127 -0.0258
H2M H 0.7740 -0.2206 -0.3075
H2B H 1.1127 0.6720 -0.0258
H2N H 1.2206 0.9947 -0.3075
C5L C 0.05709(17) 0.3274(2) -0.22026(15)
C5A C 0.6607(2) -0.06306(26) -0.11307(15)
C5M C 0.6726(2) -0.27027(26) -0.22026(15)
C5B C 1.06306(26) 0.72376(17) -0.11307(15)
C5N C 1.27027(26) 0.94291(17) -0.22026(15)
C6L C 0.0423(2) 0.3975(2) -0.18334(17)
C6A C 0.7308(2) 0.0218(3) -0.14999(17)
C6M C 0.6025(2) -0.3551(3) -0.18334(17)
C6B C 0.9782(3) 0.7090(2) -0.14999(17)
C6N C 1.3551(3) 0.9577(2) -0.18334(17)
H3L H 0.0861 0.4387 -0.1436
H3A H 0.7720 0.0192 -0.1897
H3M H 0.5613 -0.3525 -0.1436
H3B H 0.9808 0.7528 -0.1897
H3N H 1.3525 0.9139 -0.1436
C7L C -0.03530(16) 0.40710(18) -0.20421(14)
C7A C 0.74043(18) 0.10906(24) -0.12912(14)
C7M C 0.59290(18) -0.44239(24) -0.20421(14)
C7B C 0.89094(24) 0.63137(16) -0.12912(14)
C7N C 1.44239(24) 1.03530(16) -0.20421(14)
H4L H -0.0467 0.4522 -0.1767
H4A H 0.7855 0.1655 -0.1566
H4M H 0.5478 -0.4988 -0.1767
H4B H 0.8345 0.6200 -0.1566
H4N H 1.4988 1.0467 -0.1767
C8L C 0.13530(19) 0.3109(2) -0.19605(16)
C8A C 0.6442(2) -0.15777(28) -0.13728(16)
C8M C 0.6891(2) -0.17556(28) -0.19605(16)
C8B C 1.15777(28) 0.80197(19) -0.13728(16)
C8N C 1.17556(28) 0.86470(19) -0.19605(16)
H5L H 0.1414 0.2637 -0.2253
H5A H 0.5970 -0.2111 -0.1080
H5M H 0.7363 -0.1222 -0.2253
H5B H 1.2111 0.8081 -0.1080
H5N H 1.1222 0.8586 -0.2253
Zn1_2 Zn -0.3333 0.3333 -0.1667
Zn1_3 Zn 0.6667 -0.6667 -0.1667
Zn1_4 Zn 1.6667 1.3333 -0.1667
Zn2L Zn -0.3334 0.3334 -0.379897(19)
Zn2L_2 Zn 0.6666 0.3334 0.620103(19)
Zn2L_3 Zn 0.6666 -0.6666 -0.379897(19)
Zn2L_4 Zn 1.6666 1.3334 -0.379897(19)
O3A O 0.6698(7) 0.3599(8) 0.1675(2)
O3B O 0.6401(8) 0.3099(4) 0.1675(2)
O3M O 0.6635(7) 0.3068(8) 0.4992(2)
O3N O 0.6932(8) 0.3568(4) 0.4992(2)
O3L O 0.6432(4) 0.3365(7) 0.4992(2)
O3L_2 O -0.3568(4) 0.3365(7) -0.5008(2)
O3M_2 O -0.3365(7) 0.3068(8) -0.5008(2)
O3N_2 O -0.3068(8) 0.3568(4) -0.5008(2)
C9B C 0.6112(9) 0.3528(7) 0.2121(4)
C9A C 0.7416(6) 0.3888(9) 0.2121(4)
C9M C 0.5917(6) 0.2779(9) 0.4546(4)
C9N C 0.7221(9) 0.3139(7) 0.4546(4)
C9L C 0.6861(7) 0.4083(6) 0.4546(4)
N1B N 0.5624(7) 0.3167(5) 0.2810(4)
N1M N 0.5790(5) 0.2291(7) 0.3857(4)
N1N N 0.7709(7) 0.3500(5) 0.3857(4)
N1A N 0.7543(5) 0.4376(7) 0.2810(4)
N1L N 0.6500(5) 0.4210(5) 0.3857(4)
C10B C 0.5277(11) 0.2178(6) 0.3037(8)
C10N C 0.8056(11) 0.4489(6) 0.3630(8)
C10A C 0.6901(9) 0.4723(11) 0.3037(8)
C10L C 0.5511(6) 0.3568(9) 0.3630(8)
C10M C 0.6432(9) 0.1944(11) 0.3630(8)
C11B C 0.5420(12) 0.3744(7) 0.3360(7)
C11L C 0.7077(7) 0.4991(10) 0.3307(7)
C11A C 0.8324(10) 0.4580(12) 0.3360(7)
C11M C 0.5009(10) 0.2087(12) 0.3307(7)
C11N C 0.7913(12) 0.2923(7) 0.3307(7)
H6? H 0.5849 0.2084 0.1962
H7? H 0.8125 0.3605 0.2647
H8? H 0.7871 0.3367 0.3567
H9? H 0.8133 0.2725 0.3037
H10? H 0.5613 0.1335 0.3158
H11? H 0.6517 0.1257 0.3370
H12? H 0.6256 0.1899 0.3900
loop_
_geom_bond_atom_site_label_1
_geom_bond_atom_site_label_2
_geom_bond_site_symmetry_1
_geom_bond_site_symmetry_2
O1 C1 1_555 1_555
O2 C1 1_555 1_555
C1 C2 1_555 1_555
C2 C3 1_555 1_555
C3 H1 1_555 1_555
C4 C3 1_555 1_555
H2 C4 1_555 1_555
C5 C4 1_555 1_555
C6 C5 1_555 1_555
H3 C6 1_555 1_555
C7 C2 1_555 1_555
H4 C7 1_555 1_555
C8 C5 1_555 1_555
H5 C8 1_555 1_555
Zn1 O1 1_555 1_555
Zn2 O2 1_555 1_555
O3 Zn2 1_555 1_555
C9 O3 1_555 1_555
N1 C9 1_555 1_555
C10 N1 1_555 1_555
C11 N1 1_555 1_555
O1L C1L 1_555 1_555
O1A Zn1 1_555 1_555
O1M C1M 1_555 1_555
O1B Zn1 1_555 1_555
O1N C1N 1_555 1_555
O1L_2 Zn1 1_555 1_555
O1M_2 Zn1 1_555 1_555
O1N_2 Zn1 1_555 1_555
O2L C1L 1_555 1_555
O2A Zn2 1_555 1_555
O2M C1M 1_555 1_555
O2B Zn2 1_555 1_555
O2N C1N 1_555 1_555
O2M_2 Zn2L 1_555 1_555
O2N_2 Zn2L 1_555 1_555
C1L C2L 1_555 1_555
C1A O1A 1_555 1_555
C1M C2M 1_555 1_555
C1B O1B 1_555 1_555
C1N C2N 1_555 1_555
C2L C3L 1_555 1_555
C2A C1A 1_555 1_555
C2M C3M 1_555 1_555
C2B C1B 1_555 1_555
C2N C3N 1_555 1_555
C3L H1L 1_555 1_555
C3A C2A 1_555 1_555
C3M H1M 1_555 1_555
C3B C2B 1_555 1_555
C3N H1N 1_555 1_555
H1A C3A 1_555 1_555
H1B C3B 1_555 1_555
C4L C3L 1_555 1_555
C4A C3A 1_555 1_555
C4M C3M 1_555 1_555
C4B C3B 1_555 1_555
C4N C3N 1_555 1_555
H2L C4L 1_555 1_555
H2A C4A 1_555 1_555
H2M C4M 1_555 1_555
H2B C4B 1_555 1_555
H2N C4N 1_555 1_555
C5L C4L 1_555 1_555
C5A C4A 1_555 1_555
C5M C4M 1_555 1_555
C5B C4B 1_555 1_555
C5N C4N 1_555 1_555
C6L C5L 1_555 1_555
C6A C5A 1_555 1_555
C6M C5M 1_555 1_555
C6B C5B 1_555 1_555
C6N C5N 1_555 1_555
H3L C6L 1_555 1_555
H3A C6A 1_555 1_555
H3M C6M 1_555 1_555
H3B C6B 1_555 1_555
H3N C6N 1_555 1_555
C7L C2L 1_555 1_555
C7A C2A 1_555 1_555
C7M C2M 1_555 1_555
C7B C2B 1_555 1_555
C7N C2N 1_555 1_555
H4L C7L 1_555 1_555
H4A C7A 1_555 1_555
H4M C7M 1_555 1_555
H4B C7B 1_555 1_555
H4N C7N 1_555 1_555
C8L C8 1_555 1_555
C8A C5A 1_555 1_555
C8M C5M 1_555 1_555
C8B C5B 1_555 1_555
C8N C5N 1_555 1_555
H5L C8L 1_555 1_555
H5A C8A 1_555 1_555
H5M C8M 1_555 1_555
H5B C8B 1_555 1_555
H5N C8N 1_555 1_555
Zn1_2 O1L 1_555 1_555
Zn1_3 O1M 1_555 1_555
Zn1_4 O1N 1_555 1_555
Zn2L O2L 1_555 1_555
Zn2L_2 O3M 1_555 1_555
Zn2L_3 O2M 1_555 1_555
Zn2L_4 O2N 1_555 1_555
O3A Zn2 1_555 1_555
O3B Zn2 1_555 1_555
O3M O3N 1_555 1_555
O3N Zn2L_2 1_555 1_555
O3L Zn2L_2 1_555 1_555
O3L_2 Zn2L 1_555 1_555
O3M_2 Zn2L 1_555 1_555
O3N_2 Zn2L 1_555 1_555
C9B O3 1_555 1_555
C9A O3 1_555 1_555
C9M O3M 1_555 1_555
C9N O3M 1_555 1_555
C9L O3M 1_555 1_555
N1B C9B 1_555 1_555
N1M C11 1_555 1_555
N1N C10 1_555 1_555
N1A C9A 1_555 1_555
N1L C9L 1_555 1_555
C10B N1B 1_555 1_555
C10N N1N 1_555 1_555
C10A N1A 1_555 1_555
C10L N1B 1_555 1_555
C10M N1 1_555 1_555
C11B N1B 1_555 1_555
C11L N1A 1_555 1_555
C11A N1N 1_555 1_555
C11M N1B 1_555 1_555
C11N N1 1_555 1_555
C6 C7 1_555 1_555
O3 O3A 1_555 1_555
O3 O3B 1_555 1_555
C9 O3A 1_555 1_555
C9 O3B 1_555 1_555
C10 C11N 1_555 1_555
C11 C10M 1_555 1_555
O2A C1A 1_555 1_555
O2B C1B 1_555 1_555
C5L C8L 1_555 1_555
C6L C7L 1_555 1_555
C6A C7A 1_555 1_555
C6M C7M 1_555 1_555
C6B C7B 1_555 1_555
C6N C7N 1_555 1_555
C8A C8M 1_555 1_555
C8B C8N 1_555 1_555
O3A O3B 1_555 1_555
O3A C9B 1_555 1_555
O3A C9A 1_555 1_555
O3B C9B 1_555 1_555
O3B C9A 1_555 1_555
O3M O3L 1_555 1_555
O3N O3L 1_555 1_555
O3N C9M 1_555 1_555
O3N C9N 1_555 1_555
O3N C9L 1_555 1_555
O3L C9M 1_555 1_555
O3L C9N 1_555 1_555
O3L C9L 1_555 1_555
O3L_2 O3M_2 1_555 1_555
O3L_2 O3N_2 1_555 1_555
O3M_2 O3N_2 1_555 1_555
C9M N1M 1_555 1_555
C9N N1N 1_555 1_555
N1M C10B 1_555 1_555
N1M C10M 1_555 1_555
N1M C11M 1_555 1_555
N1N C11N 1_555 1_555
N1A C10N 1_555 1_555
N1A C11A 1_555 1_555
N1L C10A 1_555 1_555
N1L C10L 1_555 1_555
N1L C11B 1_555 1_555
N1L C11L 1_555 1_555
C10B C11M 1_555 1_555
C10N C11A 1_555 1_555
C10A C11L 1_555 1_555
C10L C11B 1_555 1_555

#END
