
#######################################################################
#
#                 Cambridge Crystallographic Data Centre
#                                CCDC 
#
#######################################################################
#
# If this CIF has been generated from an entry in the Cambridge 
# Structural Database, then it will include bibliographic, chemical, 
# crystal, experimental, refinement or atomic coordinate data resulting 
# from the CCDC's data processing and validation procedures.
#
#######################################################################

data_XAFMEZ
_chemical_formula_moiety         '(C26 H28 B2 Cu1 F8 N4)n,n(C4 H8 O1)'
_chemical_name_systematic        
'catena-[bis(\m~2~-1,3-bis(Pyridin-4-yl)propane)-bis(tetrafluoroborato)-copper 2-butanone solvate]'
_symmetry_cell_setting           monoclinic
_symmetry_space_group_name_H-M   'C 2'
_symmetry_Int_Tables_number      5
_space_group_name_Hall           'C 2y'
loop_
_symmetry_equiv_pos_site_id
_symmetry_equiv_pos_as_xyz
1 x,y,z
2 -x,y,-z
3 1/2+x,1/2+y,z
4 1/2-x,1/2+y,-z
_cell_length_a                   17.9622(8)
_cell_length_b                   12.3682(6)
_cell_length_c                   9.2820(5)
_cell_angle_alpha                90
_cell_angle_beta                 114.4292(15)
_cell_angle_gamma                90
_cell_volume                     1877.48
_exptl_crystal_colour            purple
_exptl_crystal_description       chunk
_cell_formula_units_Z            2
loop_
_atom_site_label
_atom_site_type_symbol
_atom_site_fract_x
_atom_site_fract_y
_atom_site_fract_z
C1 C 0.1340(2) 0.3537(3) 0.1346(4)
H1 H 0.1518 0.3881 0.0629
C2 C 0.1777(2) 0.2642(3) 0.2196(4)
H2 H 0.2234 0.2384 0.2034
C3 C 0.1548(2) 0.2135(3) 0.3262(4)
C4 C 0.0878(2) 0.2558(3) 0.3449(5)
H3 H 0.0700 0.2242 0.4185
C5 C 0.0466(2) 0.3452(3) 0.2550(5)
H4 H 0.0009 0.3734 0.2689
C6 C 0.0726(2) -0.3551(2) 0.2896(4)
H5 H 0.0466 -0.4047 0.3322
C7 C 0.1135(2) -0.2667(3) 0.3817(4)
H6 H 0.1148 -0.2574 0.4843
C8 C 0.1522(2) -0.1924(3) 0.3238(4)
C9 C 0.1500(2) -0.2135(3) 0.1739(4)
H7 H 0.1772 -0.1665 0.1305
C10 C 0.1083(2) -0.3024(3) 0.0890(4)
H8 H 0.1074 -0.3147 -0.0128
C11 C 0.1966(2) 0.1122(3) 0.4098(4)
H9 H 0.2026 0.1149 0.5207
H10 H 0.2521 0.1092 0.4118
C12 C 0.1950(2) -0.0933(3) 0.4159(5)
H11 H 0.2521 -0.0916 0.4260
H12 H 0.1965 -0.0963 0.5237
C13 C 0.14992(14) 0.0098(3) 0.3311(3)
H13 H 0.1426 0.0079 0.2194
H14 H 0.0950 0.0116 0.3319
Cu1 Cu 0.0000 0.5094 0.0000
F1 F 0.09222(10) 0.5119(2) -0.14773(19)
N1 N 0.06960(18) 0.3925(2) 0.1494(4)
N2 N 0.06835(19) -0.3735(2) 0.1451(4)
B1 B 0.1433(2) 0.5289(3) -0.2278(5)
F2 F 0.1065(2) 0.4873(4) -0.3747(3)
F3 F 0.21553(16) 0.4801(3) -0.1445(4)
F4 F 0.1548(2) 0.6381(2) -0.2327(5)
C1A C -0.1340(2) 0.3537(3) -0.1346(4)
H1A H -0.1518 0.3881 -0.0629
C2A C -0.1777(2) 0.2642(3) -0.2196(4)
H2A H -0.2234 0.2384 -0.2034
C3A C -0.1548(2) 0.2135(3) -0.3262(4)
C4A C -0.0878(2) 0.2558(3) -0.3449(5)
H3A H -0.0700 0.2242 -0.4185
C5A C -0.0466(2) 0.3452(3) -0.2550(5)
H4A H -0.0009 0.3734 -0.2689
C6A C -0.0726(2) -0.3551(2) -0.2896(4)
H5A H -0.0466 -0.4047 -0.3322
C7A C -0.1135(2) -0.2667(3) -0.3817(4)
H6A H -0.1148 -0.2574 -0.4843
C8A C -0.1522(2) -0.1924(3) -0.3238(4)
C9A C -0.1500(2) -0.2135(3) -0.1739(4)
H7A H -0.1772 -0.1665 -0.1305
C10A C -0.1083(2) -0.3024(3) -0.0890(4)
H8A H -0.1074 -0.3147 0.0128
C11A C -0.1966(2) 0.1122(3) -0.4098(4)
H9A H -0.2026 0.1149 -0.5207
H10A H -0.2521 0.1092 -0.4118
C12A C -0.1950(2) -0.0933(3) -0.4159(5)
H11A H -0.2521 -0.0916 -0.4260
H12A H -0.1965 -0.0963 -0.5237
C13A C -0.14992(14) 0.0098(3) -0.3311(3)
H13A H -0.1426 0.0079 -0.2194
H14A H -0.0950 0.0116 -0.3319
F1A F -0.09222(10) 0.5119(2) 0.14773(19)
N1A N -0.06960(18) 0.3925(2) -0.1494(4)
N2A N -0.06835(19) -0.3735(2) -0.1451(4)
B1A B -0.1433(2) 0.5289(3) 0.2278(5)
F2A F -0.1065(2) 0.4873(4) 0.3747(3)
F3A F -0.21553(16) 0.4801(3) 0.1445(4)
F4A F -0.1548(2) 0.6381(2) 0.2327(5)
Cu1_2 Cu 0.0000 -0.4906 0.0000
N2_2 N 0.06835(19) 0.6265(2) 0.1451(4)
N2A_2 N -0.06835(19) 0.6265(2) -0.1451(4)
loop_
_geom_bond_atom_site_label_1
_geom_bond_atom_site_label_2
_geom_bond_site_symmetry_1
_geom_bond_site_symmetry_2
C1 H1 1_555 1_555
C2 C1 1_555 1_555
H2 C2 1_555 1_555
C3 C2 1_555 1_555
C4 C3 1_555 1_555
H3 C4 1_555 1_555
C5 C4 1_555 1_555
H4 C5 1_555 1_555
C6 H5 1_555 1_555
C7 C6 1_555 1_555
H6 C7 1_555 1_555
C8 C7 1_555 1_555
C9 C8 1_555 1_555
H7 C9 1_555 1_555
C10 C9 1_555 1_555
H8 C10 1_555 1_555
C11 C3 1_555 1_555
H9 C11 1_555 1_555
H10 C11 1_555 1_555
C12 C8 1_555 1_555
H11 C12 1_555 1_555
H12 C12 1_555 1_555
C13 C11 1_555 1_555
H13 C13 1_555 1_555
H14 C13 1_555 1_555
Cu1 F1 1_555 1_555
F1 B1 1_555 1_555
N1 C1 1_555 1_555
N2 C6 1_555 1_555
B1 F2 1_555 1_555
F3 B1 1_555 1_555
F4 B1 1_555 1_555
C1A H1A 1_555 1_555
C2A C1A 1_555 1_555
H2A C2A 1_555 1_555
C3A C2A 1_555 1_555
C4A C3A 1_555 1_555
H3A C4A 1_555 1_555
C5A C4A 1_555 1_555
H4A C5A 1_555 1_555
C6A H5A 1_555 1_555
C7A C6A 1_555 1_555
H6A C7A 1_555 1_555
C8A C7A 1_555 1_555
C9A C8A 1_555 1_555
H7A C9A 1_555 1_555
C10A C9A 1_555 1_555
H8A C10A 1_555 1_555
C11A C3A 1_555 1_555
H9A C11A 1_555 1_555
H10A C11A 1_555 1_555
C12A C8A 1_555 1_555
H11A C12A 1_555 1_555
H12A C12A 1_555 1_555
C13A C11A 1_555 1_555
H13A C13A 1_555 1_555
H14A C13A 1_555 1_555
F1A Cu1 1_555 1_555
N1A Cu1 1_555 1_555
N2A C6A 1_555 1_555
B1A F1A 1_555 1_555
F2A B1A 1_555 1_555
F3A B1A 1_555 1_555
F4A B1A 1_555 1_555
Cu1_2 N2 1_555 1_555
N2_2 Cu1 1_555 1_555
N2A_2 Cu1 1_555 1_555
C5 N1 1_555 1_555
C10 N2 1_555 1_555
C12 C13 1_555 1_555
Cu1 N1 1_555 1_555
C1A N1A 1_555 1_555
C5A N1A 1_555 1_555
C10A N2A 1_555 1_555
C12A C13A 1_555 1_555
N2A Cu1_2 1_555 1_555

#END
