
#######################################################################
#
#                 Cambridge Crystallographic Data Centre
#                                CCDC 
#
#######################################################################
#
# If this CIF has been generated from an entry in the Cambridge 
# Structural Database, then it will include bibliographic, chemical, 
# crystal, experimental, refinement or atomic coordinate data resulting 
# from the CCDC's data processing and validation procedures.
#
#######################################################################

data_IYUHUG
_chemical_name_common            CPM-13
_chemical_formula_moiety         '(C87 H55 In6 O34 1-)n,n(C1 H6 N1 1+)'
_chemical_name_systematic        
"catena-(methylammonium hexakis(\m~4~-biphenyl-4,4'-dicarboxylato)-bis(\m~3~-oxo)-(\m~2~-formato)-bis(formato)-diaqua-hexa-indium unknown solvate)"
_symmetry_cell_setting           tetragonal
_symmetry_space_group_name_H-M   'P 43 21 2'
_symmetry_Int_Tables_number      96
_space_group_name_Hall           'P 4nw 2abw'
loop_
_symmetry_equiv_pos_site_id
_symmetry_equiv_pos_as_xyz
1 x,y,z
2 -x,-y,1/2+z
3 1/2-y,1/2+x,3/4+z
4 1/2+y,1/2-x,1/4+z
5 1/2-x,1/2+y,3/4-z
6 1/2+x,1/2-y,1/4-z
7 y,x,-z
8 -y,-x,1/2-z
_cell_length_a                   22.1386(6)
_cell_length_b                   22.1386(6)
_cell_length_c                   36.2651(18)
_cell_angle_alpha                90
_cell_angle_beta                 90
_cell_angle_gamma                90
_cell_volume                     17774.2
_exptl_crystal_colour            colorless
_exptl_crystal_description       block
_cell_formula_units_Z            4
loop_
_atom_site_label
_atom_site_type_symbol
_atom_site_fract_x
_atom_site_fract_y
_atom_site_fract_z
In1 In 0.21220(2) 0.50032(2) -0.351292(11)
In2 In 0.15218(2) 0.49698(2) -0.261121(11)
In3 In -0.19152(2) 0.99104(2) -0.476770(12)
O1 O 0.3046(3) 0.9275(2) -0.02161(16)
O2 O 0.2063(3) 0.9531(2) -0.02463(14)
O3 O 0.1884(2) 0.5638(2) -0.22366(14)
O4 O 0.2804(2) 0.5906(2) -0.24374(14)
O5 O 0.1345(3) 0.5620(3) -0.34703(16)
O6 O 0.1032(3) 0.5659(3) -0.28891(15)
O7 O -0.2276(2) 0.9255(2) -0.38478(14)
O8 O -0.1612(3) 0.9387(3) -0.43014(15)
O9 O 0.1479(3) 0.4254(3) -0.34801(17)
O10 O 0.1066(3) 0.4260(3) -0.29267(16)
O11 O -0.2129(3) 0.0618(3) -0.39075(17)
O12 O -0.1620(3) 0.0683(3) -0.44635(17)
O13 O -0.1006(3) 0.9749(3) -0.49625(17)
O14 O 0.0781(3) 0.4881(3) -0.22296(16)
O15 O 0.0221(6) 0.4306(7) -0.1841(4)
O16 O 0.22412(19) 0.5017(2) -0.29584(11)
O17 O 0.1936(3) 0.4992(4) -0.40912(15)
C1 C 0.1031(4) 0.5827(4) -0.3218(2)
C2 C 0.0577(4) 0.6308(4) -0.3315(2)
C3 C 0.0414(5) 0.6421(4) -0.3690(2)
H1 H 0.0590 0.6193 -0.3876
C4 C 0.0019(5) 0.6844(4) -0.3775(2)
H2 H -0.0101 0.6895 -0.4018
C5 C -0.0217(5) 0.7214(4) -0.3502(3)
C6 C -0.0074(6) 0.7111(5) -0.3142(3)
H3 H -0.0240 0.7352 -0.2958
C7 C 0.0314(5) 0.6654(5) -0.3052(3)
H4 H 0.0399 0.6580 -0.2805
C8 C -0.1778(4) 0.9138(4) -0.4012(2)
C9 C -0.0484(4) 0.8071(4) -0.3933(2)
H5 H -0.0136 0.7982 -0.4065
C10 C -0.0853(4) 0.8523(4) -0.4044(2)
H6 H -0.0753 0.8745 -0.4253
C11 C -0.1369(4) 0.8658(4) -0.3855(2)
C12 C -0.1497(4) 0.8354(4) -0.3533(2)
H7 H -0.1829 0.8470 -0.3393
C13 C -0.1154(5) 0.7900(5) -0.3420(3)
H8 H -0.1260 0.7688 -0.3208
C14 C -0.0629(5) 0.7735(4) -0.3618(3)
C15 C 0.2331(3) 0.5991(3) -0.2252(2)
C16 C 0.2315(4) 0.6549(4) -0.2020(2)
C17 C 0.2789(4) 0.6950(4) -0.2029(2)
H9 H 0.3111 0.6887 -0.2189
C18 C 0.2782(4) 0.7457(4) -0.1793(3)
H10 H 0.3097 0.7736 -0.1802
C19 C 0.2312(4) 0.7543(4) -0.1549(3)
C20 C 0.1811(4) 0.7149(5) -0.1554(3)
H11 H 0.1477 0.7228 -0.1407
C21 C 0.1821(4) 0.6637(4) -0.1784(3)
H12 H 0.1503 0.6362 -0.1780
C22 C 0.2355(4) 0.7999(4) -0.1248(3)
C23 C 0.1853(4) 0.8318(5) -0.1122(3)
H13 H 0.1481 0.8253 -0.1234
C24 C 0.1890(4) 0.8726(4) -0.0835(2)
H14 H 0.1549 0.8933 -0.0754
C25 C 0.2445(4) 0.8820(4) -0.0673(2)
C26 C 0.2966(4) 0.8496(4) -0.0790(3)
H15 H 0.3333 0.8539 -0.0668
C27 C 0.2910(4) 0.8112(4) -0.1093(3)
H16 H 0.3253 0.7931 -0.1191
C28 C 0.2529(4) 0.9245(3) -0.0351(2)
C29 C 0.1103(4) 0.4081(4) -0.3246(2)
C30 C 0.0676(5) 0.3591(4) -0.3358(3)
C31 C 0.0670(6) 0.3411(7) -0.3721(4)
H17 H 0.0928 0.3580 -0.3894
C32 C 0.0247(7) 0.2953(7) -0.3816(4)
H18 H 0.0243 0.2820 -0.4059
C33 C -0.0143(6) 0.2702(5) -0.3585(3)
C34 C -0.0137(6) 0.2906(6) -0.3238(3)
H19 H -0.0410 0.2751 -0.3068
C35 C 0.0282(6) 0.3357(5) -0.3126(3)
H20 H 0.0278 0.3490 -0.2882
C36 C -0.0550(7) 0.2236(7) -0.3721(3)
C37 C -0.0512(7) 0.2023(7) -0.4075(4)
H21 H -0.0244 0.2198 -0.4241
C38 C -0.0869(7) 0.1551(7) -0.4185(4)
H22 H -0.0790 0.1380 -0.4414
C39 C -0.1332(5) 0.1313(5) -0.3984(3)
C40 C -0.1354(6) 0.1511(6) -0.3630(3)
H23 H -0.1639 0.1347 -0.3470
C41 C -0.0949(6) 0.1966(6) -0.3497(4)
H24 H -0.0962 0.2076 -0.3249
C42 C -0.1724(4) 0.0833(4) -0.4128(2)
C43 C -0.0827(4) 0.9173(4) -0.5000
C44 C 0.0620(7) 0.4287(7) -0.2129(4)
In1E In 0.71220(2) 0.99968(2) -0.398708(11)
In1E_2 In -0.28780(2) 0.99968(2) -0.398708(11)
In1E_3 In -0.28780(2) -0.00032(2) -0.398708(11)
In1E_4 In 0.71220(2) -0.00032(2) -0.398708(11)
In2E In 0.65218(2) 1.00302(2) -0.488879(11)
In2D In 0.34782(2) 0.99698(2) 0.011121(11)
In2E_2 In 0.65218(2) 0.00302(2) -0.488879(11)
In2D_2 In 0.34782(2) -0.00302(2) 0.011121(11)
In2E_3 In -0.34782(2) 1.00302(2) -0.488879(11)
In3E In 0.30848(2) 0.50896(2) -0.273230(12)
In3A In 0.19152(2) 1.00896(2) 0.023230(12)
In3_2 In -0.19152(2) -0.00896(2) -0.476770(12)
In3F In -0.00896(2) 0.80848(2) -0.523230(12)
In3A_2 In 0.19152(2) 0.00896(2) 0.023230(12)
O1D O 0.1954(3) 0.4275(2) -0.22839(16)
O1A O 0.6954(3) 1.0725(2) -0.52161(16)
O2D O 0.2937(3) 0.4531(2) -0.22537(14)
O2A O -0.2063(3) 1.0469(2) -0.52463(14)
O3D O 0.3116(2) 0.0638(2) -0.02634(14)
O3E O 0.6884(2) 0.9362(2) -0.52634(14)
O4D O 0.2196(2) 0.0906(2) -0.00626(14)
O4E O -0.2196(2) 0.9094(2) -0.50626(14)
O5E O 0.6345(3) 0.9380(3) -0.40297(16)
O6E O 0.6032(3) 0.9341(3) -0.46109(15)
O7E O 0.2724(2) 0.5745(2) -0.36522(14)
O7_2 O 0.7724(2) 0.9255(2) -0.38478(14)
O8E O 0.3388(3) 0.5613(3) -0.31986(15)
O9E O 0.6479(3) 0.0746(3) -0.40199(17)
O9E_2 O 0.6479(3) 1.0746(3) -0.40199(17)
O10E O 0.6066(3) 0.0740(3) -0.45733(16)
O10E_2 O 0.6066(3) 1.0740(3) -0.45733(16)
O11E O 0.2871(3) 0.4382(3) -0.35925(17)
O11_2 O 0.7871(3) 1.0618(3) -0.39075(17)
O12E O 0.3380(3) 0.4317(3) -0.30365(17)
O12_2 O -0.1620(3) 1.0683(3) -0.44635(17)
O13F O -0.0251(3) 0.8994(3) -0.50375(17)
O13E O 0.3994(3) 0.5251(3) -0.25375(17)
O14E O 0.5781(3) 1.0119(3) -0.52704(16)
O15E O 0.5221(6) 1.0694(7) -0.5659(4)
O16E O -0.27588(19) 0.9983(2) -0.45416(11)
O16E_2 O 0.72412(19) 0.9983(2) -0.45416(11)
O17E O 0.6936(3) 1.0008(4) -0.34088(15)
C1E C 0.6031(4) 0.9173(4) -0.4282(2)
C2E C 0.5577(4) 0.8692(4) -0.4185(2)
C3E C 0.5414(5) 0.8579(4) -0.3810(2)
H1E H 0.5590 0.8807 -0.3624
C4E C 0.5019(5) 0.8156(4) -0.3725(2)
H2E H 0.4899 0.8105 -0.3482
C5E C 0.4783(5) 0.7786(4) -0.3998(3)
C6E C 0.4926(6) 0.7889(5) -0.4358(3)
H3E H 0.4760 0.7648 -0.4542
C7E C 0.5314(5) 0.8346(5) -0.4448(3)
H4E H 0.5399 0.8420 -0.4695
C8E C 0.3222(4) 0.5862(4) -0.3488(2)
C9E C 0.4516(4) 0.6929(4) -0.3567(2)
H5E H 0.4864 0.7018 -0.3435
C10E C 0.4147(4) 0.6477(4) -0.3456(2)
H6E H 0.4247 0.6255 -0.3247
C11E C 0.3631(4) 0.6342(4) -0.3645(2)
C12E C 0.3503(4) 0.6646(4) -0.3967(2)
H7E H 0.3171 0.6530 -0.4107
C13E C 0.3846(5) 0.7100(5) -0.4080(3)
H8E H 0.3740 0.7312 -0.4292
C14E C 0.4371(5) 0.7265(4) -0.3882(3)
C15D C 0.2669(3) 0.0991(3) -0.0248(2)
C16D C 0.2685(4) 0.1549(4) -0.0480(2)
C17D C 0.2211(4) 0.1950(4) -0.0471(2)
H9D H 0.1889 0.1887 -0.0311
C18D C 0.2218(4) 0.2457(4) -0.0707(3)
H10D H 0.1903 0.2736 -0.0698
C19D C 0.2688(4) 0.2543(4) -0.0951(3)
C20D C 0.3189(4) 0.2149(5) -0.0946(3)
H11D H 0.3523 0.2228 -0.1093
C21D C 0.3179(4) 0.1637(4) -0.0716(3)
H12D H 0.3497 0.1362 -0.0720
C22D C 0.2645(4) 0.2999(4) -0.1252(3)
C23D C 0.3147(4) 0.3318(5) -0.1378(3)
H13D H 0.3519 0.3253 -0.1266
C24D C 0.3110(4) 0.3726(4) -0.1665(2)
H14D H 0.3451 0.3933 -0.1746
C25D C 0.2555(4) 0.3820(4) -0.1827(2)
C26D C 0.2034(4) 0.3496(4) -0.1710(3)
H15D H 0.1667 0.3539 -0.1832
C27D C 0.2090(4) 0.3112(4) -0.1407(3)
H16D H 0.1747 0.2931 -0.1309
C28D C 0.2471(4) 0.4245(3) -0.2149(2)
C29E C 0.6103(4) 0.0919(4) -0.4254(2)
C30E C 0.5676(5) 0.1409(4) -0.4142(3)
C31E C 0.5670(6) 0.1589(7) -0.3779(4)
H17E H 0.5928 0.1420 -0.3606
C32E C 0.5247(7) 0.2047(7) -0.3684(4)
H18E H 0.5243 0.2180 -0.3441
C33E C 0.4857(6) 0.2298(5) -0.3915(3)
C34E C 0.4863(6) 0.2094(6) -0.4262(3)
H19E H 0.4590 0.2249 -0.4432
C35E C 0.5282(6) 0.1643(5) -0.4374(3)
H20E H 0.5278 0.1510 -0.4618
C36E C 0.4450(7) 0.2764(7) -0.3779(3)
C37E C 0.4488(7) 0.2977(7) -0.3425(4)
H21E H 0.4756 0.2802 -0.3259
C38E C 0.4131(7) 0.3449(7) -0.3315(4)
H22E H 0.4210 0.3620 -0.3086
C39E C 0.3668(5) 0.3687(5) -0.3516(3)
C40E C 0.3646(6) 0.3489(6) -0.3870(3)
H23E H 0.3361 0.3653 -0.4030
C41E C 0.4051(6) 0.3034(6) -0.4003(4)
H24E H 0.4038 0.2924 -0.4251
C42E C 0.3276(4) 0.4167(4) -0.3372(2)
C44E C 0.5620(7) 1.0713(7) -0.5371(4)
N1 N 0.2171(6) 0.6632(7) -0.5061(4)
C45 C 0.2765(8) 0.6393(11) -0.4901(6)
O18? O 0.0388(9) 0.3726(8) -0.2030(5)
loop_
_geom_bond_atom_site_label_1
_geom_bond_atom_site_label_2
_geom_bond_site_symmetry_1
_geom_bond_site_symmetry_2
In1 O5 1_555 1_555
In2 O3 1_555 1_555
In3 O8 1_555 1_555
O1 C28 1_555 1_555
O2 C28 1_555 1_555
O3 C15 1_555 1_555
O4 C15 1_555 1_555
O5 C1 1_555 1_555
O6 In2 1_555 1_555
O7 C8 1_555 1_555
O8 C8 1_555 1_555
O9 In1 1_555 1_555
O10 In2 1_555 1_555
O11 C42 1_555 1_555
O12 C42 1_555 1_555
O13 In3 1_555 1_555
O14 In2 1_555 1_555
O15 C44 1_555 1_555
O16 In1 1_555 1_555
O17 In1 1_555 1_555
N1 C45 1_555 1_555
C1 O6 1_555 1_555
C2 C1 1_555 1_555
C3 C2 1_555 1_555
H1 C3 1_555 1_555
C4 C3 1_555 1_555
H2 C4 1_555 1_555
C5 C4 1_555 1_555
C6 C5 1_555 1_555
H3 C6 1_555 1_555
C7 C2 1_555 1_555
H4 C7 1_555 1_555
C8 C11 1_555 1_555
C9 H5 1_555 1_555
C10 C9 1_555 1_555
H6 C10 1_555 1_555
C11 C10 1_555 1_555
C12 C11 1_555 1_555
H7 C12 1_555 1_555
C13 C12 1_555 1_555
H8 C13 1_555 1_555
C14 C5 1_555 1_555
C15 C16 1_555 1_555
C16 C17 1_555 1_555
C17 H9 1_555 1_555
C18 C17 1_555 1_555
H10 C18 1_555 1_555
C19 C18 1_555 1_555
C20 C19 1_555 1_555
H11 C20 1_555 1_555
C21 C16 1_555 1_555
H12 C21 1_555 1_555
C22 C19 1_555 1_555
C23 C22 1_555 1_555
H13 C23 1_555 1_555
C24 C23 1_555 1_555
H14 C24 1_555 1_555
C25 C24 1_555 1_555
C26 C25 1_555 1_555
H15 C26 1_555 1_555
C27 C22 1_555 1_555
H16 C27 1_555 1_555
C28 C25 1_555 1_555
C29 O9 1_555 1_555
C30 C29 1_555 1_555
C31 C30 1_555 1_555
H17 C31 1_555 1_555
C32 C31 1_555 1_555
H18 C32 1_555 1_555
C33 C32 1_555 1_555
C34 C33 1_555 1_555
H19 C34 1_555 1_555
C35 C30 1_555 1_555
H20 C35 1_555 1_555
C36 C33 1_555 1_555
C37 C36 1_555 1_555
H21 C37 1_555 1_555
C38 C37 1_555 1_555
H22 C38 1_555 1_555
C39 C38 1_555 1_555
C40 C39 1_555 1_555
H23 C40 1_555 1_555
C41 C36 1_555 1_555
H24 C41 1_555 1_555
C42 C39 1_555 1_555
C43 O13 1_555 1_555
C44 O14 1_555 1_555
In1E O5E 1_555 1_555
In1E_2 O7 1_555 1_555
In1E_3 O11 1_555 1_555
In1E_4 O9E 1_555 1_555
In2E O1A 1_555 1_555
In2D O1 1_555 1_555
In2E_2 O10E 1_555 1_555
In2D_2 O3D 1_555 1_555
In2E_3 O16E 1_555 1_555
In3E O4 1_555 1_555
In3A O2 1_555 1_555
In3_2 O12 1_555 1_555
In3F O13F 1_555 1_555
In3A_2 O4D 1_555 1_555
O1D In2 1_555 1_555
O2D In3E 1_555 1_555
O2A In3 1_555 1_555
O3D C15D 1_555 1_555
O3E In2E 1_555 1_555
O4D C15D 1_555 1_555
O4E In3 1_555 1_555
O5E C1E 1_555 1_555
O6E In2E 1_555 1_555
O7E In1 1_555 1_555
O7_2 In1E 1_555 1_555
O8E In3E 1_555 1_555
O9E C29E 1_555 1_555
O9E_2 In1E 1_555 1_555
O10E C29E 1_555 1_555
O10E_2 In2E 1_555 1_555
O11E In1 1_555 1_555
O11_2 In1E 1_555 1_555
O12E In3E 1_555 1_555
O12_2 In3 1_555 1_555
O13F C43 1_555 1_555
O13E In3E 1_555 1_555
O14E In2E 1_555 1_555
O15E C44E 1_555 1_555
O16E In3 1_555 1_555
O16E_2 In1E 1_555 1_555
O17E In1E 1_555 1_555
C1E O6E 1_555 1_555
C2E C1E 1_555 1_555
C3E C2E 1_555 1_555
H1E C3E 1_555 1_555
C4E C3E 1_555 1_555
H2E C4E 1_555 1_555
C5E C4E 1_555 1_555
C6E C5E 1_555 1_555
H3E C6E 1_555 1_555
C7E C2E 1_555 1_555
H4E C7E 1_555 1_555
C8E O7E 1_555 1_555
C9E H5E 1_555 1_555
C10E C9E 1_555 1_555
H6E C10E 1_555 1_555
C11E C8E 1_555 1_555
C12E C11E 1_555 1_555
H7E C12E 1_555 1_555
C13E C12E 1_555 1_555
H8E C13E 1_555 1_555
C14E C5E 1_555 1_555
C15D C16D 1_555 1_555
C16D C17D 1_555 1_555
C17D H9D 1_555 1_555
C18D C17D 1_555 1_555
H10D C18D 1_555 1_555
C19D C18D 1_555 1_555
C20D C19D 1_555 1_555
H11D C20D 1_555 1_555
C21D C16D 1_555 1_555
H12D C21D 1_555 1_555
C22D C19D 1_555 1_555
C23D C22D 1_555 1_555
H13D C23D 1_555 1_555
C24D C23D 1_555 1_555
H14D C24D 1_555 1_555
C25D C24D 1_555 1_555
C26D C25D 1_555 1_555
H15D C26D 1_555 1_555
C27D C22D 1_555 1_555
H16D C27D 1_555 1_555
C28D O1D 1_555 1_555
C29E C30E 1_555 1_555
C30E C31E 1_555 1_555
C31E H17E 1_555 1_555
C32E C31E 1_555 1_555
H18E C32E 1_555 1_555
C33E C32E 1_555 1_555
C34E C33E 1_555 1_555
H19E C34E 1_555 1_555
C35E C30E 1_555 1_555
H20E C35E 1_555 1_555
C36E C33E 1_555 1_555
C37E C36E 1_555 1_555
H21E C37E 1_555 1_555
C38E C37E 1_555 1_555
H22E C38E 1_555 1_555
C39E C38E 1_555 1_555
C40E C39E 1_555 1_555
H23E C40E 1_555 1_555
C41E C36E 1_555 1_555
H24E C41E 1_555 1_555
C42E O11E 1_555 1_555
C44E O14E 1_555 1_555
In2 O16 1_555 1_555
O10 C29 1_555 1_555
O16 In3E 1_555 1_555
C6 C7 1_555 1_555
C9 C14 1_555 1_555
C13 C14 1_555 1_555
C20 C21 1_555 1_555
C26 C27 1_555 1_555
C34 C35 1_555 1_555
C40 C41 1_555 1_555
In1E_2 O16E 1_555 1_555
In2E O16E_2 1_555 1_555
O2D C28D 1_555 1_555
O8E C8E 1_555 1_555
O12E C42E 1_555 1_555
C6E C7E 1_555 1_555
C9E C14E 1_555 1_555
C10E C11E 1_555 1_555
C13E C14E 1_555 1_555
C20D C21D 1_555 1_555
C25D C28D 1_555 1_555
C26D C27D 1_555 1_555
C34E C35E 1_555 1_555
C39E C42E 1_555 1_555
C40E C41E 1_555 1_555

#END
