
#######################################################################
#
#                 Cambridge Crystallographic Data Centre
#                                CCDC 
#
#######################################################################
#
# If this CIF has been generated from an entry in the Cambridge 
# Structural Database, then it will include bibliographic, chemical, 
# crystal, experimental, refinement or atomic coordinate data resulting 
# from the CCDC's data processing and validation procedures.
#
#######################################################################

data_IYUJAO
_chemical_formula_moiety         '(C43 H27 In3 O19)n'
_chemical_name_systematic        
"catena-(tris(\m~4~-4,4'-oxydibenzoato)-(\m~3~-oxo)-(\m~2~-formato)-aqua-tri-indium unknown solvate)"
_symmetry_cell_setting           rhombohedral
_symmetry_space_group_name_H-M   'R 3 2'
_symmetry_Int_Tables_number      155
_space_group_name_Hall           'R 3 2"'
loop_
_symmetry_equiv_pos_site_id
_symmetry_equiv_pos_as_xyz
1 x,y,z
2 -y,x-y,z
3 -x+y,-x,z
4 y,x,-z
5 x-y,-y,-z
6 -x,-x+y,-z
7 2/3+x,1/3+y,1/3+z
8 2/3-y,1/3+x-y,1/3+z
9 2/3-x+y,1/3-x,1/3+z
10 2/3+y,1/3+x,1/3-z
11 2/3+x-y,1/3-y,1/3-z
12 2/3-x,1/3-x+y,1/3-z
13 1/3+x,2/3+y,2/3+z
14 1/3-y,2/3+x-y,2/3+z
15 1/3-x+y,2/3-x,2/3+z
16 1/3+y,2/3+x,2/3-z
17 1/3+x-y,2/3-y,2/3-z
18 1/3-x,2/3-x+y,2/3-z
_cell_length_a                   23.312(4)
_cell_length_b                   23.312(4)
_cell_length_c                   26.665(9)
_cell_angle_alpha                90
_cell_angle_beta                 90
_cell_angle_gamma                120
_cell_volume                     12549.6
_exptl_crystal_colour            colorless
_exptl_crystal_description       block
_cell_formula_units_Z            9
loop_
_atom_site_label
_atom_site_type_symbol
_atom_site_fract_x
_atom_site_fract_y
_atom_site_fract_z
In1 In 0.69670(5) 0.97275(5) 0.56286(3)
In2 In 0.84064(6) 1.0000 0.5000
O1 O 0.8652(5) 1.0312(6) 0.5784(3)
O2 O 0.7798(4) 1.0400(5) 0.6115(3)
O3 O 0.9726(5) 1.1186(6) 0.7973(3)
O4 O 1.2864(5) 1.2871(5) 0.7824(3)
O5 O 1.2735(5) 1.2375(4) 0.8575(3)
O6 O 0.7953(6) 0.8989(5) 0.5265(3)
O7 O 0.7191(5) 0.8953(5) 0.5818(4)
O8 O 0.7638(7) 0.6667 0.6667
O9 O 0.7518(5) 1.0000 0.5000
O10 O 0.6354(5) 0.9444(5) 0.6294(3)
C1 C 0.8358(7) 1.0430(7) 0.6130(5)
C2 C 0.8721(6) 1.0622(7) 0.6622(4)
C3 C 0.8501(7) 1.0848(7) 0.7014(5)
H1 H 0.8112 1.0863 0.6980
C4 C 0.8855(6) 1.1053(8) 0.7461(4)
H2 H 0.8719 1.1224 0.7720
C5 C 0.9410(7) 1.0998(9) 0.7510(5)
C6 C 0.9634(8) 1.0778(8) 0.7141(5)
H3 H 1.0012 1.0745 0.7185
C7 C 0.9294(6) 1.0599(8) 0.6691(5)
H4 H 0.9457 1.0460 0.6428
C8 C 1.2510(6) 1.2497(6) 0.8175(4)
C9 C 1.1764(6) 1.2130(7) 0.8109(4)
C10 C 1.1364(7) 1.1652(8) 0.8443(5)
H5 H 1.1553 1.1557 0.8715
C11 C 1.0682(8) 1.1305(9) 0.8384(5)
H6 H 1.0410 1.0967 0.8604
C12 C 1.0419(7) 1.1482(8) 0.7986(4)
C13 C 1.0861(8) 1.1973(9) 0.7629(5)
H7 H 1.0691 1.2069 0.7346
C14 C 1.1483(7) 1.2272(8) 0.7706(5)
H8 H 1.1760 1.2599 0.7481
C15 C 0.7577(7) 0.8754(7) 0.5649(4)
C16 C 0.7591(8) 0.8206(8) 0.5924(5)
C17 C 0.7216(7) 0.7955(7) 0.6362(5)
H9 H 0.6962 0.8132 0.6481
C18 C 0.7227(9) 0.7443(8) 0.6616(7)
H10 H 0.6994 0.7281 0.6914
C19 C 0.7602(9) 0.7172(9) 0.6409(6)
C20 C 0.7940(7) 0.7401(8) 0.5980(6)
H11 H 0.8167 0.7203 0.5847
C21 C 0.7953(8) 0.7924(9) 0.5736(5)
H12 H 0.8203 0.8092 0.5445
C22 C 0.6503(8) 0.9836(8) 0.6667
O11 O 0.9364(7) 1.0000 0.5000
In1D In 0.72395(7) 1.02725(5) 0.43714(3)
In1J In 1.39062(7) 1.36058(5) 0.77047(3)
In1F In 1.36337(5) 1.30608(5) 0.89619(3)
In1J_2 In 0.39062(7) 0.36058(5) 0.77047(3)
In1I In 0.63942(5) 1.03003(5) 0.77047(3)
In1L In 1.03003(5) 0.63942(5) 0.22953(3)
In1P In 1.05728(7) 0.69392(5) 0.10381(3)
In2F In 0.50731(6) 0.3333 0.8333
O1D O 0.8340(8) 0.9688(6) 0.4216(3)
O2D O 0.7398(6) 0.9600(5) 0.3885(3)
O3D O 0.8540(8) 0.8814(6) 0.2027(3)
O4D O 0.9993(7) 0.7129(5) 0.2176(3)
O4J O 0.6660(7) 1.0462(5) 0.5509(3)
O4L O 0.6197(5) 0.9538(5) 0.4491(3)
O5D O 1.0360(6) 0.7625(4) 0.1425(3)
O5L O 0.6068(5) 0.9042(4) 0.5242(3)
O5J O 0.7027(6) 1.0958(4) 0.4758(3)
O6J O 0.5631(8) 0.4344(5) 0.8068(3)
O6D O 0.8964(8) 1.1011(5) 0.4735(3)
O7J O 0.4905(7) 0.4380(5) 0.7515(4)
O7D O 0.8238(7) 1.1047(5) 0.4182(4)
O10I O 0.6111(5) 0.9687(5) 0.7039(3)
O10D O 0.6910(7) 1.0556(5) 0.3706(3)
C1D C 0.7928(10) 0.9570(7) 0.3870(5)
C2D C 0.8099(9) 0.9378(7) 0.3378(4)
C3D C 0.7653(10) 0.9152(7) 0.2986(5)
H1D H 0.7249 0.9137 0.3020
C4D C 0.7802(10) 0.8947(8) 0.2539(4)
H2D H 0.7495 0.8776 0.2280
C5D C 0.8412(11) 0.9002(9) 0.2490(5)
C6D C 0.8856(11) 0.9222(8) 0.2859(5)
H3D H 0.9267 0.9255 0.2815
C7D C 0.8695(10) 0.9401(8) 0.3309(5)
H4D H 0.8997 0.9540 0.3572
C8D C 1.0013(8) 0.7503(6) 0.1825(4)
C9D C 0.9634(9) 0.7870(7) 0.1891(4)
C10D C 0.9712(11) 0.8348(8) 0.1557(5)
H5D H 0.9996 0.8443 0.1285
C11D C 0.9377(12) 0.8695(9) 0.1616(5)
H6D H 0.9443 0.9033 0.1396
C12D C 0.8937(11) 0.8518(8) 0.2014(4)
C13D C 0.8888(12) 0.8027(9) 0.2371(5)
H7D H 0.8622 0.7931 0.2654
C14D C 0.9211(11) 0.7728(8) 0.2294(5)
H8D H 0.9161 0.7401 0.2519
C15J C 0.5490(10) 0.4579(7) 0.7684(4)
C16J C 0.6052(11) 0.5127(8) 0.7409(5)
C17J C 0.5928(10) 0.5378(7) 0.6971(5)
H9J H 0.5497 0.5201 0.6852
C18J C 0.6451(12) 0.5890(8) 0.6717(7)
H10J H 0.6380 0.6052 0.6419
C19J C 0.7097(13) 0.6161(9) 0.6924(6)
C20J C 0.7206(11) 0.5932(8) 0.7353(6)
H11J H 0.7631 0.6130 0.7486
C21J C 0.6696(12) 0.5409(9) 0.7597(5)
H12J H 0.6778 0.5241 0.7888
loop_
_geom_bond_atom_site_label_1
_geom_bond_atom_site_label_2
_geom_bond_site_symmetry_1
_geom_bond_site_symmetry_2
In1 O2 1_555 1_555
In2 O1 1_555 1_555
O1 C1 1_555 1_555
O2 C1 1_555 1_555
O3 C5 1_555 1_555
O4 C8 1_555 1_555
O5 C8 1_555 1_555
O6 In2 1_555 1_555
O7 In1 1_555 1_555
O8 C19 1_555 1_555
O9 In1 1_555 1_555
O10 In1 1_555 1_555
C1 C2 1_555 1_555
C2 C3 1_555 1_555
C3 H1 1_555 1_555
C4 C3 1_555 1_555
H2 C4 1_555 1_555
C5 C4 1_555 1_555
C6 C5 1_555 1_555
H3 C6 1_555 1_555
C7 C2 1_555 1_555
H4 C7 1_555 1_555
C8 C9 1_555 1_555
C9 C10 1_555 1_555
C10 H5 1_555 1_555
C11 C10 1_555 1_555
H6 C11 1_555 1_555
C12 O3 1_555 1_555
C13 C12 1_555 1_555
H7 C13 1_555 1_555
C14 C9 1_555 1_555
H8 C14 1_555 1_555
C15 O6 1_555 1_555
C16 C15 1_555 1_555
C17 C16 1_555 1_555
H9 C17 1_555 1_555
C18 C17 1_555 1_555
H10 C18 1_555 1_555
C19 C18 1_555 1_555
C20 C19 1_555 1_555
H11 C20 1_555 1_555
C21 C16 1_555 1_555
H12 C21 1_555 1_555
C22 O10 1_555 1_555
O11 In2 1_555 1_555
In1D O9 1_555 1_555
In1J O4 1_555 1_555
In1F O5 1_555 1_555
In1J_2 O7J 1_555 1_555
In1I O10I 1_555 1_555
In1L O4D 1_555 1_555
In1P O5D 1_555 1_555
In2F O6J 1_555 1_555
O1D In2 1_555 1_555
O2D In1D 1_555 1_555
O3D C5D 1_555 1_555
O4D C8D 1_555 1_555
O4J In1 1_555 1_555
O4L In1D 1_555 1_555
O5D C8D 1_555 1_555
O5L In1 1_555 1_555
O5J In1D 1_555 1_555
O6J C15J 1_555 1_555
O6D In2 1_555 1_555
O7J C15J 1_555 1_555
O7D In1D 1_555 1_555
O10I C22 1_555 1_555
O10D In1D 1_555 1_555
C1D O1D 1_555 1_555
C2D C1D 1_555 1_555
C3D C2D 1_555 1_555
H1D C3D 1_555 1_555
C4D C3D 1_555 1_555
H2D C4D 1_555 1_555
C5D C4D 1_555 1_555
C6D C5D 1_555 1_555
H3D C6D 1_555 1_555
C7D C2D 1_555 1_555
H4D C7D 1_555 1_555
C8D C9D 1_555 1_555
C9D C10D 1_555 1_555
C10D H5D 1_555 1_555
C11D C10D 1_555 1_555
H6D C11D 1_555 1_555
C12D O3D 1_555 1_555
C13D C12D 1_555 1_555
H7D C13D 1_555 1_555
C14D C9D 1_555 1_555
H8D C14D 1_555 1_555
C15J C16J 1_555 1_555
C16J C17J 1_555 1_555
C17J H9J 1_555 1_555
C18J C17J 1_555 1_555
H10J C18J 1_555 1_555
C19J O8 1_555 1_555
C20J C19J 1_555 1_555
H11J C20J 1_555 1_555
C21J C16J 1_555 1_555
H12J C21J 1_555 1_555
In2 O9 1_555 1_555
O7 C15 1_555 1_555
C6 C7 1_555 1_555
C11 C12 1_555 1_555
C13 C14 1_555 1_555
C20 C21 1_555 1_555
O2D C1D 1_555 1_555
C6D C7D 1_555 1_555
C11D C12D 1_555 1_555
C13D C14D 1_555 1_555
C18J C19J 1_555 1_555
C20J C21J 1_555 1_555

#END
