
#######################################################################
#
#                 Cambridge Crystallographic Data Centre
#                                CCDC 
#
#######################################################################
#
# If this CIF has been generated from an entry in the Cambridge 
# Structural Database, then it will include bibliographic, chemical, 
# crystal, experimental, refinement or atomic coordinate data resulting 
# from the CCDC's data processing and validation procedures.
#
#######################################################################

data_REBZIH
_chemical_formula_moiety         '(C44 H32 Co2 N20 S4)n,n(C2 H6 O1)'
_chemical_name_systematic        
"catena-(tetrakis(\m~2~-4,4'-Azopyridine-N,N')-tetrakis(isothiocyanato)-di-cobalt ethanol solvate)"
_symmetry_cell_setting           orthorhombic
_symmetry_space_group_name_H-M   'C c c a'
_symmetry_Int_Tables_number      68
_space_group_name_Hall           '-C 2a 2ac'
loop_
_symmetry_equiv_pos_site_id
_symmetry_equiv_pos_as_xyz
1 x,y,z
2 -x,1/2-y,z
3 1/2+x,-y,1/2-z
4 1/2-x,1/2+y,1/2-z
5 1/2+x,1/2+y,z
6 1/2-x,-y,z
7 x,1/2-y,1/2-z
8 -x,y,1/2-z
9 -x,-y,-z
10 x,1/2+y,-z
11 1/2-x,y,1/2+z
12 1/2+x,1/2-y,1/2+z
13 1/2-x,1/2-y,-z
14 1/2+x,y,-z
15 -x,1/2+y,1/2+z
16 x,-y,1/2+z
_cell_length_a                   18.066(4)
_cell_length_b                   31.121(6)
_cell_length_c                   19.635(10)
_cell_angle_alpha                90
_cell_angle_beta                 90
_cell_angle_gamma                90
_cell_volume                     11039.4
_exptl_crystal_colour            orange
_exptl_crystal_description       plate
_cell_formula_units_Z            8
loop_
_atom_site_label
_atom_site_type_symbol
_atom_site_fract_x
_atom_site_fract_y
_atom_site_fract_z
Co1 Co 1.0000 0.2500 0.02379(4)
Co2 Co 0.7500 0.0000 -0.47656(4)
S1 S 1.2139(1) 0.17788(7) -0.0522(1)
S2 S 0.9778(1) -0.07385(5) -0.5050(2)
N1 N 0.9553(2) 0.2069(1) -0.0524(2)
N2 N 0.8019(2) 0.0376(1) -0.3959(2)
N3 N 0.8619(2) 0.1217(1) -0.1939(2)
N4 N 0.9009(2) 0.1101(2) -0.2404(2)
N5 N 1.0443(3) 0.2920(1) 0.1017(2)
N6 N 1.1927(2) 0.4640(1) 0.4438(2)
N7 N 1.1253(3) 0.3655(2) 0.2732(4)
N8 N 1.1055(3) 0.3978(2) 0.2670(4)
N9 N 1.0996(2) 0.2156(1) 0.0214(2)
N10 N 0.8374(2) -0.0427(1) -0.4784(2)
C1 C 0.9957(3) 0.1913(2) -0.1036(2)
C2 C 0.9697(3) 0.1631(2) -0.1511(2)
C3 C 0.8967(3) 0.1501(2) -0.1460(3)
C4 C 0.8543(3) 0.1650(2) -0.0945(3)
C5 C 0.8848(3) 0.1936(2) -0.0482(3)
C6 C 0.7610(3) 0.0582(2) -0.3508(3)
C7 C 0.7894(3) 0.0821(2) -0.2975(3)
C8 C 0.8653(3) 0.0847(2) -0.2909(3)
C9 C 0.9081(3) 0.0636(2) -0.3373(3)
C10 C 0.8751(3) 0.0403(2) -0.3888(3)
C11 C 1.0268(3) 0.3339(2) 0.1034(3)
C12 C 1.0521(3) 0.3609(2) 0.1549(4)
C13 C 1.0955(4) 0.3443(3) 0.2052(3)
C14 C 1.1144(4) 0.3021(2) 0.2029(3)
C15 C 1.0879(4) 0.2773(2) 0.1508(3)
C16 C 1.1933(3) 0.4210(2) 0.4448(3)
C17 C 1.1652(3) 0.3964(2) 0.3917(4)
C18 C 1.1366(3) 0.4171(3) 0.3360(4)
C19 C 1.1328(4) 0.4613(2) 0.3357(2)
C20 C 1.1617(4) 0.4830(2) 0.3901(3)
C21 C 1.1473(3) 0.2001(2) -0.0081(3)
C22 C 0.8955(3) -0.0555(2) -0.4894(3)
H1 H 1.0457 0.2005 -0.1072
H2 H 1.006 0.1528 -0.1866
H3 H 0.8043 0.1559 -0.0899
H4 H 0.8547 0.2041 -0.0122
H5 H 0.7087 0.0565 -0.3552
H6 H 0.7576 0.0964 -0.2663
H7 H 0.9605 0.0648 -0.3340
H8 H 0.9059 0.0256 -0.4204
H9 H 0.9963 0.3453 0.0686
H10 H 1.0391 0.3905 0.1548
H11 H 1.1458 0.2901 0.2367
H12 H 1.1017 0.2478 0.1497
H13 H 1.2135 0.4067 0.4833
H14 H 1.1658 0.3659 0.3939
H15 H 1.1105 0.4764 0.2988
H16 H 1.1598 0.5135 0.3895
N1A N 1.0447(2) 0.2931(1) -0.0524(2)
N2A N 1.1981(2) 0.4624(1) -0.3959(2)
N3A N 1.1381(2) 0.3783(1) -0.1939(2)
N4A N 1.0991(2) 0.3899(2) -0.2404(2)
C1A C 1.0043(3) 0.3087(2) -0.1036(2)
C2A C 1.0303(3) 0.3369(2) -0.1511(2)
C3A C 1.1033(3) 0.3499(2) -0.1460(3)
C4A C 1.1457(3) 0.3350(2) -0.0945(3)
C5A C 1.1152(3) 0.3064(2) -0.0482(3)
C6A C 1.2390(3) 0.4418(2) -0.3508(3)
C7A C 1.2106(3) 0.4179(2) -0.2975(3)
C8A C 1.1347(3) 0.4153(2) -0.2909(3)
C9A C 1.0919(3) 0.4364(2) -0.3373(3)
C10A C 1.1249(3) 0.4597(2) -0.3888(3)
H1A H 0.9543 0.2995 -0.1072
H2A H 0.994 0.3472 -0.1866
H3A H 1.1957 0.3441 -0.0899
H4A H 1.1453 0.2959 -0.0122
H5A H 1.2913 0.4435 -0.3552
H6A H 1.2424 0.4036 -0.2663
H7A H 1.0395 0.4352 -0.3340
H8A H 1.0941 0.4744 -0.4204
N5A N 0.9557(3) 0.2080(1) 0.1017(2)
N6A N 0.8073(2) 0.0360(1) 0.4438(2)
N7A N 0.8747(3) 0.1345(2) 0.2732(4)
N8A N 0.8945(3) 0.1022(2) 0.2670(4)
C11A C 0.9732(3) 0.1661(2) 0.1034(3)
C12A C 0.9479(3) 0.1391(2) 0.1549(4)
C13A C 0.9045(4) 0.1557(3) 0.2052(3)
C14A C 0.8856(4) 0.1979(2) 0.2029(3)
C15A C 0.9121(4) 0.2227(2) 0.1508(3)
C16A C 0.8067(3) 0.0790(2) 0.4448(3)
C17A C 0.8348(3) 0.1036(2) 0.3917(4)
C18A C 0.8634(3) 0.0829(3) 0.3360(4)
C19A C 0.8672(4) 0.0387(2) 0.3357(2)
C20A C 0.8383(4) 0.0170(2) 0.3901(3)
H9A H 1.0037 0.1547 0.0686
H10A H 0.9609 0.1095 0.1548
H11A H 0.8542 0.2099 0.2367
H12A H 0.8983 0.2522 0.1497
H13A H 0.7865 0.0933 0.4833
H14A H 0.8342 0.1341 0.3939
H15A H 0.8895 0.0236 0.2988
H16A H 0.8402 -0.0135 0.3895
S1A S 0.7861(1) 0.32212(7) -0.0522(1)
N9A N 0.9004(2) 0.2844(1) 0.0214(2)
C21A C 0.8527(3) 0.2999(2) -0.0081(3)
S2E S 0.5222(1) 0.07385(5) -0.5050(2)
N10E N 0.6626(2) 0.0427(1) -0.4784(2)
C22E C 0.6045(3) 0.0555(2) -0.4894(3)
N2E N 0.6981(2) -0.0376(1) -0.3959(2)
N6A_2 N 0.8073(2) 0.0360(1) -0.5562(2)
N6D N 0.6927(2) -0.0360(1) -0.5562(2)
Co2A Co 1.2500 0.5000 0.52344(4)
Co2A_2 Co 1.2500 0.5000 -0.47656(4)
Co2_2 Co 0.7500 0.0000 0.52344(4)
O1? O 0.649(2) 0.2500 0.2500
C23? C 0.665(2) 0.2300(9) 0.214(1)
C24? C 0.732(1) 0.2514(8) 0.193(1)
H17? H 0.6486 0.2198 0.1747
H18? H 0.6941 0.2048 0.2374
H19? H 0.7640 0.2368 0.1634
H20? H 0.7607 0.2624 0.2311
H21? H 0.7150 0.2776 0.1687
loop_
_geom_bond_atom_site_label_1
_geom_bond_atom_site_label_2
_geom_bond_site_symmetry_1
_geom_bond_site_symmetry_2
Co1 N1 1_555 1_555
Co2 N2 1_555 1_555
S1 C21 1_555 1_555
S2 C22 1_555 1_555
N1 C1 1_555 1_555
N2 C6 1_555 1_555
N3 N4 1_555 1_555
N4 C8 1_555 1_555
N5 Co1 1_555 1_555
N6 C16 1_555 1_555
N7 N8 1_555 1_555
N8 C18 1_555 1_555
N9 Co1 1_555 1_555
N10 Co2 1_555 1_555
C1 C2 1_555 1_555
C2 C3 1_555 1_555
C3 N3 1_555 1_555
C4 C3 1_555 1_555
C5 N1 1_555 1_555
C6 C7 1_555 1_555
C7 C8 1_555 1_555
C8 C9 1_555 1_555
C9 C10 1_555 1_555
C10 N2 1_555 1_555
C11 N5 1_555 1_555
C12 C11 1_555 1_555
C13 N7 1_555 1_555
C14 C13 1_555 1_555
C15 N5 1_555 1_555
C16 C17 1_555 1_555
C17 C18 1_555 1_555
C18 C19 1_555 1_555
C19 C20 1_555 1_555
C20 N6 1_555 1_555
C21 N9 1_555 1_555
C22 N10 1_555 1_555
H1 C1 1_555 1_555
H2 C2 1_555 1_555
H3 C4 1_555 1_555
H4 C5 1_555 1_555
H5 C6 1_555 1_555
H6 C7 1_555 1_555
H7 C9 1_555 1_555
H8 C10 1_555 1_555
H9 C11 1_555 1_555
H10 C12 1_555 1_555
H11 C14 1_555 1_555
H12 C15 1_555 1_555
H13 C16 1_555 1_555
H14 C17 1_555 1_555
H15 C19 1_555 1_555
H16 C20 1_555 1_555
N1A Co1 1_555 1_555
N2A C6A 1_555 1_555
N3A N4A 1_555 1_555
N4A C8A 1_555 1_555
C1A N1A 1_555 1_555
C2A C1A 1_555 1_555
C3A N3A 1_555 1_555
C4A C3A 1_555 1_555
C5A N1A 1_555 1_555
C6A C7A 1_555 1_555
C7A C8A 1_555 1_555
C8A C9A 1_555 1_555
C9A C10A 1_555 1_555
C10A N2A 1_555 1_555
H1A C1A 1_555 1_555
H2A C2A 1_555 1_555
H3A C4A 1_555 1_555
H4A C5A 1_555 1_555
H5A C6A 1_555 1_555
H6A C7A 1_555 1_555
H7A C9A 1_555 1_555
H8A C10A 1_555 1_555
N5A Co1 1_555 1_555
N6A C16A 1_555 1_555
N7A N8A 1_555 1_555
N8A C18A 1_555 1_555
C11A N5A 1_555 1_555
C12A C11A 1_555 1_555
C13A N7A 1_555 1_555
C14A C13A 1_555 1_555
C15A N5A 1_555 1_555
C16A C17A 1_555 1_555
C17A C18A 1_555 1_555
C18A C19A 1_555 1_555
C19A C20A 1_555 1_555
C20A N6A 1_555 1_555
H9A C11A 1_555 1_555
H10A C12A 1_555 1_555
H11A C14A 1_555 1_555
H12A C15A 1_555 1_555
H13A C16A 1_555 1_555
H14A C17A 1_555 1_555
H15A C19A 1_555 1_555
H16A C20A 1_555 1_555
S1A C21A 1_555 1_555
N9A Co1 1_555 1_555
C21A N9A 1_555 1_555
S2E C22E 1_555 1_555
N10E Co2 1_555 1_555
C22E N10E 1_555 1_555
N2E Co2 1_555 1_555
N6A_2 Co2 1_555 1_555
N6D Co2 1_555 1_555
Co2A N6 1_555 1_555
Co2A_2 N2A 1_555 1_555
Co2_2 N6A 1_555 1_555
C4 C5 1_555 1_555
C12 C13 1_555 1_555
C14 C15 1_555 1_555
C2A C3A 1_555 1_555
C4A C5A 1_555 1_555
C12A C13A 1_555 1_555
C14A C15A 1_555 1_555

#END
