
#######################################################################
#
#                 Cambridge Crystallographic Data Centre
#                                CCDC 
#
#######################################################################
#
# If this CIF has been generated from an entry in the Cambridge 
# Structural Database, then it will include bibliographic, chemical, 
# crystal, experimental, refinement or atomic coordinate data resulting 
# from the CCDC's data processing and validation procedures.
#
#######################################################################

data_RECMAN
_chemical_formula_moiety         '(C30 H24 Cd2 N16 O12)n,2n(C3 H6 O1)'
_chemical_name_systematic        
"catena-(tris(\m~2~-4,4'-Azopyridine-N,N')-tetrakis(nitrato-O,O')-di-cadmium acetone solvate)"
_symmetry_cell_setting           monoclinic
_symmetry_space_group_name_H-M   'C 2/c'
_symmetry_Int_Tables_number      15
_space_group_name_Hall           '-C 2yc'
loop_
_symmetry_equiv_pos_site_id
_symmetry_equiv_pos_as_xyz
1 x,y,z
2 -x,y,1/2-z
3 1/2+x,1/2+y,z
4 1/2-x,1/2+y,1/2-z
5 -x,-y,-z
6 x,-y,1/2+z
7 1/2-x,1/2-y,-z
8 1/2+x,1/2-y,1/2+z
_cell_length_a                   21.954(5)
_cell_length_b                   11.334(6)
_cell_length_c                   20.995(4)
_cell_angle_alpha                90
_cell_angle_beta                 122.11(1)
_cell_angle_gamma                90
_cell_volume                     4424.98
_exptl_crystal_colour            orange
_exptl_crystal_description       plate
_cell_formula_units_Z            4
loop_
_atom_site_label
_atom_site_type_symbol
_atom_site_fract_x
_atom_site_fract_y
_atom_site_fract_z
Cd1 Cd 0.62324(2) 0.12954(4) 0.65588(2)
O1 O 0.7449(2) 0.1983(5) 0.7150(3)
O2 O 0.7341(3) 0.0479(5) 0.7710(3)
O3 O 0.8399(3) 0.1092(6) 0.8032(3)
O4 O 0.5606(3) -0.0305(5) 0.6702(3)
O5 O 0.4940(3) 0.0828(5) 0.5784(3)
O6 O 0.4476(3) -0.0605(7) 0.6048(4)
N1 N 0.6051(3) 0.2331(5) 0.7401(3)
N2 N 0.5907(3) 0.4095(6) 0.9079(3)
N3 N 0.6607(3) -0.0087(5) 0.6014(3)
N4 N 0.7425(3) -0.2678(5) 0.5225(3)
N5 N 0.5914(3) 0.7172(5) 1.0685(3)
N6 N 0.5561(3) 0.4974(6) 0.8909(3)
N7 N 0.7749(3) 0.1173(5) 0.7643(3)
N8 N 0.4990(3) -0.0047(6) 0.6166(3)
C1 C 0.6061(4) 0.3504(6) 0.7432(4)
C2 C 0.5989(4) 0.4127(7) 0.7955(4)
C3 C 0.5901(3) 0.3512(6) 0.8460(3)
C4 C 0.5906(4) 0.2312(7) 0.8444(4)
C5 C 0.5966(4) 0.1743(6) 0.7902(4)
C6 C 0.6608(4) -0.1242(7) 0.6159(4)
C7 C 0.6882(4) -0.2079(7) 0.5896(4)
C8 C 0.7148(3) -0.1731(6) 0.5475(3)
C9 C 0.7148(4) -0.0566(7) 0.5331(4)
C10 C 0.6868(4) 0.0243(7) 0.5606(4)
C11 C 0.5336(4) 0.7252(8) 1.0006(4)
C12 C 0.5190(4) 0.6500(8) 0.9414(4)
C13 C 0.5667(3) 0.5633(6) 0.9558(3)
C14 C 0.6257(4) 0.5509(6) 1.0261(4)
C15 C 0.6360(4) 0.6296(7) 1.0815(3)
H1 H 0.609(3) 0.399(6) 0.707(4)
H2 H 0.604(3) 0.488(6) 0.792(4)
H3 H 0.575(3) 0.191(5) 0.864(3)
H4 H 0.594(3) 0.085(6) 0.787(4)
H5 H 0.636(5) -0.145(9) 0.644(5)
H6 H 0.683(3) -0.28(7) 0.597(4)
H7 H 0.734(3) -0.029(5) 0.512(3)
H8 H 0.690(3) 0.107(6) 0.555(3)
H9 H 0.505(3) 0.771(5) 0.992(3)
H10 H 0.475(4) 0.659(7) 0.889(4)
H11 H 0.650(3) 0.494(5) 1.034(3)
H12 H 0.671(3) 0.620(6) 1.118(3)
N4F N 0.7575(3) -0.2322(5) 0.4775(3)
C8F C 0.7852(3) -0.3269(6) 0.4525(3)
C7F C 0.8118(4) -0.2921(7) 0.4104(4)
C6F C 0.8392(4) -0.3758(7) 0.3841(4)
N3F N 0.8393(3) -0.4913(5) 0.3986(3)
C10F C 0.8132(4) -0.5243(7) 0.4394(4)
C9F C 0.7852(4) -0.4434(7) 0.4669(4)
H7F H 0.766(3) -0.471(5) 0.488(3)
H8F H 0.810(3) -0.607(6) 0.445(3)
H5F H 0.864(5) -0.355(9) 0.356(5)
H6F H 0.817(3) -0.22(7) 0.403(4)
N1E N 0.6051(3) 0.7669(5) 0.2401(3)
N2E N 0.5907(3) 0.5905(6) 0.4079(3)
N5E N 0.5914(3) 0.2828(5) 0.5685(3)
N6E N 0.5561(3) 0.5026(6) 0.3909(3)
C1E C 0.6061(4) 0.6496(6) 0.2432(4)
C2E C 0.5989(4) 0.5873(7) 0.2955(4)
C3E C 0.5901(3) 0.6488(6) 0.3460(3)
C4E C 0.5906(4) 0.7688(7) 0.3444(4)
C5E C 0.5966(4) 0.8257(6) 0.2902(4)
C11E C 0.5336(4) 0.2748(8) 0.5006(4)
C12E C 0.5190(4) 0.3500(8) 0.4414(4)
C13E C 0.5667(3) 0.4367(6) 0.4558(3)
C14E C 0.6257(4) 0.4491(6) 0.5261(4)
C15E C 0.6360(4) 0.3704(7) 0.5815(3)
H1E H 0.609(3) 0.601(6) 0.207(4)
H2E H 0.604(3) 0.512(6) 0.292(4)
H3E H 0.575(3) 0.809(5) 0.364(3)
H4E H 0.594(3) 0.915(6) 0.287(4)
H9E H 0.505(3) 0.229(5) 0.492(3)
H10E H 0.475(4) 0.341(7) 0.389(4)
H11E H 0.650(3) 0.506(5) 0.534(3)
H12E H 0.671(3) 0.380(6) 0.618(3)
Cd1E Cd 0.62324(2) 0.87046(4) 0.15588(2)
Cd1E_2 Cd 0.62324(2) 0.87046(4) 1.15588(2)
Cd1F Cd 0.87676(2) -0.62954(4) 0.34412(2)
O1E O 0.7449(2) 0.8017(5) 0.2150(3)
O2E O 0.7341(3) 0.9521(5) 0.2710(3)
O4E O 0.5606(3) 1.0305(5) 0.1702(3)
O5E O 0.4940(3) 0.9172(5) 0.0784(3)
N3E N 0.6607(3) 1.0087(5) 0.1014(3)
N5_2 N 0.5914(3) 0.7172(5) 0.0685(3)
N7E N 0.7749(3) 0.8827(5) 0.2643(3)
N8E N 0.4990(3) 1.0047(6) 0.1166(3)
O3E O 0.8399(3) 0.8908(6) 0.3032(3)
O6E O 0.4476(3) 1.0605(7) 0.1048(4)
O7 O 0.6741(8) -0.319(1) 0.9102(9)
C16 C 0.6453(7) -0.247(2) 0.8614(7)
C17 C 0.6841(7) -0.141(1) 0.874(1)
C18 C 0.583(1) -0.248(2) 0.793(1)
H13 H 0.7291 -0.1581 0.8794
H14 H 0.6595 -0.0842 0.8330
H15 H 0.6916 -0.1054 0.9180
H16 H 0.5627 -0.1810 0.7577
H17 H 0.5716 -0.3169 0.7592
H18 H 0.5367 -0.2594 0.7993
loop_
_geom_bond_atom_site_label_1
_geom_bond_atom_site_label_2
_geom_bond_site_symmetry_1
_geom_bond_site_symmetry_2
Cd1 O1 1_555 1_555
O1 N7 1_555 1_555
O2 Cd1 1_555 1_555
O3 N7 1_555 1_555
O4 Cd1 1_555 1_555
O5 Cd1 1_555 1_555
O6 N8 1_555 1_555
O7 C16 1_555 1_555
N1 Cd1 1_555 1_555
N2 N6 1_555 1_555
N3 Cd1 1_555 1_555
N4 C8 1_555 1_555
N5 C11 1_555 1_555
N6 C13 1_555 1_555
N7 O2 1_555 1_555
N8 O4 1_555 1_555
C1 N1 1_555 1_555
C2 C1 1_555 1_555
C3 N2 1_555 1_555
C4 C3 1_555 1_555
C5 N1 1_555 1_555
C6 N3 1_555 1_555
C7 C6 1_555 1_555
C8 C7 1_555 1_555
C9 C8 1_555 1_555
C10 N3 1_555 1_555
C11 C12 1_555 1_555
C12 C13 1_555 1_555
C13 C14 1_555 1_555
C14 C15 1_555 1_555
C15 N5 1_555 1_555
C16 C17 1_555 1_555
C17 H13 1_555 1_555
C18 C16 1_555 1_555
H1 C1 1_555 1_555
H2 C2 1_555 1_555
H3 C4 1_555 1_555
H4 C5 1_555 1_555
H5 C6 1_555 1_555
H6 C7 1_555 1_555
H7 C9 1_555 1_555
H8 C10 1_555 1_555
H9 C11 1_555 1_555
H10 C12 1_555 1_555
H11 C14 1_555 1_555
H12 C15 1_555 1_555
H14 C17 1_555 1_555
H15 C17 1_555 1_555
H16 C18 1_555 1_555
H17 C18 1_555 1_555
H18 C18 1_555 1_555
N4F N4 1_555 1_555
C8F N4F 1_555 1_555
C7F C8F 1_555 1_555
C6F C7F 1_555 1_555
N3F C6F 1_555 1_555
C10F N3F 1_555 1_555
C9F C8F 1_555 1_555
H7F C9F 1_555 1_555
H8F C10F 1_555 1_555
H5F C6F 1_555 1_555
H6F C7F 1_555 1_555
N1E C1E 1_555 1_555
N2E N6E 1_555 1_555
N5E Cd1 1_555 1_555
N6E C13E 1_555 1_555
C1E C2E 1_555 1_555
C2E C3E 1_555 1_555
C3E N2E 1_555 1_555
C4E C3E 1_555 1_555
C5E N1E 1_555 1_555
C11E N5E 1_555 1_555
C12E C11E 1_555 1_555
C13E C12E 1_555 1_555
C14E C13E 1_555 1_555
C15E N5E 1_555 1_555
H1E C1E 1_555 1_555
H2E C2E 1_555 1_555
H3E C4E 1_555 1_555
H4E C5E 1_555 1_555
H9E C11E 1_555 1_555
H10E C12E 1_555 1_555
H11E C14E 1_555 1_555
H12E C15E 1_555 1_555
Cd1E N1E 1_555 1_555
Cd1E_2 N5 1_555 1_555
Cd1F N3F 1_555 1_555
O1E Cd1E 1_555 1_555
O2E Cd1E 1_555 1_555
O4E Cd1E 1_555 1_555
O5E Cd1E 1_555 1_555
N3E Cd1E 1_555 1_555
N5_2 Cd1E 1_555 1_555
N7E O1E 1_555 1_555
N8E O4E 1_555 1_555
O3E N7E 1_555 1_555
O6E N8E 1_555 1_555
O5 N8 1_555 1_555
C2 C3 1_555 1_555
C4 C5 1_555 1_555
C9 C10 1_555 1_555
C10F C9F 1_555 1_555
C4E C5E 1_555 1_555
C14E C15E 1_555 1_555
O2E N7E 1_555 1_555
O5E N8E 1_555 1_555

#END
