
#######################################################################
#
#                 Cambridge Crystallographic Data Centre
#                                CCDC 
#
#######################################################################
#
# If this CIF has been generated from an entry in the Cambridge 
# Structural Database, then it will include bibliographic, chemical, 
# crystal, experimental, refinement or atomic coordinate data resulting 
# from the CCDC's data processing and validation procedures.
#
#######################################################################

data_GAFROX
_chemical_formula_moiety         '(C22 H15 N1 O10 Zn2)n'
_chemical_name_systematic        
"catena-[(\m-2'-amino-1,1':3',1''-terphenyl-3,3'',5,5''-tetracarboxylato)-diaqua-di-zinc unknown solvate]"
_symmetry_cell_setting           hexagonal
_symmetry_space_group_name_H-M   'P 63/m m c'
_symmetry_Int_Tables_number      194
_space_group_name_Hall           '-P 6c 2c'
loop_
_symmetry_equiv_pos_site_id
_symmetry_equiv_pos_as_xyz
1 x,y,z
2 x-y,x,1/2+z
3 -y,x-y,z
4 -x,-y,1/2+z
5 -x+y,-x,z
6 y,-x+y,1/2+z
7 x-y,-y,-z
8 -x,-x+y,-z
9 y,x,-z
10 -y,-x,1/2-z
11 -x+y,y,1/2-z
12 x,x-y,1/2-z
13 -x,-y,-z
14 -x+y,-x,1/2-z
15 y,-x+y,-z
16 x,y,1/2-z
17 x-y,x,-z
18 -y,x-y,1/2-z
19 -x+y,y,z
20 x,x-y,z
21 -y,-x,z
22 y,x,1/2+z
23 x-y,-y,1/2+z
24 -x,-x+y,1/2+z
_cell_length_a                   18.468(3)
_cell_length_b                   18.468(3)
_cell_length_c                   24.160(5)
_cell_angle_alpha                90
_cell_angle_beta                 90
_cell_angle_gamma                120
_cell_volume                     7136.2
_exptl_crystal_colour            colorless
_exptl_crystal_description       Block
_cell_formula_units_Z            6
loop_
_atom_site_label
_atom_site_type_symbol
_atom_site_fract_x
_atom_site_fract_y
_atom_site_fract_z
Zn1 Zn 0.472925(19) 0.527075(19) 0.44989(2)
C1 C 0.5520(3) 0.6427(3) 0.5456(2)
O1 O 0.5203(2) 0.6297(2) 0.49838(15)
O2 O 0.5629(2) 0.5908(2) 0.57360(15)
O3 O 0.4369(2) 0.5631(2) 0.3841(3)
C2 C 0.5565(4) 0.7783(2) 0.5460(2)
H1 H 0.5275 0.7637 0.5126
C3 C 0.5794(3) 0.7241(3) 0.57218(18)
C4 C 0.6222(3) 0.7470(3) 0.62082(17)
H2 H 0.6361 0.7104 0.6378
C5 C 0.6456(4) 0.8228(2) 0.6457(2)
C6 C 0.6509(7) 0.8254(4) 0.7500
C7 C 0.6928(5) 0.8464(2) 0.6998(3)
N1 N 0.5634(8) 0.7817(4) 0.7500
H3 H 0.5366 0.7683 0.7808
C8 C 0.7753(7) 0.8877(4) 0.7006(4)
H4 H 0.8045 0.9023 0.6674
C9 C 0.8192(13) 0.9096(7) 0.7500
H5 H 0.8774 0.9387 0.7500
H3K H 0.5366 0.7683 0.7192
C1K C 0.5520(3) 0.9093(4) 0.9544(2)
O1K O 0.5203(2) 0.8906(3) 1.00162(15)
C2K C 0.5565(4) 0.7782(4) 0.9540(2)
H1K H 0.5275 0.7638 0.9874
C3K C 0.5794(3) 0.8553(4) 0.92782(18)
C4K C 0.6222(3) 0.8752(4) 0.87918(17)
H2K H 0.6361 0.9257 0.8622
C5K C 0.6456(4) 0.8228(4) 0.8543(2)
C7K C 0.6928(5) 0.8464(5) 0.8002(3)
C8K C 0.7753(7) 0.8876(8) 0.7994(4)
H4K H 0.8045 0.9022 0.8326
O2K O 0.5629(2) 0.9721(3) 0.92640(15)
C1O C 0.5520(3) 0.6427(3) 0.9544(2)
O1O O 0.5203(2) 0.6297(2) 1.00162(15)
C3O C 0.5794(3) 0.7241(3) 0.92782(18)
C4O C 0.6222(3) 0.7470(3) 0.87918(17)
H2O H 0.6361 0.7104 0.8622
O2O O 0.5629(2) 0.5908(2) 0.92640(15)
C1S C 0.5520(3) 0.9093(4) 0.5456(2)
O1S O 0.5203(2) 0.8906(3) 0.49838(15)
C3S C 0.5794(3) 0.8553(4) 0.57218(18)
C4S C 0.6222(3) 0.8752(4) 0.62082(17)
H2S H 0.6361 0.9257 0.6378
O2S O 0.5629(2) 0.9721(3) 0.57360(15)
Zn1B Zn 0.472925(19) 0.945850(27) 0.44989(2)
O3B O 0.4369(2) 0.8738(3) 0.3841(3)
Zn1C Zn 0.527075(19) 0.472925(19) 0.94989(2)
Zn1E Zn 0.527075(19) 1.054150(27) 0.94989(2)
Zn1G Zn 0.527075(19) 1.054150(27) 0.55011(2)
Zn1H Zn 0.527075(19) 0.472925(19) 0.55011(2)
Zn1I Zn 0.472925(19) 0.527075(19) 1.05011(2)
Zn1K Zn 0.472925(19) 0.945850(27) 1.05011(2)
O1B O 0.3703(2) 0.8906(3) 0.49838(15)
O1T O 0.3703(2) 0.4797(2) 0.49838(15)
O2G O 0.4371(2) 1.0279(3) 0.42640(15)
O2H O 0.5908(2) 0.5629(2) 0.42640(15)
O2L O 0.4371(2) 0.4092(2) 0.42640(15)
O2N O 0.5908(2) 1.0279(3) 0.42640(15)
H6? H 0.5366 0.7683 0.7808
loop_
_geom_bond_atom_site_label_1
_geom_bond_atom_site_label_2
_geom_bond_site_symmetry_1
_geom_bond_site_symmetry_2
Zn1 O1 1_555 1_555
C1 O1 1_555 1_555
O2 C1 1_555 1_555
O3 Zn1 1_555 1_555
C2 H1 1_555 1_555
C3 C1 1_555 1_555
C4 C3 1_555 1_555
H2 C4 1_555 1_555
C5 C4 1_555 1_555
C6 C7 1_555 1_555
C7 C5 1_555 1_555
N1 C6 1_555 1_555
H3 N1 1_555 1_555
C8 C7 1_555 1_555
H4 C8 1_555 1_555
C9 C8 1_555 1_555
H5 C9 1_555 1_555
H3K N1 1_555 1_555
C1K O1K 1_555 1_555
O1K Zn1K 1_555 1_555
C2K H1K 1_555 1_555
C3K C1K 1_555 1_555
C4K C3K 1_555 1_555
H2K C4K 1_555 1_555
C5K C4K 1_555 1_555
C7K C6 1_555 1_555
C8K C9 1_555 1_555
H4K C8K 1_555 1_555
O2K C1K 1_555 1_555
C1O O1O 1_555 1_555
O1O Zn1I 1_555 1_555
C3O C2K 1_555 1_555
C4O C5K 1_555 1_555
H2O C4O 1_555 1_555
O2O C1O 1_555 1_555
C1S O1S 1_555 1_555
O1S Zn1B 1_555 1_555
C3S C2 1_555 1_555
C4S C5 1_555 1_555
H2S C4S 1_555 1_555
O2S C1S 1_555 1_555
Zn1B O3B 1_555 1_555
Zn1C O2O 1_555 1_555
Zn1E O2K 1_555 1_555
Zn1G O2S 1_555 1_555
Zn1H O2 1_555 1_555
O1B Zn1B 1_555 1_555
O1T Zn1 1_555 1_555
O2G Zn1B 1_555 1_555
O2H Zn1 1_555 1_555
O2L Zn1 1_555 1_555
O2N Zn1B 1_555 1_555
C2 C3 1_555 1_555
C2K C3K 1_555 1_555
C5K C7K 1_555 1_555
C7K C8K 1_555 1_555
C1O C3O 1_555 1_555
C3O C4O 1_555 1_555
C1S C3S 1_555 1_555
C3S C4S 1_555 1_555

#END
