
#######################################################################
#
#                 Cambridge Crystallographic Data Centre
#                                CCDC 
#
#######################################################################
#
# If this CIF has been generated from an entry in the Cambridge 
# Structural Database, then it will include bibliographic, chemical, 
# crystal, experimental, refinement or atomic coordinate data resulting 
# from the CCDC's data processing and validation procedures.
#
#######################################################################

data_BAKJEE
_chemical_formula_moiety         '(C29 H21 Co2 N3 O9)n,1.75n(C3 H7 N1 O1)'
_chemical_name_systematic        
'catena-((\m~5~-5-(2-pyridyl)benzene-1,3-dicarboxylato)-(\m~4~-5-(2-pyridyl)benzene-1,3-dicarboxylato)-(N,N-dimethylformamide)-di-cobalt N,N-dimethylformamide solvate)'
_symmetry_cell_setting           monoclinic
_symmetry_space_group_name_H-M   'P 21/c'
_symmetry_Int_Tables_number      14
_space_group_name_Hall           '-P 2ybc'
loop_
_symmetry_equiv_pos_site_id
_symmetry_equiv_pos_as_xyz
1 x,y,z
2 -x,1/2+y,1/2-z
3 -x,-y,-z
4 x,1/2-y,1/2+z
_cell_length_a                   9.287(1)
_cell_length_b                   28.242(3)
_cell_length_c                   16.667(2)
_cell_angle_alpha                90
_cell_angle_beta                 97.030(2)
_cell_angle_gamma                90
_cell_volume                     4338.61
_exptl_crystal_colour            purple
_exptl_crystal_description       plate
_cell_formula_units_Z            4
loop_
_atom_site_label
_atom_site_type_symbol
_atom_site_fract_x
_atom_site_fract_y
_atom_site_fract_z
Co1 Co -0.80722(5) 0.304782(17) 0.28021(3)
Co2 Co -0.75545(5) 0.424570(17) 0.26939(3)
O1 O -0.8054(3) 0.31206(9) 0.16126(15)
O2 O -0.8150(3) 0.39123(9) 0.15894(15)
O3 O -0.8114(3) 0.22791(9) -0.10105(15)
O4 O -0.8645(3) 0.26669(9) -0.21439(15)
O5 O -0.6755(3) 0.35999(8) 0.32608(14)
O6 O -0.5526(3) 0.29648(9) 0.30084(17)
O7 O -0.0058(3) 0.33351(9) 0.28716(15)
O8 O 0.0529(3) 0.41018(9) 0.31224(15)
N1 N -1.1522(4) 0.51283(11) -0.21107(18)
N2 N -0.2981(3) 0.53237(11) 0.62427(18)
C1 C -1.0663(5) 0.48328(14) -0.2461(2)
H1 H -1.0493 0.4899 -0.3000
C2 C -1.0003(5) 0.44356(14) -0.2090(2)
H2 H -0.9390 0.4242 -0.2367
C3 C -1.0253(5) 0.43263(13) -0.1310(2)
C4 C -1.1142(6) 0.46314(15) -0.0945(2)
H3 H -1.1340 0.4572 -0.0408
C5 C -1.1744(5) 0.50231(14) -0.1361(2)
H4 H -1.2347 0.5227 -0.1094
C6 C -0.9593(5) 0.39023(14) -0.0885(2)
C7 C -0.9324(5) 0.34947(14) -0.1312(2)
H5 H -0.9518 0.3494 -0.1885
C8 C -0.8774(5) 0.30870(14) -0.0912(2)
C9 C -0.8447(5) 0.30923(13) -0.0082(2)
H6 H -0.8084 0.2814 0.0191
C10 C -0.8643(5) 0.35037(14) 0.0365(2)
C11 C -0.9217(5) 0.39040(14) -0.0049(2)
H7 H -0.9355 0.4185 0.0247
C12 C -0.8489(5) 0.26528(14) -0.1380(2)
C13 C -0.8251(5) 0.35144(14) 0.1259(2)
C14 C -0.3699(4) 0.49117(14) 0.6287(2)
H8 H -0.4179 0.4855 0.6749
C15 C -0.3772(4) 0.45690(14) 0.5693(2)
H9 H -0.4302 0.4285 0.5748
C16 C -0.3066(4) 0.46410(13) 0.5016(2)
C17 C -0.2371(4) 0.50755(14) 0.4955(2)
H10 H -0.1905 0.5146 0.4492
C18 C -0.2366(4) 0.54004(14) 0.5570(2)
H11 H -0.1900 0.5696 0.5513
C19 C -0.3024(4) 0.42701(14) 0.4390(2)
C20 C -0.4240(4) 0.39906(14) 0.4144(2)
H12 H -0.5115 0.4043 0.4373
C21 C -0.4183(4) 0.36378(13) 0.3570(2)
C22 C -0.2901(4) 0.35449(13) 0.3255(2)
H13 H -0.2843 0.3288 0.2892
C23 C -0.1700(4) 0.38310(14) 0.3474(2)
C24 C -0.1772(4) 0.41952(13) 0.4026(2)
H14 H -0.0957 0.4396 0.4157
C25 C -0.5550(4) 0.33765(14) 0.3263(2)
C26 C -0.0285(4) 0.37499(14) 0.3127(2)
O9 O -0.5581(3) 0.44233(11) 0.23055(17)
N3 N -0.3596(7) 0.4362(2) 0.1657(4)
C27 C -0.2919(10) 0.4774(3) 0.2072(5)
C28 C -0.2780(12) 0.4073(4) 0.1108(7)
C29 C -0.4892(6) 0.4223(2) 0.1831(3)
H15 H -0.5307 0.3949 0.1567
Co1C Co -0.80722(5) 0.195218(17) -0.21979(3)
Co1_2 Co 0.19278(5) 0.304782(17) 0.28021(3)
Co2_2 Co 0.24455(5) 0.424570(17) 0.26939(3)
Co2B Co -1.24455(5) 0.575430(17) -0.26939(3)
Co2B_2 Co -0.24455(5) 0.575430(17) 0.73061(3)
O3C O -0.8114(3) 0.27209(9) 0.39895(15)
O4C O -0.8645(3) 0.23331(9) 0.28561(15)
O7_2 O -1.0058(3) 0.33351(9) 0.28716(15)
O8_2 O -0.9471(3) 0.41018(9) 0.31224(15)
N1B N -0.8478(4) 0.48717(11) 0.21107(18)
N2B N -0.7019(3) 0.46763(11) 0.37573(18)
loop_
_geom_bond_atom_site_label_1
_geom_bond_atom_site_label_2
_geom_bond_site_symmetry_1
_geom_bond_site_symmetry_2
Co1 O1 1_555 1_555
Co2 O2 1_555 1_555
O1 C13 1_555 1_555
O2 C13 1_555 1_555
O3 C12 1_555 1_555
O4 C12 1_555 1_555
O5 Co1 1_555 1_555
O6 Co1 1_555 1_555
O7 C26 1_555 1_555
O8 C26 1_555 1_555
N1 C1 1_555 1_555
N2 C14 1_555 1_555
C1 H1 1_555 1_555
C2 C1 1_555 1_555
H2 C2 1_555 1_555
C3 C2 1_555 1_555
C4 C3 1_555 1_555
H3 C4 1_555 1_555
C5 N1 1_555 1_555
H4 C5 1_555 1_555
C6 C3 1_555 1_555
C7 C6 1_555 1_555
H5 C7 1_555 1_555
C8 C7 1_555 1_555
C9 C8 1_555 1_555
H6 C9 1_555 1_555
C10 C9 1_555 1_555
C11 C6 1_555 1_555
H7 C11 1_555 1_555
C12 C8 1_555 1_555
C13 C10 1_555 1_555
C14 H8 1_555 1_555
C15 C14 1_555 1_555
H9 C15 1_555 1_555
C16 C15 1_555 1_555
C17 C16 1_555 1_555
H10 C17 1_555 1_555
C18 N2 1_555 1_555
H11 C18 1_555 1_555
C19 C16 1_555 1_555
C20 C19 1_555 1_555
H12 C20 1_555 1_555
C21 C20 1_555 1_555
C22 C21 1_555 1_555
H13 C22 1_555 1_555
C23 C22 1_555 1_555
C24 C19 1_555 1_555
H14 C24 1_555 1_555
C25 O5 1_555 1_555
C26 C23 1_555 1_555
O9 Co2 1_555 1_555
N3 C27 1_555 1_555
C28 N3 1_555 1_555
C29 O9 1_555 1_555
H15 C29 1_555 1_555
Co1C O3 1_555 1_555
Co1_2 O7 1_555 1_555
Co2_2 O8 1_555 1_555
Co2B N1 1_555 1_555
Co2B_2 N2 1_555 1_555
O3C Co1 1_555 1_555
O4C Co1 1_555 1_555
O7_2 Co1 1_555 1_555
O8_2 Co2 1_555 1_555
N1B Co2 1_555 1_555
N2B Co2 1_555 1_555
Co2 O5 1_555 1_555
O4 Co1C 1_555 1_555
O6 C25 1_555 1_555
C4 C5 1_555 1_555
C10 C11 1_555 1_555
C17 C18 1_555 1_555
C21 C25 1_555 1_555
C23 C24 1_555 1_555
N3 C29 1_555 1_555

#END
