
#######################################################################
#
#                 Cambridge Crystallographic Data Centre
#                                CCDC 
#
#######################################################################
#
# If this CIF has been generated from an entry in the Cambridge 
# Structural Database, then it will include bibliographic, chemical, 
# crystal, experimental, refinement or atomic coordinate data resulting 
# from the CCDC's data processing and validation procedures.
#
#######################################################################

data_QILBOE
_chemical_name_common            FIR-6
_chemical_formula_moiety         '(C90 H72 N6 O14 Zn3)n,4n(C6 H12 N2 O1)'
_chemical_name_systematic        
"catena-[bis(\m~6~-4',4'',4'''-Nitrilotribiphenyl-4-carboxylato)-bis(1,3-dimethyltetrahydropyrimidin-2(1H)-one)-tri-zinc(ii) 1,3-dimethyltetrahydropyrimidin-2(1H)-one unknown solvate]"
_symmetry_cell_setting           triclinic
_symmetry_space_group_name_H-M   'P -1'
_symmetry_Int_Tables_number      2
_space_group_name_Hall           '-P 1'
loop_
_symmetry_equiv_pos_site_id
_symmetry_equiv_pos_as_xyz
1 x,y,z
2 -x,-y,-z
_cell_length_a                   16.0621(4)
_cell_length_b                   20.7199(5)
_cell_length_c                   21.2873(5)
_cell_angle_alpha                62.257(2)
_cell_angle_beta                 83.386(2)
_cell_angle_gamma                82.529(2)
_cell_volume                     6204.82
_exptl_crystal_colour            yellow
_exptl_crystal_description       block
_cell_formula_units_Z            2
loop_
_atom_site_label
_atom_site_type_symbol
_atom_site_fract_x
_atom_site_fract_y
_atom_site_fract_z
Zn1 Zn 0.44258(2) 1.01867(2) -0.19724(2)
Zn2 Zn 0.22738(2) 1.062314(19) -0.19877(2)
Zn3 Zn 0.03310(2) 1.11315(2) -0.20695(2)
C1 C 0.2954(2) 1.80138(17) -0.41019(17)
C2 C 0.3299(2) 1.95872(16) -0.25165(16)
C3 C 0.1270(2) 0.16445(16) -0.14058(17)
C4 C 0.2600(2) 1.85434(17) -0.88048(16)
H1 H 0.2149 1.8261 -0.8583
C5 C 0.58917(19) 0.91216(17) -0.17583(17)
C6 C 0.3381(2) 1.97761(16) -1.06777(16)
C7 C 0.2856(2) 1.72858(16) -0.49252(16)
C8 C 0.1644(2) 0.51445(16) 0.09200(16)
C9 C 0.2658(2) 1.89473(17) -0.95363(16)
H2 H 0.2237 1.8942 -0.9800
C10 C 0.3216(2) 1.91795(17) -0.29257(17)
C11 C 0.2170(2) 0.22597(17) -0.09902(17)
H3 H 0.2627 0.2162 -0.1254
C12 C 0.31378(19) 1.81305(16) -0.76105(16)
C13 C 0.1112(2) 0.77026(17) -0.11799(17)
H4 H 0.1075 0.7364 -0.1345
C14 C -0.12399(19) 1.04489(17) -0.17066(18)
C15 C 0.10326(19) 0.89552(16) -0.13974(16)
C16 C 0.2278(2) 0.26186(17) -0.06045(18)
H5 H 0.2801 0.2773 -0.0620
C17 C 0.2939(2) 1.61603(16) -0.50412(16)
C18 C 0.1603(2) 0.27527(17) -0.01874(18)
C19 C 0.08165(19) 0.97455(16) -0.18723(17)
C20 C 0.12499(19) 0.87193(16) -0.07087(17)
H6 H 0.1304 0.9061 -0.0551
C21 C 0.34338(19) 1.83725(16) -0.71743(16)
H7 H 0.3698 1.8805 -0.7380
C22 C 0.1387(2) 0.79803(16) -0.02518(17)
H8 H 0.1532 0.7832 0.0209
C23 C 0.2941(2) 1.73458(16) -0.61151(16)
C24 C 0.3039(2) 1.84097(18) -0.36900(17)
C25 C 0.33282(19) 1.93584(16) -0.98828(16)
C26 C 0.3211(2) 1.85548(16) -0.83943(16)
C27 C 0.3344(2) 1.79850(16) -0.64420(16)
H9 H 0.3557 1.8156 -0.6164
C28 C 0.2394(2) 1.57547(17) -0.44825(17)
H10 H 0.1937 1.5990 -0.4338
C29 C 0.1419(2) 0.66585(16) 0.00162(16)
C30 C 0.2527(2) 1.50013(17) -0.41378(17)
H11 H 0.2152 1.4735 -0.3766
C31 C 0.3209(2) 1.46301(17) -0.43335(18)
C32 C 0.1313(2) 0.74567(17) -0.04721(17)
C33 C 0.2648(2) 1.70875(17) -0.65404(17)
H12 H 0.2384 1.6655 -0.6330
C34 C 0.2358(2) 1.88342(18) -0.35568(17)
H13 H 0.1839 1.8863 -0.3725
C35 C 0.1787(2) 0.39273(16) 0.09974(17)
C36 C 0.3947(2) 1.93740(18) -0.94829(17)
H14 H 0.4405 1.9646 -0.9709
C37 C 0.1698(2) 0.31345(17) 0.02410(17)
C38 C 0.2439(2) 1.83109(17) -0.46812(17)
H15 H 0.2130 1.8759 -0.4799
C39 C 0.0970(2) 0.84379(17) -0.16273(17)
H16 H 0.0830 0.8591 -0.2091
C40 C 0.3897(2) 1.87554(18) -0.30539(18)
H17 H 0.4417 1.8728 -0.2886
C41 C 0.1249(2) 0.43853(17) 0.24570(17)
H18 H 0.0949 0.4835 0.2207
C42 C 0.1392(2) 0.20414(16) -0.09918(17)
C43 C 0.3389(2) 1.73337(19) -0.39383(19)
H19 H 0.3719 1.7115 -0.3548
C44 C 0.2236(2) 0.36890(17) -0.00003(18)
H20 H 0.2574 0.3797 -0.0417
C45 C 0.0715(2) 0.21878(18) -0.05927(19)
H21 H 0.0186 0.2055 -0.0600
C46 C 0.1229(2) 0.17268(17) 0.66541(17)
C47 C 0.2443(2) 1.92092(18) -0.31823(17)
H22 H 0.1981 1.9486 -0.3099
C48 C 0.0998(2) 0.61643(17) -0.00734(18)
H23 H 0.0637 0.6339 -0.0440
C49 C 0.1941(2) 0.63693(17) 0.05833(18)
H24 H 0.2225 0.6686 0.0662
C50 C 0.1749(2) 0.40530(17) 0.20925(16)
C51 C 0.1634(2) 0.33642(18) 0.35868(17)
C52 C 0.1276(2) 0.33508(17) 0.12602(18)
H25 H 0.0962 0.3226 0.1690
C53 C 0.3879(2) 1.89827(18) -0.87468(17)
H26 H 0.4287 1.9006 -0.8484
C54 C 0.3385(2) 1.38262(17) -0.39275(18)
C55 C 0.2386(2) 1.79528(17) -0.50750(17)
H27 H 0.2030 1.8156 -0.5448
C56 C 0.0689(2) 0.26645(19) 0.54769(18)
H28 H 0.0181 0.2721 0.5712
C57 C 0.1342(2) 0.21830(18) 0.58623(17)
C58 C 0.2747(2) 1.74732(17) -0.72756(17)
H29 H 0.2552 1.7293 -0.7552
C59 C 0.3763(2) 1.23099(17) -0.31116(18)
C60 C 0.2215(2) 0.33942(18) 0.24799(18)
H30 H 0.2572 0.3178 0.2242
C61 C 0.3344(2) 1.69697(18) -0.43436(18)
H31 H 0.3642 1.6516 -0.4222
C62 C 0.2049(2) 0.56275(17) 0.10306(17)
H32 H 0.2396 0.5453 0.1408
C63 C 0.1103(2) 0.54245(17) 0.03660(18)
H33 H 0.0811 0.5108 0.0294
C64 C 0.1198(2) 0.40439(18) 0.31941(17)
H34 H 0.0866 0.4273 0.3433
C65 C 0.39563(19) 1.15126(16) -0.26872(16)
C66 C 0.2199(2) 0.2513(2) 0.47754(19)
H35 H 0.2712 0.2463 0.4544
C67 C 0.4378(3) 1.2770(2) -0.3469(4)
H36 H 0.4938 1.2579 -0.3434
C68 C 0.1541(2) 0.29815(18) 0.43776(17)
C69 C 0.3599(2) 1.58041(18) -0.52619(19)
H37 H 0.3959 1.6073 -0.5646
C70 C 0.2276(2) 0.40819(17) 0.03730(17)
H38 H 0.2636 0.4453 0.0202
C71 C 0.3806(2) 1.83768(18) -0.34268(19)
H39 H 0.4266 1.8094 -0.3504
C72 C 0.2101(2) 0.2122(2) 0.55068(19)
H40 H 0.2549 0.1817 0.5762
C73 C 0.0791(2) 0.30604(19) 0.47442(18)
H41 H 0.0351 0.3384 0.4493
C74 C 0.2152(2) 0.30582(19) 0.32131(18)
H42 H 0.2466 0.2615 0.3462
C75 C 0.5768(2) 0.8760(2) -0.04847(19)
H43 H 0.5580 0.9269 -0.0660
H44 H 0.6274 0.8655 -0.0241
H45 H 0.5340 0.8469 -0.0162
C76 C 0.0820(2) 0.25260(19) -0.0190(2)
H46 H 0.0365 0.2606 0.0085
C77 C -0.1881(3) 0.9337(2) -0.0876(3)
H47 H -0.1703 0.8906 -0.0450
H48 H -0.2460 0.9490 -0.0785
C78 C -0.1833(4) 0.9157(3) -0.1457(3)
H49 H -0.2246 0.8814 -0.1359
H50 H -0.1281 0.8913 -0.1483
C79 C 0.6449(3) 0.8227(2) -0.2202(3)
C80 C 0.4194(3) 1.3504(2) -0.3875(4)
H51 H 0.4632 1.3795 -0.4125
C81 C -0.1976(3) 0.9787(2) -0.2147(2)
H52 H -0.2576 0.9917 -0.2191
H53 H -0.1761 0.9655 -0.2520
C82 C 0.6233(3) 0.7819(2) -0.0894(2)
C83 C 0.3730(2) 1.50434(18) -0.4915(2)
H54 H 0.4173 1.4809 -0.5075
C84 C -0.0964(3) 0.9923(2) -0.0450(2)
H55 H -0.0632 1.0333 -0.0630
H56 H -0.0610 0.9477 -0.0221
H57 H -0.1396 0.9959 -0.0113
C85 C -0.1382(2) 1.0973(2) -0.29647(19)
H58 H -0.1113 1.1355 -0.2954
H59 H -0.1895 1.1176 -0.3203
H60 H -0.1014 1.0754 -0.3215
C86 C 0.2762(2) 1.33657(18) -0.3566(2)
H61 H 0.2204 1.3559 -0.3596
C87 C 0.2945(2) 1.26285(18) -0.3164(2)
H62 H 0.2508 1.2335 -0.2920
C88 C 0.1233(2) 0.29622(17) 0.08841(18)
H63 H 0.0888 0.2580 0.1065
C89 C 0.6101(4) 0.7642(3) -0.1485(4)
C90 C 0.6096(3) 0.9536(2) -0.3022(2)
H64 H 0.5890 0.9991 -0.3021
H65 H 0.5722 0.9417 -0.3266
H66 H 0.6646 0.9580 -0.3261
O1 O 0.40407(13) 1.96148(12) -0.23788(12)
O2 O 0.33931(15) 1.11046(12) -0.23725(14)
O3 O 0.56330(13) 0.97697(11) -0.18820(12)
O4 O 0.41078(14) 1.99343(12) -1.09793(11)
O5 O 0.47046(15) 1.12380(13) -0.26276(16)
O6 O 0.04119(15) 0.99531(12) -0.23938(13)
O7 O 0.10471(13) 1.02023(11) -0.16649(11)
O8 O 0.05210(14) 0.15693(12) -0.14649(12)
O9 O -0.08485(13) 1.09950(12) -0.18305(13)
O10 O 0.05091(15) 0.18081(12) 0.69407(12)
O11 O 0.27056(14) 1.99358(12) -1.09909(11)
O12 O 0.18386(15) 0.13099(13) 0.69780(12)
O13 O 0.19143(14) 0.14119(12) -0.16586(12)
O14 O 0.26349(13) 1.98719(12) -0.23457(12)
N1 N 0.28246(18) 1.69419(14) -0.53644(13)
N2 N 0.1792(2) 0.43732(14) 0.13383(14)
N3 N 0.61426(18) 0.89608(16) -0.22962(16)
N4 N -0.15680(17) 1.04218(15) -0.22427(16)
N5 N 0.59366(18) 0.85853(14) -0.10812(15)
N6 N -0.13496(19) 0.99220(16) -0.10360(15)
Zn1_2 Zn 0.44258(2) 2.01867(2) -1.19724(2)
Zn1_3 Zn 0.44258(2) 2.01867(2) -0.19724(2)
Zn2_2 Zn 0.22738(2) 0.062314(19) -0.19877(2)
Zn2_3 Zn 0.22738(2) 0.062314(19) 0.80123(2)
Zn2_4 Zn 0.22738(2) 2.062314(19) -1.19877(2)
Zn2_5 Zn 0.22738(2) 2.062314(19) -0.19877(2)
Zn3_2 Zn 0.03310(2) 0.11315(2) -0.20695(2)
Zn3_3 Zn 0.03310(2) 0.11315(2) 0.79305(2)
O1_2 O 0.40407(13) 0.96148(12) -0.23788(12)
O4_2 O 0.41078(14) 0.99343(12) -0.09793(11)
O8_2 O 0.05210(14) 1.15693(12) -0.14649(12)
O10_2 O 0.05091(15) 1.18081(12) -0.30593(12)
O11_2 O 0.27056(14) 0.99358(12) -0.09909(11)
O12_2 O 0.18386(15) 1.13099(13) -0.30220(12)
O13_2 O 0.19143(14) 1.14119(12) -0.16586(12)
O14_2 O 0.26349(13) 0.98719(12) -0.23457(12)
C91 C 0.4154(3) 0.1608(3) 0.4434(3)
C92 C 0.3879(3) 0.0313(3) 0.5046(3)
H67 H 0.3766 0.0421 0.4572
H68 H 0.3367 0.0209 0.5343
H69 H 0.4283 -0.0104 0.5232
C93 C 0.4411(3) 0.0848(3) 0.5716(2)
H70 H 0.4676 0.0358 0.5986
H71 H 0.3898 0.0906 0.5981
C94 C 0.4305(4) 0.2890(3) 0.3816(4)
H72 H 0.4166 0.2825 0.3423
H73 H 0.4820 0.3122 0.3695
H74 H 0.3861 0.3192 0.3918
C95 C 0.4628(4) 0.2154(3) 0.5099(4)
H75 H 0.4128 0.2290 0.5327
H76 H 0.5028 0.2512 0.4982
C96 C 0.5002(3) 0.1413(3) 0.5609(3)
H77 H 0.5072 0.1404 0.6060
H78 H 0.5550 0.1304 0.5418
O15 O 0.3905(2) 0.1661(2) 0.38836(18)
N7 N 0.4214(2) 0.0945(2) 0.50317(19)
N8 N 0.4408(3) 0.2172(2) 0.4445(3)
C97 C 0.0935(4) 0.6922(3) 0.2000(3)
H79 H 0.1426 0.6795 0.1763
H80 H 0.0980 0.7391 0.1975
H81 H 0.0443 0.6943 0.1772
C98 C 0.1546(3) 0.5880(2) 0.2998(2)
C99 C 0.2169(6) 0.4911(4) 0.4013(5)
H82 H 0.2569 0.4901 0.3645
H83 H 0.1989 0.4430 0.4306
H84 H 0.2427 0.5067 0.4298
C100 C 0.0148(5) 0.6503(4) 0.3158(5)
H85 H -0.0342 0.6683 0.2878
H86 H 0.0257 0.6870 0.3293
C101 C 0.0780(8) 0.5490(5) 0.4195(4)
H87 H 0.0933 0.5808 0.4374
H88 H 0.0680 0.5019 0.4597
C102 C -0.0010(7) 0.5818(5) 0.3796(5)
H89 H -0.0195 0.5475 0.3661
H90 H -0.0453 0.5911 0.4101
O16 O 0.2145(2) 0.58549(18) 0.2609(2)
N9 N 0.1481(4) 0.5395(2) 0.3708(2)
N10 N 0.0871(3) 0.6370(2) 0.2743(2)
C103 C 0.9081(3) 0.4457(3) 0.2809(3)
C104 C 0.8894(5) 0.3760(5) 0.2170(4)
H91 H 0.8320 0.3654 0.2182
H92 H 0.9268 0.3362 0.2150
C105 C 0.9076(6) 0.5770(4) 0.2180(5)
H93 H 0.9169 0.5685 0.2651
H94 H 0.8550 0.6059 0.2036
H95 H 0.9524 0.6027 0.1856
C106 C 0.9092(4) 0.3124(3) 0.3498(3)
H96 H 0.9176 0.3239 0.3873
H97 H 0.9563 0.2809 0.3451
H98 H 0.8587 0.2881 0.3609
C107 C 0.8936(5) 0.5077(5) 0.1526(4)
H99 H 0.8771 0.5505 0.1128
C108 C 0.9066(10) 0.4468(5) 0.1511(5)
H100 H 0.9271 0.4456 0.1089
O17 O 0.9171(2) 0.44763(17) 0.33542(17)
N11 N 0.9052(3) 0.5080(3) 0.2176(2)
N12 N 0.9018(3) 0.3811(3) 0.2818(3)
C109 C 0.0051(5) 0.0775(5) 0.5570(4)
H101 H -0.0534 0.0796 0.5503
H102 H 0.0143 0.1164 0.5673
H103 H 0.0218 0.0312 0.5959
C110 C 0.0165(5) 0.1225(5) 0.3135(4)
H104 H -0.0427 0.1200 0.3264
H105 H 0.0364 0.0863 0.2979
H106 H 0.0263 0.1703 0.2758
C111 C 0.0128(4) 0.0978(4) 0.4359(4)
C112 C 0.1472(5) 0.1094(5) 0.3667(5)
H107 H 0.1760 0.1250 0.3223
C113 C 0.1421(5) 0.0853(6) 0.4889(5)
H108 H 0.1636 0.0418 0.5295
H109 H 0.1551 0.1273 0.4934
C114 C 0.1875(5) 0.0870(7) 0.4252(6)
H110 H 0.2447 0.0724 0.4254
O18 O -0.0629(3) 0.0972(5) 0.4388(4)
N13 N 0.0607(3) 0.1088(3) 0.3744(3)
N14 N 0.0545(3) 0.0854(3) 0.4929(3)
C115? C 0.6610(10) 0.7755(8) -0.1541(8)
loop_
_geom_bond_atom_site_label_1
_geom_bond_atom_site_label_2
_geom_bond_site_symmetry_1
_geom_bond_site_symmetry_2
Zn1 O2 1_555 1_555
Zn2 O2 1_555 1_555
Zn3 O7 1_555 1_555
C1 C24 1_555 1_555
C2 C10 1_555 1_555
C3 C42 1_555 1_555
C4 H1 1_555 1_555
C5 O3 1_555 1_555
C6 C25 1_555 1_555
C7 C55 1_555 1_555
C8 C62 1_555 1_555
C9 C4 1_555 1_555
H2 C9 1_555 1_555
C10 C40 1_555 1_555
C11 H3 1_555 1_555
C12 C21 1_555 1_555
C13 H4 1_555 1_555
C14 O9 1_555 1_555
C15 C19 1_555 1_555
C16 C11 1_555 1_555
H5 C16 1_555 1_555
C17 C28 1_555 1_555
C18 C16 1_555 1_555
C19 O6 1_555 1_555
C20 C15 1_555 1_555
H6 C20 1_555 1_555
C21 H7 1_555 1_555
C22 C20 1_555 1_555
H8 C22 1_555 1_555
C23 C27 1_555 1_555
C24 C34 1_555 1_555
C25 C9 1_555 1_555
C26 C4 1_555 1_555
C27 C21 1_555 1_555
H9 C27 1_555 1_555
C28 H10 1_555 1_555
C29 C32 1_555 1_555
C30 C28 1_555 1_555
H11 C30 1_555 1_555
C31 C30 1_555 1_555
C32 C13 1_555 1_555
C33 C23 1_555 1_555
H12 C33 1_555 1_555
C34 H13 1_555 1_555
C35 C52 1_555 1_555
C36 C25 1_555 1_555
H14 C36 1_555 1_555
C37 C18 1_555 1_555
C38 C1 1_555 1_555
H15 C38 1_555 1_555
C39 C13 1_555 1_555
H16 C39 1_555 1_555
C40 H17 1_555 1_555
C41 H18 1_555 1_555
C42 C11 1_555 1_555
C43 C1 1_555 1_555
H19 C43 1_555 1_555
C44 C37 1_555 1_555
H20 C44 1_555 1_555
C45 C42 1_555 1_555
H21 C45 1_555 1_555
C46 C57 1_555 1_555
C47 C10 1_555 1_555
H22 C47 1_555 1_555
C48 C29 1_555 1_555
H23 C48 1_555 1_555
C49 C29 1_555 1_555
H24 C49 1_555 1_555
C50 C41 1_555 1_555
C51 C64 1_555 1_555
C52 H25 1_555 1_555
C53 C26 1_555 1_555
H26 C53 1_555 1_555
C54 C31 1_555 1_555
C55 C38 1_555 1_555
H27 C55 1_555 1_555
C56 H28 1_555 1_555
C57 C56 1_555 1_555
C58 C12 1_555 1_555
H29 C58 1_555 1_555
C59 C65 1_555 1_555
C60 C50 1_555 1_555
H30 C60 1_555 1_555
C61 C7 1_555 1_555
H31 C61 1_555 1_555
C62 C49 1_555 1_555
H32 C62 1_555 1_555
C63 C8 1_555 1_555
H33 C63 1_555 1_555
C64 C41 1_555 1_555
H34 C64 1_555 1_555
C65 O2 1_555 1_555
C66 H35 1_555 1_555
C67 C59 1_555 1_555
H36 C67 1_555 1_555
C68 C51 1_555 1_555
C69 C17 1_555 1_555
H37 C69 1_555 1_555
C70 C35 1_555 1_555
H38 C70 1_555 1_555
C71 C24 1_555 1_555
H39 C71 1_555 1_555
C72 C57 1_555 1_555
H40 C72 1_555 1_555
C73 C56 1_555 1_555
H41 C73 1_555 1_555
C74 C51 1_555 1_555
H42 C74 1_555 1_555
C75 H43 1_555 1_555
H44 C75 1_555 1_555
H45 C75 1_555 1_555
C76 C18 1_555 1_555
H46 C76 1_555 1_555
C77 H47 1_555 1_555
H48 C77 1_555 1_555
C78 C77 1_555 1_555
H49 C78 1_555 1_555
H50 C78 1_555 1_555
C79 C89 1_555 1_555
C80 C54 1_555 1_555
H51 C80 1_555 1_555
C81 C78 1_555 1_555
H52 C81 1_555 1_555
H53 C81 1_555 1_555
C82 C89 1_555 1_555
C83 C31 1_555 1_555
H54 C83 1_555 1_555
C84 H55 1_555 1_555
H56 C84 1_555 1_555
H57 C84 1_555 1_555
C85 H58 1_555 1_555
H59 C85 1_555 1_555
H60 C85 1_555 1_555
C86 C54 1_555 1_555
H61 C86 1_555 1_555
C87 C59 1_555 1_555
H62 C87 1_555 1_555
C88 C37 1_555 1_555
H63 C88 1_555 1_555
C90 H64 1_555 1_555
H65 C90 1_555 1_555
H66 C90 1_555 1_555
O1 C2 1_555 1_555
O3 Zn1 1_555 1_555
O4 C6 1_555 1_555
O5 Zn1 1_555 1_555
O7 Zn2 1_555 1_555
O8 C3 1_555 1_555
O9 Zn3 1_555 1_555
O10 C46 1_555 1_555
O11 C6 1_555 1_555
O12 C46 1_555 1_555
O13 C3 1_555 1_555
O14 C2 1_555 1_555
N1 C7 1_555 1_555
N2 C8 1_555 1_555
N3 C5 1_555 1_555
N4 C14 1_555 1_555
N5 C5 1_555 1_555
N6 C14 1_555 1_555
C91 O15 1_555 1_555
C92 H67 1_555 1_555
H68 C92 1_555 1_555
H69 C92 1_555 1_555
C93 H70 1_555 1_555
H71 C93 1_555 1_555
C94 H72 1_555 1_555
H73 C94 1_555 1_555
H74 C94 1_555 1_555
C95 H75 1_555 1_555
H76 C95 1_555 1_555
C96 C93 1_555 1_555
H77 C96 1_555 1_555
H78 C96 1_555 1_555
N7 C91 1_555 1_555
N8 C91 1_555 1_555
C97 H79 1_555 1_555
H80 C97 1_555 1_555
H81 C97 1_555 1_555
C98 O16 1_555 1_555
C99 H82 1_555 1_555
H83 C99 1_555 1_555
H84 C99 1_555 1_555
C100 H85 1_555 1_555
H86 C100 1_555 1_555
C101 H87 1_555 1_555
H88 C101 1_555 1_555
C102 C100 1_555 1_555
H89 C102 1_555 1_555
H90 C102 1_555 1_555
N9 C98 1_555 1_555
N10 C97 1_555 1_555
C103 O17 1_555 1_555
C104 H91 1_555 1_555
H92 C104 1_555 1_555
C105 H93 1_555 1_555
H94 C105 1_555 1_555
H95 C105 1_555 1_555
C106 H96 1_555 1_555
H97 C106 1_555 1_555
H98 C106 1_555 1_555
C107 H99 1_555 1_555
C108 C104 1_555 1_555
H100 C108 1_555 1_555
N11 C103 1_555 1_555
N12 C103 1_555 1_555
C109 H101 1_555 1_555
H102 C109 1_555 1_555
H103 C109 1_555 1_555
C110 H104 1_555 1_555
H105 C110 1_555 1_555
H106 C110 1_555 1_555
C111 O18 1_555 1_555
C112 H107 1_555 1_555
C113 H108 1_555 1_555
H109 C113 1_555 1_555
C114 C112 1_555 1_555
H110 C114 1_555 1_555
N13 C110 1_555 1_555
N14 C109 1_555 1_555
Zn1_2 O4 1_555 1_555
Zn1_3 O1 1_555 1_555
Zn2_2 O13 1_555 1_555
Zn2_3 O12 1_555 1_555
Zn2_4 O11 1_555 1_555
Zn2_5 O14 1_555 1_555
Zn3_2 O8 1_555 1_555
Zn3_3 O10 1_555 1_555
O1_2 Zn1 1_555 1_555
O4_2 Zn1 1_555 1_555
O8_2 Zn3 1_555 1_555
O10_2 Zn3 1_555 1_555
O11_2 Zn2 1_555 1_555
O12_2 Zn2 1_555 1_555
O13_2 Zn2 1_555 1_555
O14_2 Zn2 1_555 1_555
C12 C26 1_555 1_555
C15 C39 1_555 1_555
C17 N1 1_555 1_555
C19 O7 1_555 1_555
C22 C32 1_555 1_555
C23 N1 1_555 1_555
C33 C58 1_555 1_555
C34 C47 1_555 1_555
C35 N2 1_555 1_555
C36 C53 1_555 1_555
C40 C71 1_555 1_555
C43 C61 1_555 1_555
C44 C70 1_555 1_555
C45 C76 1_555 1_555
C48 C63 1_555 1_555
C50 N2 1_555 1_555
C52 C88 1_555 1_555
C60 C74 1_555 1_555
C65 O5 1_555 1_555
C66 C68 1_555 1_555
C66 C72 1_555 1_555
C67 C80 1_555 1_555
C68 C73 1_555 1_555
C69 C83 1_555 1_555
C75 N5 1_555 1_555
C77 N6 1_555 1_555
C79 N3 1_555 1_555
C81 N4 1_555 1_555
C82 N5 1_555 1_555
C84 N6 1_555 1_555
C85 N4 1_555 1_555
C86 C87 1_555 1_555
C90 N3 1_555 1_555
C92 N7 1_555 1_555
C93 N7 1_555 1_555
C94 N8 1_555 1_555
C95 C96 1_555 1_555
C95 N8 1_555 1_555
C98 N10 1_555 1_555
C99 N9 1_555 1_555
C100 N10 1_555 1_555
C101 C102 1_555 1_555
C101 N9 1_555 1_555
C104 N12 1_555 1_555
C105 N11 1_555 1_555
C106 N12 1_555 1_555
C107 C108 1_555 1_555
C107 N11 1_555 1_555
C111 N13 1_555 1_555
C111 N14 1_555 1_555
C112 N13 1_555 1_555
C113 C114 1_555 1_555
C113 N14 1_555 1_555

#END
