
#######################################################################
#
#                 Cambridge Crystallographic Data Centre
#                                CCDC 
#
#######################################################################
#
# If this CIF has been generated from an entry in the Cambridge 
# Structural Database, then it will include bibliographic, chemical, 
# crystal, experimental, refinement or atomic coordinate data resulting 
# from the CCDC's data processing and validation procedures.
#
#######################################################################

data_QILBUK
_chemical_name_common            FIR-7
_chemical_formula_moiety         '(C97 H74 N6 O13 Zn3)n,10n(C6 H12 N2 O1)'
_chemical_name_systematic        
"catena-[bis(\m~5~-4',4'',4'''-Nitrilotribiphenyl-4-carboxylato)-(\m~2~-4,4'-propane-1,3-diyldipyridine)-(1,3-dimethyltetrahydropyrimidin-2(1H)-one)-tri-zinc(ii) 1,3-dimethyltetrahydropyrimidin-2(1H)-one solvate]"
_symmetry_cell_setting           monoclinic
_symmetry_space_group_name_H-M   'C 2/c'
_symmetry_Int_Tables_number      15
_space_group_name_Hall           '-C 2yc'
loop_
_symmetry_equiv_pos_site_id
_symmetry_equiv_pos_as_xyz
1 x,y,z
2 -x,y,1/2-z
3 1/2+x,1/2+y,z
4 1/2-x,1/2+y,1/2-z
5 -x,-y,-z
6 x,-y,1/2+z
7 1/2-x,1/2-y,-z
8 1/2+x,1/2-y,1/2+z
_cell_length_a                   21.9124(2)
_cell_length_b                   36.7010(3)
_cell_length_c                   38.7102(4)
_cell_angle_alpha                90
_cell_angle_beta                 100.5990(10)
_cell_angle_gamma                90
_cell_volume                     30599.9
_exptl_crystal_colour            yellow
_exptl_crystal_description       block
_cell_formula_units_Z            8
loop_
_atom_site_label
_atom_site_type_symbol
_atom_site_fract_x
_atom_site_fract_y
_atom_site_fract_z
Zn1 Zn 1.36950(3) 0.039682(18) 0.031600(18)
Zn2 Zn 0.37437(14) 0.08812(6) 0.11523(9)
Zn3 Zn 0.84229(3) -0.41383(2) 0.211531(19)
N1 N 0.3298(2) -0.24979(18) 0.16977(16)
N2 N 0.8763(2) 0.20115(12) 0.05644(16)
N3 N 1.3863(2) 0.03916(12) -0.01926(13)
N4 N 1.3677(2) -0.06382(13) -0.23899(12)
O1 O 0.7918(4) -0.3594(3) 0.2301(2)
O2 O 0.3425(3) 0.13382(13) 0.08699(14)
O3 O 0.7968(3) 0.48676(12) 0.02735(14)
O4 O 0.7554(2) -0.4003(2) 0.19456(16)
O5 O 0.3412(3) 0.03857(14) 0.18788(14)
O6 O 0.8976(2) 0.49129(11) 0.04908(11)
O7 O -0.07664(19) -0.38962(11) 0.21186(12)
O8 O 0.3903(2) 0.03807(13) 0.14426(13)
O9 O -0.11300(18) -0.38044(12) 0.15558(12)
O10 O 1.31038(18) 0.06235(11) 0.08314(14)
O11 O 0.44746(19) 0.06799(11) 0.04830(12)
O12 O 0.45986(19) 0.08332(13) 0.10437(12)
O13 O 1.29644(18) 0.07195(10) 0.02585(13)
C1 C 0.303(2) 0.2305(14) 0.1142(13)
C2 C 0.3841(11) 0.2402(7) 0.1131(6)
C3 C 0.2664(10) 0.1750(6) 0.1266(6)
H1 H 0.2637 0.1489 0.1248
H2 H 0.2261 0.1854 0.1186
H3 H 0.2812 0.1818 0.1506
C4 C 0.4137(11) 0.2256(7) 0.0762(6)
C5 C 0.4168(6) 0.1647(4) 0.0517(3)
H4 H 0.4028 0.1399 0.0503
H5 H 0.4610 0.1653 0.0596
H6 H 0.4067 0.1759 0.0290
C6 C 0.3424(6) 0.1672(4) 0.0908(3)
C7 C 0.6782(4) -0.3220(4) 0.2181(3)
H7 H 0.7137 -0.3106 0.2302
N5 N 0.3056(6) 0.1873(3) 0.1067(4)
N6 N 0.3857(4) 0.1852(2) 0.0773(2)
C8 C 1.3926(5) 0.0689(2) -0.0732(2)
H8 H 1.3783 0.0876 -0.0889
C9 C 0.5804(4) -0.3509(3) 0.1787(3)
H9 H 0.5491 -0.3604 0.1616
C10 C 0.3054(4) -0.1895(2) 0.1894(2)
H10 H 0.2830 -0.2002 0.2049
C11 C 1.4340(4) 0.0275(2) -0.14336(19)
H11 H 1.4148 0.0383 -0.1643
C12 C 1.4631(5) 0.0497(3) -0.1133(2)
H12 H 1.4597 0.0752 -0.1201
H13 H 1.5069 0.0438 -0.1076
C13 C 1.4349(4) 0.0448(2) -0.0803(2)
C14 C 1.4361(4) -0.0118(2) -0.13965(19)
H14 H 1.4118 -0.0189 -0.1222
H15 H 1.4787 -0.0192 -0.1311
C15 C 1.4478(4) -0.0384(2) -0.1968(2)
H16 H 1.4898 -0.0327 -0.1910
C16 C 0.3419(5) -0.0726(2) 0.1950(2)
H17 H 0.3317 -0.0839 0.2146
C17 C 0.3740(6) -0.1568(2) 0.1463(3)
H18 H 0.3995 -0.1464 0.1323
C18 C 1.4520(3) 0.0181(2) -0.0571(2)
H19 H 1.4811 0.0009 -0.0611
C19 C 0.3463(5) -0.0356(2) 0.1949(2)
H20 H 0.3392 -0.0223 0.2142
C20 C 0.6840(4) -0.3564(3) 0.20435(18)
C21 C 0.6368(4) -0.3682(3) 0.1839(3)
H21 H 0.6403 -0.3897 0.1717
C22 C 0.9231(3) 0.26064(16) 0.0696(2)
H22 H 0.9595 0.2497 0.0810
C23 C 0.4952(4) -0.2721(3) 0.2045(3)
H23 H 0.5274 -0.2615 0.2203
C24 C 1.4253(3) -0.0533(2) -0.2288(2)
H24 H 1.4526 -0.0562 -0.2444
C25 C 0.3984(3) -0.3017(3) 0.1626(2)
H25 H 0.3652 -0.3123 0.1475
C26 C 0.3894(3) -0.2691(2) 0.1778(2)
C27 C 0.3655(5) -0.1947(2) 0.1456(3)
H26 H 0.3825 -0.2089 0.1298
C28 C 0.3451(3) -0.1345(2) 0.16751(17)
C29 C 1.3706(4) 0.06524(19) -0.0412(2)
H27 H 1.3431 0.0827 -0.0358
C30 C 0.8479(4) 0.47312(17) 0.04004(17)
C31 C 0.5670(3) -0.3220(3) 0.19583(17)
C32 C 0.0372(3) -0.35688(19) 0.20788(17)
H28 H 0.0333 -0.3692 0.2283
C33 C 0.0916(3) -0.33981(18) 0.20605(18)
H29 H 0.1245 -0.3414 0.2250
C34 C 0.6225(4) -0.3037(4) 0.2146(3)
H30 H 0.6203 -0.2805 0.2240
C35 C 0.7469(4) -0.3735(3) 0.2099(2)
C36 C 1.3528(4) -0.0441(3) -0.1834(2)
H31 H 1.3251 -0.0414 -0.1681
C37 C 0.4389(4) -0.2543(3) 0.1981(3)
H32 H 0.4353 -0.2315 0.2081
C38 C 1.4115(4) -0.03196(17) -0.17393(17)
C39 C 0.1629(3) -0.27016(16) 0.15489(18)
H33 H 0.1262 -0.2602 0.1427
C40 C 0.2147(3) -0.3166(2) 0.1922(2)
H34 H 0.2141 -0.3384 0.2044
C41 C 1.3334(4) -0.0604(3) -0.2151(3)
H35 H 1.2932 -0.0696 -0.2199
C42 C 0.2710(3) -0.2982(2) 0.1917(2)
H36 H 0.3072 -0.3069 0.2056
C43 C 0.5062(3) -0.3034(2) 0.18967(18)
C44 C 0.4525(4) -0.3188(3) 0.1684(2)
H37 H 0.4556 -0.3416 0.1582
C45 C 0.3521(3) -0.09450(19) 0.16709(18)
C46 C 0.2172(3) -0.25353(17) 0.15300(19)
H38 H 0.2174 -0.2325 0.1397
C47 C 0.8673(3) 0.31553(16) 0.05112(17)
C48 C 0.0484(3) -0.31850(16) 0.14912(18)
H39 H 0.0510 -0.3045 0.1294
C49 C 0.8015(3) 0.41103(16) 0.04363(18)
H40 H 0.7628 0.4222 0.0409
C50 C 0.9203(3) 0.29843(17) 0.0674(2)
H41 H 0.9548 0.3122 0.0772
C51 C 0.2742(3) -0.26818(17) 0.17133(18)
C52 C 1.1376(3) 0.11088(17) 0.08512(18)
H42 H 1.1204 0.1108 0.1054
C53 C -0.0058(3) -0.33711(17) 0.15037(17)
H43 H -0.0381 -0.3367 0.1311
C54 C 1.4272(3) 0.0160(2) -0.02777(17)
H44 H 1.4399 -0.0031 -0.0124
C55 C 0.8180(3) 0.29483(15) 0.03686(18)
H45 H 0.7815 0.3061 0.0261
C56 C 0.3708(3) -0.0755(2) 0.13951(19)
H46 H 0.3798 -0.0885 0.1204
C57 C 0.3106(4) -0.1518(2) 0.1886(2)
H47 H 0.2899 -0.1379 0.2029
C58 C 0.9162(3) 0.37787(16) 0.05180(17)
H48 H 0.9554 0.3673 0.0546
C59 C 0.8637(3) 0.35590(16) 0.05009(17)
C60 C 0.9714(3) 0.19324(17) 0.0334(2)
H49 H 0.9603 0.2128 0.0183
C61 C 0.8527(3) 0.43126(16) 0.04486(16)
C62 C 0.7549(2) 0.13032(15) 0.04542(18)
H50 H 0.7450 0.1091 0.0326
C63 C 0.8229(2) 0.18181(15) 0.06058(19)
C64 C 0.3612(3) -0.01784(19) 0.16639(15)
C65 C 0.0993(3) -0.31997(15) 0.17626(16)
C66 C 0.3320(3) -0.21085(18) 0.1682(2)
C67 C 0.8069(3) 0.14980(16) 0.04144(19)
H51 H 0.8315 0.1416 0.0259
C68 C 1.0049(3) 0.13476(16) 0.07804(17)
H52 H 1.0151 0.1148 0.0928
C69 C 0.1599(3) -0.30120(17) 0.17417(16)
C70 C 0.6370(3) 0.12079(17) 0.10284(17)
H53 H 0.6620 0.1290 0.1234
C71 C 1.1836(3) 0.10657(16) 0.02490(16)
H54 H 1.1975 0.1040 0.0037
C72 C 0.7330(2) 0.17341(15) 0.08739(16)
H55 H 0.7086 0.1813 0.1032
C73 C 0.3763(3) -0.03817(17) 0.13978(18)
H56 H 0.3906 -0.0266 0.1214
C74 C 0.6213(3) 0.10785(18) 0.04100(17)
H57 H 0.6350 0.1081 0.0196
C75 C 0.8062(3) 0.37382(16) 0.04633(18)
H58 H 0.7704 0.3601 0.0457
C76 C 0.9101(3) 0.41527(16) 0.04927(16)
H59 H 0.9453 0.4297 0.0506
C77 C -0.0124(3) -0.35634(15) 0.18015(15)
C78 C 0.8740(2) 0.23913(15) 0.05532(19)
C79 C 0.9329(3) 0.18193(16) 0.0556(2)
C80 C 0.8209(3) 0.25646(15) 0.03805(19)
H60 H 0.7870 0.2428 0.0272
C81 C 1.0269(3) 0.17505(18) 0.0339(2)
H61 H 1.0527 0.1829 0.0189
C82 C 0.7848(3) 0.19356(16) 0.08338(18)
H62 H 0.7941 0.2150 0.0960
C83 C 0.6580(2) 0.12338(15) 0.07103(16)
C84 C 0.4781(3) 0.07942(15) 0.07566(18)
C85 C 1.1948(3) 0.09468(17) 0.08659(18)
H63 H 1.2171 0.0857 0.1076
C86 C 1.0458(3) 0.14551(15) 0.05584(17)
C87 C 0.9510(3) 0.15279(16) 0.07849(19)
H64 H 0.9258 0.1457 0.0942
C88 C 0.5426(2) 0.09239(15) 0.07465(16)
C89 C -0.0707(3) -0.37707(16) 0.18250(19)
C90 C 1.1042(2) 0.12715(15) 0.05541(15)
C91 C 0.3651(3) 0.02270(18) 0.16604(16)
C92 C 1.2182(3) 0.09227(14) 0.05525(16)
C93 C 0.7169(2) 0.14204(16) 0.06850(16)
C94 C 0.5643(3) 0.09211(17) 0.04338(17)
H65 H 0.5407 0.0813 0.0236
C95 C 0.5798(2) 0.10633(15) 0.10414(16)
H66 H 0.5658 0.1059 0.1254
C96 C 1.2799(3) 0.07463(16) 0.0548(2)
C97 C 1.1290(3) 0.12447(16) 0.02553(16)
H67 H 1.1080 0.1352 0.0050
Zn1_2 Zn 0.36950(3) 0.039682(18) 0.031600(18)
Zn1B Zn 0.86950(3) 0.539682(18) 0.031600(18)
Zn2_2 Zn 1.37437(14) 0.08812(6) 0.11523(9)
Zn2B Zn -0.12563(14) -0.41188(6) 0.11523(9)
Zn3_2 Zn -0.15771(3) -0.41383(2) 0.211531(19)
Zn3B Zn 0.34229(3) 0.08617(2) 0.211531(19)
Zn3G Zn 1.34229(3) -0.08617(2) -0.288469(19)
N4G N 0.8677(2) -0.43618(13) 0.26101(12)
O3B O 1.2968(3) -0.01324(12) 0.02735(14)
O5B O 0.8412(3) -0.46143(14) 0.18788(14)
O6B O 1.3976(2) -0.00871(11) 0.04908(11)
O7_2 O 0.92336(19) -0.38962(11) 0.21186(12)
O9B O 0.38700(18) 0.11956(12) 0.15558(12)
O10_2 O 0.31038(18) 0.06235(11) 0.08314(14)
O11_2 O 1.44746(19) 0.06799(11) 0.04830(12)
Zn4? Zn 0.3856(4) 0.0755(3) 0.1182(2)
loop_
_geom_bond_atom_site_label_1
_geom_bond_atom_site_label_2
_geom_bond_site_symmetry_1
_geom_bond_site_symmetry_2
Zn1 N3 1_555 1_555
Zn2 O2 1_555 1_555
Zn3 O1 1_555 1_555
N1 C26 1_555 1_555
N2 C63 1_555 1_555
N3 C29 1_555 1_555
N4 C24 1_555 1_555
O1 C35 1_555 1_555
O2 C6 1_555 1_555
O3 C30 1_555 1_555
O4 Zn3 1_555 1_555
O5 C91 1_555 1_555
O6 C30 1_555 1_555
O7 C89 1_555 1_555
O8 Zn2 1_555 1_555
O9 C89 1_555 1_555
O10 C96 1_555 1_555
O11 C84 1_555 1_555
O12 Zn2 1_555 1_555
O13 Zn1 1_555 1_555
C1 C2 1_555 1_555
C2 C4 1_555 1_555
C3 H1 1_555 1_555
H2 C3 1_555 1_555
H3 C3 1_555 1_555
C4 N6 1_555 1_555
C5 H4 1_555 1_555
H5 C5 1_555 1_555
H6 C5 1_555 1_555
C6 N5 1_555 1_555
C7 H7 1_555 1_555
N5 C1 1_555 1_555
N6 C5 1_555 1_555
C8 H8 1_555 1_555
C9 H9 1_555 1_555
C10 H10 1_555 1_555
C11 H11 1_555 1_555
C12 C11 1_555 1_555
H12 C12 1_555 1_555
H13 C12 1_555 1_555
C13 C8 1_555 1_555
C14 C11 1_555 1_555
H14 C14 1_555 1_555
H15 C14 1_555 1_555
C15 H16 1_555 1_555
C16 H17 1_555 1_555
C17 H18 1_555 1_555
C18 C13 1_555 1_555
H19 C18 1_555 1_555
C19 C16 1_555 1_555
H20 C19 1_555 1_555
C20 C7 1_555 1_555
C21 C9 1_555 1_555
H21 C21 1_555 1_555
C22 H22 1_555 1_555
C23 H23 1_555 1_555
C24 C15 1_555 1_555
H24 C24 1_555 1_555
C25 H25 1_555 1_555
C26 C25 1_555 1_555
C27 C17 1_555 1_555
H26 C27 1_555 1_555
C28 C17 1_555 1_555
C29 C8 1_555 1_555
H27 C29 1_555 1_555
C30 C61 1_555 1_555
C31 C9 1_555 1_555
C32 H28 1_555 1_555
C33 C32 1_555 1_555
H29 C33 1_555 1_555
C34 C7 1_555 1_555
H30 C34 1_555 1_555
C35 O4 1_555 1_555
C36 H31 1_555 1_555
C37 C23 1_555 1_555
H32 C37 1_555 1_555
C38 C14 1_555 1_555
C39 H33 1_555 1_555
C40 H34 1_555 1_555
C41 N4 1_555 1_555
H35 C41 1_555 1_555
C42 C40 1_555 1_555
H36 C42 1_555 1_555
C43 C23 1_555 1_555
C44 C25 1_555 1_555
H37 C44 1_555 1_555
C45 C16 1_555 1_555
C46 C39 1_555 1_555
H38 C46 1_555 1_555
C47 C50 1_555 1_555
C48 H39 1_555 1_555
C49 H40 1_555 1_555
C50 C22 1_555 1_555
H41 C50 1_555 1_555
C51 N1 1_555 1_555
C52 H42 1_555 1_555
C53 C48 1_555 1_555
H43 C53 1_555 1_555
C54 N3 1_555 1_555
H44 C54 1_555 1_555
C55 C47 1_555 1_555
H45 C55 1_555 1_555
C56 C45 1_555 1_555
H46 C56 1_555 1_555
C57 C10 1_555 1_555
H47 C57 1_555 1_555
C58 H48 1_555 1_555
C59 C47 1_555 1_555
C60 H49 1_555 1_555
C61 C49 1_555 1_555
C62 H50 1_555 1_555
C63 C67 1_555 1_555
C64 C19 1_555 1_555
C65 C33 1_555 1_555
C66 N1 1_555 1_555
C67 C62 1_555 1_555
H51 C67 1_555 1_555
C68 H52 1_555 1_555
C69 C39 1_555 1_555
C70 H53 1_555 1_555
C71 H54 1_555 1_555
C72 H55 1_555 1_555
C73 C56 1_555 1_555
H56 C73 1_555 1_555
C74 H57 1_555 1_555
C75 C49 1_555 1_555
H58 C75 1_555 1_555
C76 C58 1_555 1_555
H59 C76 1_555 1_555
C77 C32 1_555 1_555
C78 N2 1_555 1_555
C79 N2 1_555 1_555
C80 C55 1_555 1_555
H60 C80 1_555 1_555
C81 C60 1_555 1_555
H61 C81 1_555 1_555
C82 C63 1_555 1_555
H62 C82 1_555 1_555
C83 C70 1_555 1_555
C84 O12 1_555 1_555
C85 C52 1_555 1_555
H63 C85 1_555 1_555
C86 C68 1_555 1_555
C87 C68 1_555 1_555
H64 C87 1_555 1_555
C88 C84 1_555 1_555
C89 C77 1_555 1_555
C90 C52 1_555 1_555
C91 O8 1_555 1_555
C92 C71 1_555 1_555
C93 C62 1_555 1_555
C94 C74 1_555 1_555
H65 C94 1_555 1_555
C95 C70 1_555 1_555
H66 C95 1_555 1_555
C96 O13 1_555 1_555
C97 C71 1_555 1_555
H67 C97 1_555 1_555
Zn1_2 O11 1_555 1_555
Zn1B O3 1_555 1_555
Zn2_2 O10 1_555 1_555
Zn2B O9 1_555 1_555
Zn3_2 O7 1_555 1_555
Zn3B O5 1_555 1_555
Zn3G N4 1_555 1_555
N4G Zn3 1_555 1_555
O3B Zn1 1_555 1_555
O5B Zn3 1_555 1_555
O6B Zn1 1_555 1_555
O7_2 Zn3 1_555 1_555
O9B Zn2 1_555 1_555
O10_2 Zn2 1_555 1_555
O11_2 Zn1 1_555 1_555
O6 Zn1B 1_555 1_555
C3 N5 1_555 1_555
C6 N6 1_555 1_555
C10 C66 1_555 1_555
C12 C13 1_555 1_555
C15 C38 1_555 1_555
C18 C54 1_555 1_555
C20 C21 1_555 1_555
C20 C35 1_555 1_555
C22 C78 1_555 1_555
C26 C37 1_555 1_555
C27 C66 1_555 1_555
C28 C45 1_555 1_555
C28 C57 1_555 1_555
C31 C34 1_555 1_555
C31 C43 1_555 1_555
C36 C38 1_555 1_555
C36 C41 1_555 1_555
C40 C69 1_555 1_555
C42 C51 1_555 1_555
C43 C44 1_555 1_555
C46 C51 1_555 1_555
C48 C65 1_555 1_555
C53 C77 1_555 1_555
C58 C59 1_555 1_555
C59 C75 1_555 1_555
C60 C79 1_555 1_555
C61 C76 1_555 1_555
C64 C73 1_555 1_555
C64 C91 1_555 1_555
C65 C69 1_555 1_555
C72 C82 1_555 1_555
C72 C93 1_555 1_555
C74 C83 1_555 1_555
C78 C80 1_555 1_555
C79 C87 1_555 1_555
C81 C86 1_555 1_555
C83 C93 1_555 1_555
C85 C92 1_555 1_555
C86 C90 1_555 1_555
C88 C94 1_555 1_555
C88 C95 1_555 1_555
C90 C97 1_555 1_555
C92 C96 1_555 1_555

#END
