
#######################################################################
#
#                 Cambridge Crystallographic Data Centre
#                                CCDC 
#
#######################################################################
#
# If this CIF has been generated from an entry in the Cambridge 
# Structural Database, then it will include bibliographic, chemical, 
# crystal, experimental, refinement or atomic coordinate data resulting 
# from the CCDC's data processing and validation procedures.
#
#######################################################################

data_BIRSUS
_chemical_formula_moiety         '(C66 H48 N4 Ni7 O26)n,5n(H2 O1)'
_chemical_name_systematic        
'catena-[bis(\m~5~-5-phenyl-isophthalato)-bis(\m~4~-isonicotinato)-(\m~4~-5-phenyl-isophthalato)-bis(\m~3~-isonicotinato)-tetrakis(\m~3~-hydroxo)-diaqua-hepta-nickel pentahydrate]'
_symmetry_cell_setting           monoclinic
_symmetry_space_group_name_H-M   'P 2/n'
_symmetry_Int_Tables_number      13
_space_group_name_Hall           '-P 2yac'
loop_
_symmetry_equiv_pos_site_id
_symmetry_equiv_pos_as_xyz
1 x,y,z
2 1/2-x,y,1/2-z
3 -x,-y,-z
4 1/2+x,-y,1/2+z
_cell_length_a                   13.6192(8)
_cell_length_b                   12.9919(6)
_cell_length_c                   20.3610(10)
_cell_angle_alpha                90
_cell_angle_beta                 103.612(5)
_cell_angle_gamma                90
_cell_volume                     3501.47
_cell_formula_units_Z            2
loop_
_atom_site_label
_atom_site_type_symbol
_atom_site_fract_x
_atom_site_fract_y
_atom_site_fract_z
Ni1 Ni 0.2500 0.34565(6) 0.2500
Ni2 Ni 0.08452(4) 0.41919(4) 0.34701(3)
Ni3 Ni 0.15669(4) 0.60270(4) 0.27546(2)
Ni4 Ni 0.30967(4) 0.75037(4) 0.36454(2)
O1 O 0.1669(2) 0.7586(2) 0.29514(14)
O2 O 0.1164(2) 0.8354(2) 0.19435(14)
O3 O 0.0395(3) 1.2773(2) 0.31308(16)
O4 O 0.1644(4) 1.2232(3) 0.2689(3)
C1 C 0.0298(5) 0.8987(4) 0.3396(3)
H1 H 0.0217 0.8310 0.3522
C2 C 0.0834(4) 0.9191(3) 0.2903(2)
C3 C 0.1011(4) 1.0185(4) 0.2740(2)
H2 H 0.1370 1.0318 0.2413
C4 C 0.0653(4) 1.0996(4) 0.3063(3)
C5 C 0.0084(5) 1.0791(4) 0.3529(3)
H3 H -0.0171 1.1338 0.3732
C6 C -0.0118(5) 0.9786(4) 0.3702(3)
C7 C -0.0811(6) 0.9603(5) 0.4160(4)
C8 C -0.0828(8) 0.8711(5) 0.4498(5)
H4 H -0.0367 0.8198 0.4462
C9 C -0.1509(8) 0.8530(6) 0.4899(5)
H5 H -0.1483 0.7909 0.5130
C10 C -0.2197(7) 0.9229(6) 0.4960(4)
H6 H -0.2679 0.9092 0.5204
C11 C -0.2166(9) 1.0152(7) 0.4649(6)
H7 H -0.2617 1.0672 0.4691
C12 C -0.1455(8) 1.0311(6) 0.4267(5)
H8 H -0.1430 1.0957 0.4075
C13 C 0.0912(4) 1.2092(4) 0.2948(2)
C14 C 0.1253(3) 0.8320(3) 0.2571(2)
O5 O -0.0510(2) 0.4827(2) 0.29023(15)
O6 O 0.0059(2) 0.6171(2) 0.23967(15)
C15 C -0.2500 1.1141(12) 0.2500
H9 H -0.2500 1.1857 0.2500
C16 C -0.1827(10) 1.0593(8) 0.2154(9)
H10 H -0.1407 1.0939 0.1928
C17 C -0.1853(8) 0.9542(7) 0.2184(8)
H11 H -0.1416 0.9174 0.1983
C18 C -0.2500 0.8979(8) 0.2500
C19 C -0.2500 0.7836(7) 0.2500
C20 C -0.1627(5) 0.7288(5) 0.2504(4)
H12 H -0.1039 0.7643 0.2492
C21 C -0.1611(4) 0.6223(4) 0.2527(3)
C22 C -0.2500 0.5690(5) 0.2500
H13 H -0.2500 0.4975 0.2500
C23 C -0.0612(4) 0.5689(3) 0.2604(2)
O7 O 0.3257(3) 0.3535(5) 0.34708(17)
O8 O 0.2185(2) 0.3744(3) 0.41363(15)
N1 N 0.5587(3) 0.2780(3) 0.56419(17)
C24 C 0.5593(4) 0.2636(5) 0.4990(3)
H14 H 0.6167 0.2358 0.4885
C25 C 0.4779(4) 0.2884(5) 0.4472(2)
H15 H 0.4815 0.2785 0.4026
C26 C 0.3899(4) 0.3283(4) 0.4613(2)
C27 C 0.3884(4) 0.3382(4) 0.5277(2)
H16 H 0.3306 0.3618 0.5398
C28 C 0.4740(4) 0.3129(4) 0.5774(2)
H17 H 0.4716 0.3208 0.6224
C29 C 0.3033(4) 0.3548(4) 0.4028(2)
O9 O -0.2281(2) 0.3018(2) 0.56852(14)
O10 O -0.1264(2) 0.4206(2) 0.62916(14)
N2 N 0.0113(3) 0.3890(3) 0.42435(18)
C30 C 0.0587(4) 0.3911(4) 0.4911(2)
H18 H 0.1286 0.3983 0.5031
C31 C 0.0074(4) 0.3829(3) 0.5415(2)
H19 H 0.0417 0.3874 0.5867
C32 C -0.0962(4) 0.3678(3) 0.5242(2)
C33 C -0.1434(4) 0.3577(4) 0.4565(2)
H20 H -0.2121 0.3430 0.4435
C34 C -0.0882(4) 0.3695(4) 0.4086(2)
H21 H -0.1213 0.3638 0.3633
C35 C -0.1562(3) 0.3634(3) 0.5782(2)
O11 O 0.1464(2) 0.4476(2) 0.26843(13)
O12 O 0.3087(2) 0.6153(2) 0.31592(13)
O13 O 0.2921(3) 0.8938(2) 0.40691(16)
O5A O -0.4490(2) 0.4827(2) 0.20977(15)
O6A O -0.5059(2) 0.6171(2) 0.26033(15)
C16A C -0.3173(10) 1.0593(8) 0.2846(9)
H10A H -0.3593 1.0939 0.3072
C17A C -0.3147(8) 0.9542(7) 0.2816(8)
H11A H -0.3584 0.9174 0.3017
C20A C -0.3373(5) 0.7288(5) 0.2496(4)
H12A H -0.3961 0.7643 0.2508
C21A C -0.3389(4) 0.6223(4) 0.2473(3)
C23A C -0.4388(4) 0.5689(3) 0.2396(2)
Ni2A Ni -0.58452(4) 0.41919(4) 0.15299(3)
Ni3A Ni -0.65669(4) 0.60270(4) 0.22454(2)
Ni4A Ni -0.80967(4) 0.75037(4) 0.13546(2)
O1A O -0.6669(2) 0.7586(2) 0.20486(14)
O2A O -0.6164(2) 0.8354(2) 0.30565(14)
O3A O -0.5395(3) 1.2773(2) 0.18692(16)
O4A O -0.6644(4) 1.2232(3) 0.2311(3)
C1A C -0.5298(5) 0.8987(4) 0.1604(3)
H1A H -0.5217 0.8310 0.1478
C2A C -0.5834(4) 0.9191(3) 0.2097(2)
C3A C -0.6011(4) 1.0185(4) 0.2260(2)
H2A H -0.6370 1.0318 0.2587
C4A C -0.5653(4) 1.0996(4) 0.1937(3)
C5A C -0.5084(5) 1.0791(4) 0.1471(3)
H3A H -0.4829 1.1338 0.1268
C6A C -0.4882(5) 0.9786(4) 0.1298(3)
C7A C -0.4189(6) 0.9603(5) 0.0840(4)
C8A C -0.4172(8) 0.8711(5) 0.0502(5)
H4A H -0.4633 0.8198 0.0538
C9A C -0.3491(8) 0.8530(6) 0.0101(5)
H5A H -0.3517 0.7909 -0.0130
C10A C -0.2803(7) 0.9229(6) 0.0040(4)
H6A H -0.2321 0.9092 -0.0204
C11A C -0.2834(9) 1.0152(7) 0.0351(6)
H7A H -0.2383 1.0672 0.0309
C12A C -0.3545(8) 1.0311(6) 0.0733(5)
H8A H -0.3570 1.0957 0.0925
C13A C -0.5912(4) 1.2092(4) 0.2052(2)
C14A C -0.6253(3) 0.8320(3) 0.2429(2)
O7A O -0.8257(3) 0.3535(5) 0.15292(17)
O8A O -0.7185(2) 0.3744(3) 0.08637(15)
N1A N -1.0587(3) 0.2780(3) -0.06419(17)
C24A C -1.0593(4) 0.2636(5) 0.0010(3)
H14A H -1.1167 0.2358 0.0115
C25A C -0.9779(4) 0.2884(5) 0.0528(2)
H15A H -0.9815 0.2785 0.0974
C26A C -0.8899(4) 0.3283(4) 0.0387(2)
C27A C -0.8884(4) 0.3382(4) -0.0277(2)
H16A H -0.8306 0.3618 -0.0398
C28A C -0.9740(4) 0.3129(4) -0.0774(2)
H17A H -0.9716 0.3208 -0.1224
C29A C -0.8033(4) 0.3548(4) 0.0972(2)
O9A O -0.2719(2) 0.3018(2) -0.06852(14)
O10A O -0.3736(2) 0.4206(2) -0.12916(14)
N2A N -0.5113(3) 0.3890(3) 0.07565(18)
C30A C -0.5587(4) 0.3911(4) 0.0089(2)
H18A H -0.6286 0.3983 -0.0031
C31A C -0.5074(4) 0.3829(3) -0.0415(2)
H19A H -0.5417 0.3874 -0.0867
C32A C -0.4038(4) 0.3678(3) -0.0242(2)
C33A C -0.3566(4) 0.3577(4) 0.0435(2)
H20A H -0.2879 0.3430 0.0565
C34A C -0.4118(4) 0.3695(4) 0.0914(2)
H21A H -0.3787 0.3638 0.1367
C35A C -0.3438(3) 0.3634(3) -0.0782(2)
O11A O -0.6464(2) 0.4476(2) 0.23157(13)
O12A O -0.8087(2) 0.6153(2) 0.18408(13)
O13A O -0.7921(3) 0.8938(2) 0.09309(16)
Ni1_2 Ni -0.7500 0.34565(6) 0.2500
Ni1_3 Ni -0.7500 1.34565(6) 0.2500
Ni1_4 Ni 0.2500 1.34565(6) 0.2500
Ni2_2 Ni 0.08452(4) 1.41919(4) 0.34701(3)
Ni2A_2 Ni -0.58452(4) 1.41919(4) 0.15299(3)
Ni2B Ni -0.08452(4) 0.58081(4) 0.65299(3)
Ni2C Ni -0.41548(4) 0.58081(4) -0.15299(3)
Ni3_2 Ni -0.84331(4) 0.60270(4) 0.27546(2)
Ni3A_2 Ni 0.34331(4) 0.60270(4) 0.22454(2)
Ni3B Ni -0.15669(4) 0.39730(4) 0.72454(2)
Ni3C Ni -0.34331(4) 0.39730(4) -0.22454(2)
Ni4_2 Ni -0.69033(4) 0.75037(4) 0.36454(2)
Ni4A_2 Ni 0.19033(4) 0.75037(4) 0.13546(2)
Ni4B Ni -0.30967(4) 0.24963(4) 0.63546(2)
Ni4B_2 Ni 0.69033(4) 0.24963(4) 0.63546(2)
Ni4C Ni -1.19033(4) 0.24963(4) -0.13546(2)
Ni4C_2 Ni -0.19033(4) 0.24963(4) -0.13546(2)
O2_2 O -0.8836(2) 0.8354(2) 0.19435(14)
O2A_2 O 0.3836(2) 0.8354(2) 0.30565(14)
O3_2 O 0.0395(3) 0.2773(2) 0.31308(16)
O3A_2 O -0.5395(3) 0.2773(2) 0.18692(16)
O4_2 O 0.1644(4) 0.2232(3) 0.2689(3)
O4A_2 O 0.3356(4) 0.2232(3) 0.2311(3)
O7A_2 O 0.1743(3) 0.3535(5) 0.15292(17)
N1B N 0.4413(3) 0.7220(3) 0.43581(17)
N1C N -0.9413(3) 0.7220(3) 0.06419(17)
O9B O 0.2281(2) 0.6982(2) 0.43148(14)
O9C O -0.7281(2) 0.6982(2) 0.06852(14)
O10B O 0.1264(2) 0.5794(2) 0.37084(14)
O10C O -0.6264(2) 0.5794(2) 0.12916(14)
O11A_2 O 0.3536(2) 0.4476(2) 0.23157(13)
O12_2 O -0.6913(2) 0.6153(2) 0.31592(13)
O12A_2 O 0.1913(2) 0.6153(2) 0.18408(13)
loop_
_geom_bond_atom_site_label_1
_geom_bond_atom_site_label_2
_geom_bond_site_symmetry_1
_geom_bond_site_symmetry_2
Ni1 O7 1_555 1_555
Ni2 O5 1_555 1_555
Ni3 O1 1_555 1_555
Ni4 O1 1_555 1_555
O1 C14 1_555 1_555
O2 C14 1_555 1_555
O3 C13 1_555 1_555
O4 C13 1_555 1_555
C1 H1 1_555 1_555
C2 C1 1_555 1_555
C3 C2 1_555 1_555
H2 C3 1_555 1_555
C4 C3 1_555 1_555
C5 C4 1_555 1_555
H3 C5 1_555 1_555
C6 C1 1_555 1_555
C7 C6 1_555 1_555
C8 C7 1_555 1_555
H4 C8 1_555 1_555
C9 C8 1_555 1_555
H5 C9 1_555 1_555
C10 C9 1_555 1_555
H6 C10 1_555 1_555
C11 C10 1_555 1_555
H7 C11 1_555 1_555
C12 C7 1_555 1_555
H8 C12 1_555 1_555
C13 C4 1_555 1_555
C14 C2 1_555 1_555
O5 C23 1_555 1_555
O6 Ni3 1_555 1_555
C15 H9 1_555 1_555
C16 C15 1_555 1_555
H10 C16 1_555 1_555
C17 C16 1_555 1_555
H11 C17 1_555 1_555
C18 C17 1_555 1_555
C19 C18 1_555 1_555
C20 C19 1_555 1_555
H12 C20 1_555 1_555
C21 C20 1_555 1_555
C22 C21 1_555 1_555
H13 C22 1_555 1_555
C23 O6 1_555 1_555
O7 C29 1_555 1_555
O8 Ni2 1_555 1_555
N1 C24 1_555 1_555
C24 H14 1_555 1_555
C25 C24 1_555 1_555
H15 C25 1_555 1_555
C26 C25 1_555 1_555
C27 C26 1_555 1_555
H16 C27 1_555 1_555
C28 N1 1_555 1_555
H17 C28 1_555 1_555
C29 O8 1_555 1_555
O9 C35 1_555 1_555
O10 C35 1_555 1_555
N2 Ni2 1_555 1_555
C30 N2 1_555 1_555
H18 C30 1_555 1_555
C31 C30 1_555 1_555
H19 C31 1_555 1_555
C32 C31 1_555 1_555
C33 C32 1_555 1_555
H20 C33 1_555 1_555
C34 N2 1_555 1_555
H21 C34 1_555 1_555
C35 C32 1_555 1_555
O11 Ni1 1_555 1_555
O12 Ni3 1_555 1_555
O13 Ni4 1_555 1_555
O5A C23A 1_555 1_555
O6A C23A 1_555 1_555
C16A C15 1_555 1_555
H10A C16A 1_555 1_555
C17A C18 1_555 1_555
H11A C17A 1_555 1_555
C20A C19 1_555 1_555
H12A C20A 1_555 1_555
C21A C22 1_555 1_555
C23A C21A 1_555 1_555
Ni2A O5A 1_555 1_555
Ni3A O6A 1_555 1_555
Ni4A O1A 1_555 1_555
O1A Ni3A 1_555 1_555
O2A C14A 1_555 1_555
O3A C13A 1_555 1_555
O4A C13A 1_555 1_555
C1A H1A 1_555 1_555
C2A C1A 1_555 1_555
C3A C2A 1_555 1_555
H2A C3A 1_555 1_555
C4A C3A 1_555 1_555
C5A C4A 1_555 1_555
H3A C5A 1_555 1_555
C6A C1A 1_555 1_555
C7A C6A 1_555 1_555
C8A C7A 1_555 1_555
H4A C8A 1_555 1_555
C9A C8A 1_555 1_555
H5A C9A 1_555 1_555
C10A C9A 1_555 1_555
H6A C10A 1_555 1_555
C11A C10A 1_555 1_555
H7A C11A 1_555 1_555
C12A C7A 1_555 1_555
H8A C12A 1_555 1_555
C13A C4A 1_555 1_555
C14A O1A 1_555 1_555
O7A C29A 1_555 1_555
O8A Ni2A 1_555 1_555
N1A C24A 1_555 1_555
C24A H14A 1_555 1_555
C25A C24A 1_555 1_555
H15A C25A 1_555 1_555
C26A C25A 1_555 1_555
C27A C26A 1_555 1_555
H16A C27A 1_555 1_555
C28A N1A 1_555 1_555
H17A C28A 1_555 1_555
C29A O8A 1_555 1_555
O9A C35A 1_555 1_555
O10A C35A 1_555 1_555
N2A Ni2A 1_555 1_555
C30A N2A 1_555 1_555
H18A C30A 1_555 1_555
C31A C30A 1_555 1_555
H19A C31A 1_555 1_555
C32A C31A 1_555 1_555
C33A C32A 1_555 1_555
H20A C33A 1_555 1_555
C34A N2A 1_555 1_555
H21A C34A 1_555 1_555
C35A C32A 1_555 1_555
O11A Ni2A 1_555 1_555
O12A Ni3A 1_555 1_555
O13A Ni4A 1_555 1_555
Ni1_2 O7A 1_555 1_555
Ni1_3 O4A 1_555 1_555
Ni1_4 O4 1_555 1_555
Ni2_2 O3 1_555 1_555
Ni2A_2 O3A 1_555 1_555
Ni2B O10 1_555 1_555
Ni2C O10A 1_555 1_555
Ni3_2 O12A 1_555 1_555
Ni3A_2 O12 1_555 1_555
Ni3B O10 1_555 1_555
Ni3C O10A 1_555 1_555
Ni4_2 O2A 1_555 1_555
Ni4A_2 O2 1_555 1_555
Ni4B O9 1_555 1_555
Ni4B_2 N1 1_555 1_555
Ni4C N1A 1_555 1_555
Ni4C_2 O9A 1_555 1_555
O2_2 Ni4A 1_555 1_555
O2A_2 Ni4 1_555 1_555
O3_2 Ni2 1_555 1_555
O3A_2 Ni2A 1_555 1_555
O4_2 Ni1 1_555 1_555
O4A_2 Ni1 1_555 1_555
O7A_2 Ni1 1_555 1_555
N1B Ni4 1_555 1_555
N1C Ni4A 1_555 1_555
O9B Ni4 1_555 1_555
O9C Ni4A 1_555 1_555
O10B Ni2 1_555 1_555
O10C Ni2A 1_555 1_555
O11A_2 Ni1 1_555 1_555
O12_2 Ni3A 1_555 1_555
O12A_2 Ni3 1_555 1_555
Ni2 O11 1_555 1_555
Ni3 O11 1_555 1_555
Ni3 O10B 1_555 1_555
Ni4 O12 1_555 1_555
C5 C6 1_555 1_555
C11 C12 1_555 1_555
C21 C23 1_555 1_555
C26 C29 1_555 1_555
C27 C28 1_555 1_555
C33 C34 1_555 1_555
C16A C17A 1_555 1_555
C20A C21A 1_555 1_555
Ni3A O11A 1_555 1_555
Ni3A O10C 1_555 1_555
Ni4A O12A 1_555 1_555
C2A C14A 1_555 1_555
C5A C6A 1_555 1_555
C11A C12A 1_555 1_555
C26A C29A 1_555 1_555
C27A C28A 1_555 1_555
C33A C34A 1_555 1_555
O11A Ni1_2 1_555 1_555
Ni3_2 O12_2 1_555 1_555
Ni3A_2 O11A_2 1_555 1_555
Ni3A_2 O12A_2 1_555 1_555
Ni4_2 O12_2 1_555 1_555
Ni4A_2 O12A_2 1_555 1_555

#END
