
#######################################################################
#
#                 Cambridge Crystallographic Data Centre
#                                CCDC 
#
#######################################################################
#
# If this CIF has been generated from an entry in the Cambridge 
# Structural Database, then it will include bibliographic, chemical, 
# crystal, experimental, refinement or atomic coordinate data resulting 
# from the CCDC's data processing and validation procedures.
#
#######################################################################

data_BIRSOM
_chemical_formula_moiety         '(C66 H48 Co7 N4 O26)n,5n(H2 O1)'
_chemical_name_systematic        
'catena-[bis(\m~5~-5-phenyl-isophthalato)-bis(\m~4~-isonicotinato)-(\m~4~-5-phenyl-isophthalato)-bis(\m~3~-isonicotinato)-tetrakis(\m~3~-hydroxo)-diaqua-hepta-cobalt pentahydrate]'
_symmetry_cell_setting           monoclinic
_symmetry_space_group_name_H-M   'P 2/n'
_symmetry_Int_Tables_number      13
_space_group_name_Hall           '-P 2yac'
loop_
_symmetry_equiv_pos_site_id
_symmetry_equiv_pos_as_xyz
1 x,y,z
2 1/2-x,y,1/2-z
3 -x,-y,-z
4 1/2+x,-y,1/2+z
_cell_length_a                   13.7453(8)
_cell_length_b                   13.1307(5)
_cell_length_c                   20.5544(11)
_cell_angle_alpha                90
_cell_angle_beta                 103.322(6)
_cell_angle_gamma                90
_cell_volume                     3609.94
_cell_formula_units_Z            2
loop_
_atom_site_label
_atom_site_type_symbol
_atom_site_fract_x
_atom_site_fract_y
_atom_site_fract_z
Co1 Co 0.2500 0.33998(12) 0.7500
Co2 Co 0.41572(12) 0.41274(8) 0.65300(7)
Co3 Co 0.34548(12) 0.59789(8) 0.72515(7)
Co4 Co 0.18944(12) 0.74455(9) 0.63638(7)
O1 O 0.3376(5) 0.7550(4) 0.7051(3)
O2 O 0.3780(6) 0.8341(4) 0.8031(3)
O3 O 0.3264(15) 1.2143(8) 0.7222(12)
O4 O 0.4577(6) 1.2694(4) 0.6861(4)
C1 C 0.5806(6) 0.8649(4) 0.5526(4)
H1 H 0.5371 0.8117 0.5592
C2 C 0.6462(7) 0.8495(5) 0.5112(4)
H2 H 0.6475 0.7858 0.4895
C3 C 0.7098(6) 0.9274(6) 0.5014(4)
H3 H 0.7547 0.9169 0.4731
C4 C 0.7080(6) 1.0206(5) 0.5331(4)
H4 H 0.7515 1.0739 0.5265
C5 C 0.6424(6) 1.0360(4) 0.5746(4)
H5 H 0.6411 1.0997 0.5962
C6 C 0.5787(5) 0.9582(4) 0.5843(4)
C7 C 0.4328(6) 1.0936(5) 0.6937(4)
C8 C 0.4902(7) 1.0733(6) 0.6481(4)
H6 H 0.5157 1.1287 0.6273
C9 C 0.5116(7) 0.9753(6) 0.6318(4)
C10 C 0.4704(7) 0.8956(6) 0.6616(4)
H7 H 0.4802 0.8272 0.6493
C11 C 0.4150(7) 0.9153(6) 0.7090(4)
C12 C 0.3959(5) 1.0142(6) 0.7252(4)
H8 H 0.3580 1.0276 0.7575
C13 C 0.3735(8) 0.8285(6) 0.7418(5)
C14 C 0.4080(7) 1.2017(6) 0.7057(5)
O5 O 0.2711(7) 0.6910(5) 0.5683(4)
O6 O 0.3738(5) 0.5746(4) 0.6283(3)
N1 N 0.5106(8) 0.6163(5) 0.4261(5)
C15 C 0.3436(9) 0.6310(7) 0.5786(6)
C16 C 0.4037(10) 0.6303(6) 0.5252(6)
C17 C 0.5060(10) 0.6156(7) 0.5420(6)
H9 H 0.5405 0.6096 0.5875
C18 C 0.5580(9) 0.6097(7) 0.4915(6)
H10 H 0.6285 0.6009 0.5032
C19 C 0.3564(10) 0.6427(7) 0.4585(6)
H11 H 0.2869 0.6574 0.4458
C20 C 0.4123(10) 0.6334(7) 0.4106(6)
H12 H 0.3792 0.6393 0.3648
C21 C 0.0628(15) 0.7175(17) 0.5015(8)
H13 H 0.1237 0.7385 0.4912
C22 C -0.0301(11) 0.6915(9) 0.5761(6)
H14 H -0.0355 0.6904 0.6214
C23 C -0.1139(11) 0.6697(10) 0.5282(7)
H15 H -0.1751 0.6564 0.5406
C24 C -0.1105(9) 0.6670(8) 0.4630(6)
C25 C -0.0158(14) 0.6923(17) 0.4509(8)
H16 H -0.0073 0.6916 0.4063
C26 C -0.1972(9) 0.6448(8) 0.4049(6)
O7 O -0.1793(12) 0.6751(16) 0.3472(8)
O8 O -0.2805(6) 0.6277(5) 0.4152(4)
O9 O 0.4962(6) 0.6112(5) 0.7598(4)
O10 O 0.5526(6) 0.4778(4) 0.7104(4)
C27 C 0.5626(9) 0.5633(7) 0.7388(5)
C28 C 0.7500 0.5645(10) 0.7500
H17 H 0.7500 0.4921 0.7500
C29 C 0.6627(9) 0.6159(7) 0.7473(5)
C30 C 0.7500 1.1045(16) 0.7500
H18 H 0.7500 1.1768 0.7500
C31 C 0.6638(9) 0.7221(8) 0.7489(6)
H19 H 0.6037 0.7575 0.7493
C32 C 0.7500 0.7779(11) 0.7500
C33 C 0.7500 0.8911(11) 0.7500
C34 C 0.6871(11) 0.9456(9) 0.7828(8)
H20 H 0.6450 0.9092 0.8054
C35 C 0.6854(13) 1.0505(10) 0.7828(10)
H21 H 0.6417 1.0862 0.8044
O11 O 0.3567(5) 0.4409(4) 0.7337(3)
O12 O 0.1918(5) 0.6091(4) 0.6838(3)
O13 O 0.2109(7) 0.8879(5) 0.5926(4)
N2 N 0.0568(8) 0.7135(7) 0.5647(4)
O9A O 1.0038(6) 0.6112(5) 0.7402(4)
O10A O 0.9474(6) 0.4778(4) 0.7896(4)
C27A C 0.9374(9) 0.5633(7) 0.7612(5)
C29A C 0.8373(9) 0.6159(7) 0.7527(5)
C31A C 0.8362(9) 0.7221(8) 0.7511(6)
H19A H 0.8963 0.7575 0.7507
C34A C 0.8129(11) 0.9456(9) 0.7172(8)
H20A H 0.8550 0.9092 0.6946
C35A C 0.8146(13) 1.0505(10) 0.7172(10)
H21A H 0.8583 1.0862 0.6956
Co2A Co 0.08428(12) 0.41274(8) 0.84700(7)
Co3A Co 0.15452(12) 0.59789(8) 0.77485(7)
Co4A Co 0.31056(12) 0.74455(9) 0.86362(7)
O1A O 0.1624(5) 0.7550(4) 0.7949(3)
O2A O 0.1220(6) 0.8341(4) 0.6969(3)
O3A O 0.1736(15) 1.2143(8) 0.7778(12)
O4A O 0.0423(6) 1.2694(4) 0.8139(4)
C1A C -0.0806(6) 0.8649(4) 0.9474(4)
H1A H -0.0371 0.8117 0.9408
C2A C -0.1462(7) 0.8495(5) 0.9888(4)
H2A H -0.1475 0.7858 1.0105
C3A C -0.2098(6) 0.9274(6) 0.9986(4)
H3A H -0.2547 0.9169 1.0269
C4A C -0.2080(6) 1.0206(5) 0.9669(4)
H4A H -0.2515 1.0739 0.9735
C5A C -0.1424(6) 1.0360(4) 0.9254(4)
H5A H -0.1411 1.0997 0.9038
C6A C -0.0787(5) 0.9582(4) 0.9157(4)
C7A C 0.0672(6) 1.0936(5) 0.8063(4)
C8A C 0.0098(7) 1.0733(6) 0.8519(4)
H6A H -0.0157 1.1287 0.8727
C9A C -0.0116(7) 0.9753(6) 0.8682(4)
C10A C 0.0296(7) 0.8956(6) 0.8384(4)
H7A H 0.0198 0.8272 0.8507
C11A C 0.0850(7) 0.9153(6) 0.7910(4)
C12A C 0.1041(5) 1.0142(6) 0.7748(4)
H8A H 0.1420 1.0276 0.7425
C13A C 0.1265(8) 0.8285(6) 0.7582(5)
C14A C 0.0920(7) 1.2017(6) 0.7943(5)
O5A O 0.2289(7) 0.6910(5) 0.9317(4)
O6A O 0.1262(5) 0.5746(4) 0.8717(3)
N1A N -0.0106(8) 0.6163(5) 1.0739(5)
C15A C 0.1564(9) 0.6310(7) 0.9214(6)
C16A C 0.0963(10) 0.6303(6) 0.9748(6)
C17A C -0.0060(10) 0.6156(7) 0.9580(6)
H9A H -0.0405 0.6096 0.9125
C18A C -0.0580(9) 0.6097(7) 1.0085(6)
H10A H -0.1285 0.6009 0.9968
C19A C 0.1436(10) 0.6427(7) 1.0415(6)
H11A H 0.2131 0.6574 1.0542
C20A C 0.0877(10) 0.6334(7) 1.0894(6)
H12A H 0.1208 0.6393 1.1352
C21A C 0.4372(15) 0.7175(17) 0.9985(8)
H13A H 0.3763 0.7385 1.0088
C22A C 0.5301(11) 0.6915(9) 0.9239(6)
H14A H 0.5355 0.6904 0.8786
C23A C 0.6139(11) 0.6697(10) 0.9718(7)
H15A H 0.6751 0.6564 0.9594
C24A C 0.6105(9) 0.6670(8) 1.0370(6)
C25A C 0.5158(14) 0.6923(17) 1.0491(8)
H16A H 0.5073 0.6916 1.0937
C26A C 0.6972(9) 0.6448(8) 1.0951(6)
O7A O 0.6793(12) 0.6751(16) 1.1528(8)
O8A O 0.7805(6) 0.6277(5) 1.0848(4)
O11A O 0.1433(5) 0.4409(4) 0.7663(3)
O12A O 0.3082(5) 0.6091(4) 0.8162(3)
O13A O 0.2891(7) 0.8879(5) 0.9074(4)
N2A N 0.4432(8) 0.7135(7) 0.9353(4)
Co1_2 Co 0.2500 1.33998(12) 0.7500
Co1B Co -0.2500 0.66002(12) 0.2500
Co1B_2 Co 0.7500 0.66002(12) 1.2500
Co2_2 Co 0.41572(12) 1.41274(8) 0.65300(7)
Co2A_2 Co 0.08428(12) 1.41274(8) 0.84700(7)
Co2A_3 Co 1.08428(12) 0.41274(8) 0.84700(7)
Co2B Co -0.41572(12) 0.58726(8) 0.34700(7)
Co2B_2 Co 0.58428(12) 0.58726(8) 0.34700(7)
Co2C Co -0.08428(12) 0.58726(8) 1.15300(7)
Co2C_2 Co 0.91572(12) 0.58726(8) 1.15300(7)
Co3A_2 Co 1.15452(12) 0.59789(8) 0.77485(7)
O3_2 O 0.3264(15) 0.2143(8) 0.7222(12)
O3A_2 O 0.1736(15) 0.2143(8) 0.7778(12)
O4_2 O 0.4577(6) 0.2694(4) 0.6861(4)
O4A_2 O 0.0423(6) 0.2694(4) 0.8139(4)
N1B N 0.4894(8) 0.3837(5) 0.5739(5)
N1C N 0.0106(8) 0.3837(5) 0.9261(5)
O7B O 0.1793(12) 0.3249(16) 0.6528(8)
O7C O 0.3207(12) 0.3249(16) 0.8472(8)
O8B O 0.2805(6) 0.3723(5) 0.5848(4)
O8C O 0.2195(6) 0.3723(5) 0.9152(4)
O9A_2 O 0.0038(6) 0.6112(5) 0.7402(4)
O10A_2 O -0.0526(6) 0.4778(4) 0.7896(4)
O14? O -0.193(9) 0.722(8) 0.348(6)
O15? O -0.1747(11) 0.6198(12) 0.3513(7)
O16? O 0.358(3) 1.2225(14) 0.752(2)
loop_
_geom_bond_atom_site_label_1
_geom_bond_atom_site_label_2
_geom_bond_site_symmetry_1
_geom_bond_site_symmetry_2
Co1 O11 1_555 1_555
Co2 O6 1_555 1_555
Co3 O1 1_555 1_555
Co4 O1 1_555 1_555
O1 C13 1_555 1_555
O2 C13 1_555 1_555
O3 C14 1_555 1_555
O4 C14 1_555 1_555
C1 H1 1_555 1_555
C2 C1 1_555 1_555
H2 C2 1_555 1_555
C3 C2 1_555 1_555
H3 C3 1_555 1_555
C4 C3 1_555 1_555
H4 C4 1_555 1_555
C5 C4 1_555 1_555
H5 C5 1_555 1_555
C6 C1 1_555 1_555
C7 C8 1_555 1_555
C8 H6 1_555 1_555
C9 C6 1_555 1_555
C10 C9 1_555 1_555
H7 C10 1_555 1_555
C11 C10 1_555 1_555
C12 C7 1_555 1_555
H8 C12 1_555 1_555
C13 C11 1_555 1_555
C14 C7 1_555 1_555
O5 Co4 1_555 1_555
O6 Co3 1_555 1_555
N1 C18 1_555 1_555
C15 O5 1_555 1_555
C16 C15 1_555 1_555
C17 C16 1_555 1_555
H9 C17 1_555 1_555
C18 C17 1_555 1_555
H10 C18 1_555 1_555
C19 C16 1_555 1_555
H11 C19 1_555 1_555
C20 N1 1_555 1_555
H12 C20 1_555 1_555
C21 H13 1_555 1_555
C22 H14 1_555 1_555
C23 C22 1_555 1_555
H15 C23 1_555 1_555
C24 C23 1_555 1_555
C25 C21 1_555 1_555
H16 C25 1_555 1_555
C26 C24 1_555 1_555
O7 C26 1_555 1_555
O8 C26 1_555 1_555
O9 Co3 1_555 1_555
O10 Co2 1_555 1_555
C27 O9 1_555 1_555
C28 H17 1_555 1_555
C29 C27 1_555 1_555
C30 H18 1_555 1_555
C31 C29 1_555 1_555
H19 C31 1_555 1_555
C32 C31 1_555 1_555
C33 C32 1_555 1_555
C34 C33 1_555 1_555
H20 C34 1_555 1_555
C35 C30 1_555 1_555
H21 C35 1_555 1_555
O11 Co2 1_555 1_555
O12 Co3 1_555 1_555
O13 Co4 1_555 1_555
N2 Co4 1_555 1_555
O9A C27A 1_555 1_555
O10A C27A 1_555 1_555
C27A C29A 1_555 1_555
C29A C28 1_555 1_555
C31A C32 1_555 1_555
H19A C31A 1_555 1_555
C34A C33 1_555 1_555
H20A C34A 1_555 1_555
C35A C30 1_555 1_555
H21A C35A 1_555 1_555
Co2A O6A 1_555 1_555
Co3A O12 1_555 1_555
Co4A O2 1_555 1_555
O1A Co3A 1_555 1_555
O2A Co4 1_555 1_555
O3A C14A 1_555 1_555
O4A C14A 1_555 1_555
C1A H1A 1_555 1_555
C2A C1A 1_555 1_555
H2A C2A 1_555 1_555
C3A C2A 1_555 1_555
H3A C3A 1_555 1_555
C4A C3A 1_555 1_555
H4A C4A 1_555 1_555
C5A C4A 1_555 1_555
H5A C5A 1_555 1_555
C6A C1A 1_555 1_555
C7A C8A 1_555 1_555
C8A H6A 1_555 1_555
C9A C6A 1_555 1_555
C10A C9A 1_555 1_555
H7A C10A 1_555 1_555
C11A C10A 1_555 1_555
C12A C7A 1_555 1_555
H8A C12A 1_555 1_555
C13A O1A 1_555 1_555
C14A C7A 1_555 1_555
O5A Co4A 1_555 1_555
O6A Co3A 1_555 1_555
N1A C18A 1_555 1_555
C15A O5A 1_555 1_555
C16A C15A 1_555 1_555
C17A C16A 1_555 1_555
H9A C17A 1_555 1_555
C18A C17A 1_555 1_555
H10A C18A 1_555 1_555
C19A C16A 1_555 1_555
H11A C19A 1_555 1_555
C20A N1A 1_555 1_555
H12A C20A 1_555 1_555
C21A H13A 1_555 1_555
C22A H14A 1_555 1_555
C23A C22A 1_555 1_555
H15A C23A 1_555 1_555
C24A C23A 1_555 1_555
C25A C21A 1_555 1_555
H16A C25A 1_555 1_555
C26A C24A 1_555 1_555
O7A C26A 1_555 1_555
O8A C26A 1_555 1_555
O11A Co1 1_555 1_555
O12A Co3 1_555 1_555
O13A Co4A 1_555 1_555
N2A Co4A 1_555 1_555
Co1_2 O3 1_555 1_555
Co1B O7 1_555 1_555
Co1B_2 O7A 1_555 1_555
Co2_2 O4 1_555 1_555
Co2A_2 O4A 1_555 1_555
Co2A_3 O10A 1_555 1_555
Co2B O8 1_555 1_555
Co2B_2 N1 1_555 1_555
Co2C N1A 1_555 1_555
Co2C_2 O8A 1_555 1_555
Co3A_2 O9A 1_555 1_555
O3_2 Co1 1_555 1_555
O3A_2 Co1 1_555 1_555
O4_2 Co2 1_555 1_555
O4A_2 Co2A 1_555 1_555
N1B Co2 1_555 1_555
N1C Co2A 1_555 1_555
O7B Co1 1_555 1_555
O7C Co1 1_555 1_555
O8B Co2 1_555 1_555
O8C Co2A 1_555 1_555
O9A_2 Co3A 1_555 1_555
O10A_2 Co2A 1_555 1_555
Co3 O11 1_555 1_555
Co4 O12 1_555 1_555
C5 C6 1_555 1_555
C8 C9 1_555 1_555
C11 C12 1_555 1_555
O6 C15 1_555 1_555
C19 C20 1_555 1_555
C21 N2 1_555 1_555
C22 N2 1_555 1_555
C24 C25 1_555 1_555
O10 C27 1_555 1_555
C28 C29 1_555 1_555
C34 C35 1_555 1_555
C29A C31A 1_555 1_555
C34A C35A 1_555 1_555
Co2A O11A 1_555 1_555
Co3A O11A 1_555 1_555
Co3A O12A 1_555 1_555
Co4A O1A 1_555 1_555
Co4A O12A 1_555 1_555
O2A C13A 1_555 1_555
O3A Co1_2 1_555 1_555
C5A C6A 1_555 1_555
C8A C9A 1_555 1_555
C11A C12A 1_555 1_555
C11A C13A 1_555 1_555
O6A C15A 1_555 1_555
C19A C20A 1_555 1_555
C21A N2A 1_555 1_555
C22A N2A 1_555 1_555
C24A C25A 1_555 1_555

#END
