
#######################################################################
#
#                 Cambridge Crystallographic Data Centre
#                                CCDC 
#
#######################################################################
#
# If this CIF has been generated from an entry in the Cambridge 
# Structural Database, then it will include bibliographic, chemical, 
# crystal, experimental, refinement or atomic coordinate data resulting 
# from the CCDC's data processing and validation procedures.
#
#######################################################################

data_MUJROZ
_chemical_formula_moiety         '(C32 H28 Cd2 N6 O14)n,2n(H2 O1),n(C2 H6 O1)'
_chemical_name_systematic        
'catena-[bis(\m~3~-Pyrazine-2,3-dicarboxylato)-(\m~2~-2,5-bis(2-hydroxyethoxy)-1,4-bis(4-pyridyl)benzene)-diaqua-di-cadmium(ii) ethanol dihydrate clathrate]'
_symmetry_cell_setting           monoclinic
_symmetry_space_group_name_H-M   'P 21/n'
_symmetry_Int_Tables_number      14
_space_group_name_Hall           '-P 2yn'
loop_
_symmetry_equiv_pos_site_id
_symmetry_equiv_pos_as_xyz
1 x,y,z
2 1/2-x,1/2+y,1/2-z
3 -x,-y,-z
4 1/2+x,1/2-y,1/2+z
_cell_length_a                   10.236(2)
_cell_length_b                   14.827(3)
_cell_length_c                   25.877(5)
_cell_angle_alpha                90
_cell_angle_beta                 95.45(3)
_cell_angle_gamma                90
_cell_volume                     3909.58
_exptl_crystal_colour            colorless
_exptl_crystal_description       block
_cell_formula_units_Z            4
loop_
_atom_site_label
_atom_site_type_symbol
_atom_site_fract_x
_atom_site_fract_y
_atom_site_fract_z
Cd1 Cd 0.12134(4) 0.62847(3) 0.785514(18)
Cd2 Cd 0.57636(4) 0.41660(3) 0.731990(18)
O1 O 0.0070(4) 0.6005(3) 0.7026(2)
O2 O 0.3026(4) 0.5424(3) 0.77148(18)
O3 O 0.3851(4) 0.4048(3) 0.7673(2)
O4 O 0.6279(6) 0.3389(5) 0.8153(2)
O5 O 0.2634(4) 0.2216(3) 0.76475(18)
O6 O 0.3858(5) 0.2490(3) 0.8396(2)
O7 O -0.0181(4) 0.7691(3) 0.79176(17)
O8 O -0.0973(4) 0.6355(3) 0.8087(2)
O9 O -0.3591(7) 0.5538(4) 0.8350(3)
O10 O -0.3595(6) 0.5640(4) 0.7503(3)
O11 O 0.6956(6) 1.0413(3) 0.9806(2)
O12 O 0.8049(7) 1.1867(5) 0.9286(3)
H1 H 0.8027 1.1798 0.8970
O13 O 0.5855(14) 0.6776(8) 1.0099(5)
O14 O 0.704(2) 0.4989(13) 0.9895(8)
H2 H 0.7337 0.5401 0.9729
N1 N 0.0963(5) 0.4796(3) 0.8176(2)
N2 N 0.0793(6) 0.3007(4) 0.8449(3)
N3 N -0.2626(5) 0.8436(3) 0.7941(2)
N4 N -0.4837(6) 0.7368(5) 0.7887(3)
N5 N 0.2491(5) 0.6879(3) 0.8566(2)
N6 N 0.9807(5) 1.0263(3) 1.1530(2)
C1 C 0.1910(5) 0.4206(4) 0.8077(2)
C2 C 0.1874(6) 0.3291(4) 0.8204(2)
C3 C -0.0186(7) 0.3599(4) 0.8550(3)
H3 H -0.0913 0.3402 0.8709
C4 C -0.0067(6) 0.4491(4) 0.8412(3)
H4 H -0.0720 0.4896 0.8483
C5 C 0.3030(5) 0.4604(4) 0.7801(3)
C6 C 0.2875(5) 0.2629(4) 0.8066(3)
C7 C -0.2508(5) 0.7541(4) 0.7947(2)
C8 C -0.3590(6) 0.6979(4) 0.7912(3)
C9 C -0.4930(6) 0.8286(5) 0.7910(3)
H5 H -0.5749 0.8557 0.7913
C10 C -0.3830(6) 0.8806(4) 0.7929(2)
H6 H -0.3913 0.9431 0.7933
C11 C -0.1129(5) 0.7173(4) 0.7989(2)
C12 C -0.3639(9) 0.5828(12) 0.7915(4)
C13 C 0.2429(6) 0.7738(4) 0.8716(3)
H7 H 0.1698 0.8077 0.8594
C14 C 0.3398(7) 0.8151(4) 0.9044(3)
H8 H 0.3299 0.8750 0.9139
C15 C 0.4521(7) 0.7678(4) 0.9233(3)
C16 C 0.4560(8) 0.6784(5) 0.9088(3)
H9 H 0.5276 0.6429 0.9205
C17 C 0.3542(8) 0.6418(5) 0.8771(3)
H10 H 0.3585 0.5807 0.8694
C18 C 0.5574(8) 0.8116(5) 0.9578(3)
C19 C 0.5804(8) 0.9045(5) 0.9510(3)
H11 H 0.5338 0.9348 0.9236
C20 C 0.6716(8) 0.9524(5) 0.9842(3)
C21 C 0.7402(8) 0.9068(5) 1.0262(3)
C22 C 0.7207(9) 0.8145(5) 1.0310(3)
H12 H 0.7673 0.7835 1.0581
C23 C 0.6335(10) 0.7673(5) 0.9965(3)
C24 C 0.8254(7) 0.9520(4) 1.0679(3)
C25 C 0.9171(7) 1.0205(5) 1.0614(3)
H13 H 0.9275 1.0430 1.0285
C26 C 0.9915(6) 1.0539(4) 1.1042(3)
H14 H 1.0530 1.0983 1.0990
C27 C 0.8903(6) 0.9629(4) 1.1597(3)
H15 H 0.8800 0.9429 1.1932
C28 C 0.8125(7) 0.9266(4) 1.1187(3)
H16 H 0.7496 0.8839 1.1252
C29 C 0.6247(9) 1.0920(6) 0.9389(4)
H17 H 0.5312 1.0907 0.9423
H18 H 0.6400 1.0664 0.9055
C30 C 0.6763(10) 1.1888(7) 0.9432(4)
H19 H 0.6218 1.2284 0.9204
H20 H 0.6760 1.2106 0.9786
C31 C 0.686(2) 0.6247(12) 1.0463(8)
H21 H 0.7746 0.6404 1.0396
H22 H 0.6748 0.6383 1.0823
C32 C 0.662(2) 0.5335(13) 1.0362(8)
H23 H 0.5685 0.5230 1.0357
H24 H 0.7047 0.4989 1.0649
Cd1A Cd 0.37866(4) 0.12847(3) 0.714486(18)
Cd2A Cd -0.07636(4) 0.91660(3) 0.768010(18)
Cd2_2 Cd -0.42364(4) 0.41660(3) 0.731990(18)
Cd2C Cd 1.07636(4) 1.08340(3) 1.231990(18)
O5A O 0.2366(4) 0.7216(3) 0.73525(18)
O7A O 0.5181(4) 0.2691(3) 0.70824(17)
O10_2 O 0.6405(6) 0.5640(4) 0.7503(3)
N3A N 0.7626(5) 0.3436(3) 0.7059(2)
N6C N 0.4807(5) 0.4737(3) 0.6530(2)
C33 C 0.987(9) 0.732(3) 0.944(4)
C34 C 0.9288(18) 0.6414(12) 0.9299(6)
O15 O 0.7977(19) 0.5965(14) 0.9215(9)
O16 O -0.2539(6) 0.6636(5) 0.6769(3)
O17 O 0.9017(14) 1.3370(8) 0.9854(5)
O18 O -0.467(2) 0.4475(12) 0.9039(8)
C35? C 0.7307(18) 0.6263(11) 1.0308(7)
C36? C 0.7194(16) 0.5255(11) 1.0159(7)
H25? H 0.7821 0.5487 0.9526
H26? H 0.7110 0.6348 1.0664
H27? H 0.8192 0.6476 1.0277
H28? H 0.7607 0.4899 1.0444
H29? H 0.6272 0.5091 1.0115
O19? O 0.6378(10) 0.6762(6) 0.9958(4)
O20? O 0.7769(15) 0.5033(10) 0.9704(6)
loop_
_geom_bond_atom_site_label_1
_geom_bond_atom_site_label_2
_geom_bond_site_symmetry_1
_geom_bond_site_symmetry_2
Cd1 O1 1_555 1_555
Cd2 O3 1_555 1_555
O2 Cd1 1_555 1_555
O3 C5 1_555 1_555
O4 Cd2 1_555 1_555
O5 C6 1_555 1_555
O6 C6 1_555 1_555
O7 Cd1 1_555 1_555
O8 Cd1 1_555 1_555
O9 C12 1_555 1_555
O10 C12 1_555 1_555
O11 C20 1_555 1_555
O12 H1 1_555 1_555
O13 C23 1_555 1_555
O14 H2 1_555 1_555
N1 Cd1 1_555 1_555
N2 C2 1_555 1_555
N3 C7 1_555 1_555
N4 C8 1_555 1_555
N5 Cd1 1_555 1_555
N6 C26 1_555 1_555
C1 N1 1_555 1_555
C2 C1 1_555 1_555
C3 N2 1_555 1_555
H3 C3 1_555 1_555
C4 N1 1_555 1_555
H4 C4 1_555 1_555
C5 O2 1_555 1_555
C6 C2 1_555 1_555
C7 C8 1_555 1_555
C8 C12 1_555 1_555
C9 N4 1_555 1_555
H5 C9 1_555 1_555
C10 N3 1_555 1_555
H6 C10 1_555 1_555
C11 O7 1_555 1_555
C13 N5 1_555 1_555
H7 C13 1_555 1_555
C14 C13 1_555 1_555
H8 C14 1_555 1_555
C15 C14 1_555 1_555
C16 C15 1_555 1_555
H9 C16 1_555 1_555
C17 N5 1_555 1_555
H10 C17 1_555 1_555
C18 C15 1_555 1_555
C19 C18 1_555 1_555
H11 C19 1_555 1_555
C20 C19 1_555 1_555
C21 C20 1_555 1_555
C22 C21 1_555 1_555
H12 C22 1_555 1_555
C23 C18 1_555 1_555
C24 C21 1_555 1_555
C25 C24 1_555 1_555
H13 C25 1_555 1_555
C26 C25 1_555 1_555
H14 C26 1_555 1_555
C27 N6 1_555 1_555
H15 C27 1_555 1_555
C28 C24 1_555 1_555
H16 C28 1_555 1_555
C29 O11 1_555 1_555
H17 C29 1_555 1_555
H18 C29 1_555 1_555
C30 O12 1_555 1_555
H19 C30 1_555 1_555
H20 C30 1_555 1_555
C31 O13 1_555 1_555
H21 C31 1_555 1_555
H22 C31 1_555 1_555
C32 O14 1_555 1_555
H23 C32 1_555 1_555
H24 C32 1_555 1_555
C33 C34 1_555 1_555
C34 O15 1_555 1_555
Cd1A O5 1_555 1_555
Cd2A O7 1_555 1_555
Cd2_2 O10 1_555 1_555
Cd2C N6 1_555 1_555
O5A Cd1 1_555 1_555
O7A Cd2 1_555 1_555
O10_2 Cd2 1_555 1_555
N3A Cd2 1_555 1_555
N6C Cd2 1_555 1_555
O8 C11 1_555 1_555
N3 Cd2A 1_555 1_555
C1 C5 1_555 1_555
C3 C4 1_555 1_555
C7 C11 1_555 1_555
C9 C10 1_555 1_555
C16 C17 1_555 1_555
C22 C23 1_555 1_555
C27 C28 1_555 1_555
C29 C30 1_555 1_555
C31 C32 1_555 1_555
Cd1A O7A 1_555 1_555

#END
