
#######################################################################
#
#                 Cambridge Crystallographic Data Centre
#                                CCDC 
#
#######################################################################
#
# If this CIF has been generated from an entry in the Cambridge 
# Structural Database, then it will include bibliographic, chemical, 
# crystal, experimental, refinement or atomic coordinate data resulting 
# from the CCDC's data processing and validation procedures.
#
#######################################################################

data_MUJRIT
_chemical_formula_moiety         '(C32 H28 Cd2 N6 O14)n,4n(H2 O1),n(C2 H6 O1)'
_chemical_name_systematic        
'catena-[bis(\m~3~-Pyrazine-2,3-dicarboxylato)-(\m~2~-2,5-bis(2-hydroxyethoxy)-1,4-bis(4-pyridyl)benzene)-diaqua-di-cadmium(ii) ethanol tetrahydrate clathrate]'
_symmetry_cell_setting           monoclinic
_symmetry_space_group_name_H-M   'P 21/c'
_symmetry_Int_Tables_number      14
_space_group_name_Hall           '-P 2ybc'
loop_
_symmetry_equiv_pos_site_id
_symmetry_equiv_pos_as_xyz
1 x,y,z
2 -x,1/2+y,1/2-z
3 -x,-y,-z
4 x,1/2-y,1/2+z
_cell_length_a                   10.6150(11)
_cell_length_b                   14.5889(15)
_cell_length_c                   29.856(3)
_cell_angle_alpha                90
_cell_angle_beta                 90.395(17)
_cell_angle_gamma                90
_cell_volume                     4623.43
_exptl_crystal_colour            colorless
_exptl_crystal_description       block
_cell_formula_units_Z            4
loop_
_atom_site_label
_atom_site_type_symbol
_atom_site_fract_x
_atom_site_fract_y
_atom_site_fract_z
Cd1 Cd 0.64543(3) 0.83375(3) 0.775324(12)
Cd2 Cd 0.18524(3) 1.04127(3) 0.749520(12)
O1 O 0.7093(4) 0.8696(3) 0.70352(15)
O2 O 0.1137(5) 1.0638(4) 0.82321(17)
O3 O 0.4617(4) 0.9203(3) 0.77233(14)
O4 O 0.3754(3) 1.0584(3) 0.78067(14)
O5 O 0.4966(3) 1.2355(3) 0.75899(13)
O6 O 0.4366(4) 1.2373(3) 0.83075(14)
O7 O 0.7843(4) 0.6946(3) 0.76672(16)
O8 O 0.8696(4) 0.8238(3) 0.79057(16)
O9 O 1.1316(6) 0.8820(3) 0.83315(17)
O10 O 1.1202(4) 0.8915(3) 0.75824(15)
N1 N 0.6838(4) 0.9833(3) 0.80579(15)
N2 N 0.7177(6) 1.1679(4) 0.8248(2)
N3 N 1.0064(4) 0.6055(3) 0.77717(14)
N4 N 1.2304(6) 0.6986(4) 0.7932(2)
N5 N 0.5895(9) 0.7673(5) 0.8421(2)
N6 N 0.2472(5) 0.5048(3) 1.17849(16)
C1 C 0.5885(5) 1.0436(3) 0.80023(17)
C2 C 0.6014(5) 1.1365(4) 0.80840(18)
C3 C 0.8151(5) 1.1056(4) 0.8317(2)
H1 H 0.8926 1.1251 0.8428
C4 C 0.7946(5) 1.0139(4) 0.82155(19)
H2 H 0.8599 0.9723 0.8259
C5 C 0.4660(5) 1.0028(4) 0.78258(17)
C6 C 0.5003(5) 1.2073(3) 0.79823(19)
C7 C 1.0065(5) 0.6962(3) 0.78139(18)
C8 C 1.1165(6) 0.7455(4) 0.7893(2)
C9 C 1.2280(5) 0.6055(4) 0.7903(2)
H3 H 1.3020 0.5721 0.7940
C10 C 1.1155(5) 0.5603(4) 0.78177(19)
H4 H 1.1157 0.4968 0.7792
C11 C 0.8780(5) 0.7420(4) 0.7793(2)
C12 C 1.1205(6) 0.8487(5) 0.7945(2)
C13 C 0.5363(11) 0.6863(8) 0.8442(4)
H5 H 0.5279 0.6529 0.8178
C14 C 0.4917(12) 0.6474(11) 0.8837(3)
H6 H 0.4372 0.5975 0.8828
C15 C 0.5297(14) 0.6843(9) 0.9244(4)
C16 C 0.6142(12) 0.7567(9) 0.9230(4)
H7 H 0.6453 0.7816 0.9495
C17 C 0.6525(12) 0.7919(8) 0.8822(3)
H8 H 0.7204 0.8321 0.8812
C18 C 0.4986(9) 0.6012(6) 1.0396(3)
C19 C 0.3698(7) 0.5971(6) 1.0501(2)
C20 C 0.4827(11) 0.6482(11) 0.9664(5)
C21 C 0.5669(13) 0.6297(13) 1.0019(4)
H9 H 0.6541 0.6355 1.0006
C22 C 0.2965(13) 0.6020(12) 1.0116(3)
H10 H 0.2136 0.5814 1.0112
C23 C 0.3525(11) 0.6395(14) 0.9735(3)
C24 C 0.3275(8) 0.5647(5) 1.0941(2)
C25 C 0.3840(7) 0.5959(4) 1.1330(2)
H11 H 0.4506 0.6373 1.1315
C26 C 0.3417(6) 0.5658(4) 1.17412(19)
H12 H 0.3802 0.5886 1.1999
C27 C 0.1925(9) 0.4745(6) 1.1411(2)
H13 H 0.1264 0.4330 1.1434
C28 C 0.2301(10) 0.5023(8) 1.0989(2)
H14 H 0.1897 0.4789 1.0736
O11 O 0.5798(9) 0.5680(6) 1.0699(3)
C29 C 0.7162(10) 0.5741(10) 1.0587(5)
H15 H 0.7452 0.6371 1.0576
H16 H 0.7351 0.5438 1.0307
C30 C 0.7704(14) 0.5236(14) 1.0981(5)
H17 H 0.7456 0.5521 1.1261
H18 H 0.7433 0.4601 1.0982
O12 O 0.9093(13) 0.5308(11) 1.0914(6)
H19 H 0.9317 0.5841 1.0950
O13 O 0.2714(14) 0.6473(19) 0.9387(5)
O14 O 0.0365(18) 0.8205(12) 0.9103(4)
H20 H 0.0626 0.8364 0.8857
C31 C 0.131(2) 0.658(4) 0.9457(19)
H21 H 0.0949 0.5967 0.9441
H22 H 0.1197 0.6790 0.9761
C32 C 0.053(12) 0.7186(17) 0.916(4)
H23 H 0.0761 0.6986 0.8858
H24 H -0.0317 0.6966 0.9201
Cd1A Cd 0.35457(3) 1.33375(3) 0.724676(12)
Cd2A Cd 0.81476(3) 0.54127(3) 0.750480(12)
Cd2_2 Cd 1.18524(3) 1.04127(3) 0.749520(12)
Cd2C Cd 0.18524(3) 0.45873(3) 1.249520(12)
O5A O 0.5034(3) 0.7355(3) 0.74101(13)
O7A O 0.2157(4) 1.1946(3) 0.73328(16)
O10_2 O 0.1202(4) 0.8915(3) 0.75824(15)
N3A N -0.0064(4) 1.1055(3) 0.72283(14)
N6C N 0.2472(5) 0.9952(3) 0.67849(16)
O15 O 0.2687(12) 1.1599(9) 0.8815(3)
C33 C 0.375(5) 1.124(5) 0.910(2)
C34 C 0.500(4) 1.139(4) 0.9334(19)
O16 O 0.9651(6) 0.8305(6) 0.6886(2)
O17 O 0.9884(18) 0.7705(13) 0.6037(5)
O18 O 1.097(5) 0.621(4) 0.5481(16)
O19 O 1.114(4) 0.441(3) 0.5445(13)
C35? C 0.600(2) 0.6987(14) 0.8581(6)
C36? C 0.547(3) 0.6567(15) 0.8955(8)
C37? C 0.4631(18) 0.7077(9) 0.9209(5)
C38? C 0.4273(15) 0.7935(9) 0.9046(5)
C39? C 0.4793(16) 0.8273(10) 0.8652(5)
C40? C 0.4218(14) 0.6710(11) 0.9655(4)
C41? C 0.5123(18) 0.6346(13) 0.9954(4)
C42? C 0.2758(12) 0.6358(12) 1.0209(4)
C43? C 0.2932(14) 0.6736(11) 0.9778(4)
C44? C 0.0740(12) 0.7047(16) 0.9566(6)
C45? C 0.015(3) 0.7194(12) 0.9113(8)
H25? H 0.0655 0.8351 0.8859
H26? H 0.6560 0.6609 0.8431
H27? H 0.5667 0.5966 0.9031
H28? H 0.3685 0.8282 0.9201
H29? H 0.4517 0.8822 0.8527
H30? H 0.5939 0.6322 0.9843
H31? H 0.1938 0.6360 1.0316
H32? H 0.0507 0.7530 0.9773
H33? H 0.0499 0.6459 0.9691
H34? H 0.0592 0.6874 0.8877
H35? H -0.0738 0.7035 0.9106
O20? O 0.2120(11) 0.7075(9) 0.9464(4)
loop_
_geom_bond_atom_site_label_1
_geom_bond_atom_site_label_2
_geom_bond_site_symmetry_1
_geom_bond_site_symmetry_2
Cd1 O1 1_555 1_555
Cd2 O2 1_555 1_555
O3 Cd1 1_555 1_555
O4 Cd2 1_555 1_555
O5 C6 1_555 1_555
O6 C6 1_555 1_555
O7 Cd1 1_555 1_555
O8 Cd1 1_555 1_555
O9 C12 1_555 1_555
O10 C12 1_555 1_555
N1 Cd1 1_555 1_555
N2 C2 1_555 1_555
N3 C7 1_555 1_555
N4 C8 1_555 1_555
N5 Cd1 1_555 1_555
N6 C26 1_555 1_555
C1 N1 1_555 1_555
C2 C1 1_555 1_555
C3 N2 1_555 1_555
H1 C3 1_555 1_555
C4 N1 1_555 1_555
H2 C4 1_555 1_555
C5 O3 1_555 1_555
C6 C2 1_555 1_555
C7 C8 1_555 1_555
C8 C12 1_555 1_555
C9 N4 1_555 1_555
H3 C9 1_555 1_555
C10 N3 1_555 1_555
H4 C10 1_555 1_555
C11 O7 1_555 1_555
C13 N5 1_555 1_555
H5 C13 1_555 1_555
C14 C13 1_555 1_555
H6 C14 1_555 1_555
C15 C14 1_555 1_555
C16 C15 1_555 1_555
H7 C16 1_555 1_555
C17 N5 1_555 1_555
H8 C17 1_555 1_555
C18 C19 1_555 1_555
C19 C22 1_555 1_555
C20 C15 1_555 1_555
C21 C18 1_555 1_555
H9 C21 1_555 1_555
C22 H10 1_555 1_555
C23 C20 1_555 1_555
C24 C19 1_555 1_555
C25 C24 1_555 1_555
H11 C25 1_555 1_555
C26 C25 1_555 1_555
H12 C26 1_555 1_555
C27 N6 1_555 1_555
H13 C27 1_555 1_555
C28 C24 1_555 1_555
H14 C28 1_555 1_555
O11 C18 1_555 1_555
C29 O11 1_555 1_555
H15 C29 1_555 1_555
H16 C29 1_555 1_555
C30 C29 1_555 1_555
H17 C30 1_555 1_555
H18 C30 1_555 1_555
O12 C30 1_555 1_555
H19 O12 1_555 1_555
O13 C23 1_555 1_555
O14 H20 1_555 1_555
C31 O13 1_555 1_555
H21 C31 1_555 1_555
H22 C31 1_555 1_555
C32 O14 1_555 1_555
H23 C32 1_555 1_555
H24 C32 1_555 1_555
O15 C33 1_555 1_555
C33 C34 1_555 1_555
Cd1A O5 1_555 1_555
Cd2A O7 1_555 1_555
Cd2_2 O10 1_555 1_555
Cd2C N6 1_555 1_555
O5A Cd1 1_555 1_555
O7A Cd2 1_555 1_555
O10_2 Cd2 1_555 1_555
N3A Cd2 1_555 1_555
N6C Cd2 1_555 1_555
O4 C5 1_555 1_555
O8 C11 1_555 1_555
N3 Cd2A 1_555 1_555
C1 C5 1_555 1_555
C3 C4 1_555 1_555
C7 C11 1_555 1_555
C9 C10 1_555 1_555
C16 C17 1_555 1_555
C20 C21 1_555 1_555
C22 C23 1_555 1_555
C27 C28 1_555 1_555
C31 C32 1_555 1_555
Cd1A O7A 1_555 1_555

#END
