
#######################################################################
#
#                 Cambridge Crystallographic Data Centre
#                                CCDC 
#
#######################################################################
#
# If this CIF has been generated from an entry in the Cambridge 
# Structural Database, then it will include bibliographic, chemical, 
# crystal, experimental, refinement or atomic coordinate data resulting 
# from the CCDC's data processing and validation procedures.
#
#######################################################################

data_MUJSAM
_chemical_formula_moiety         '(C32 H28 Cd2 N6 O14)n,3n(H2 O1)'
_chemical_name_systematic        
'catena-[bis(\m~3~-Pyrazine-2,3-dicarboxylato)-(\m~2~-2,5-bis(2-hydroxyethoxy)-1,4-bis(4-pyridyl)benzene)-diaqua-di-cadmium(ii) trihydrate clathrate]'
_symmetry_cell_setting           monoclinic
_symmetry_space_group_name_H-M   'P 21/n'
_symmetry_Int_Tables_number      14
_space_group_name_Hall           '-P 2yn'
loop_
_symmetry_equiv_pos_site_id
_symmetry_equiv_pos_as_xyz
1 x,y,z
2 1/2-x,1/2+y,1/2-z
3 -x,-y,-z
4 1/2+x,1/2-y,1/2+z
_cell_length_a                   10.261(2)
_cell_length_b                   14.825(3)
_cell_length_c                   25.931(5)
_cell_angle_alpha                90
_cell_angle_beta                 95.40(3)
_cell_angle_gamma                90
_cell_volume                     3927.1
_exptl_crystal_colour            colorless
_exptl_crystal_description       block
_cell_formula_units_Z            4
loop_
_atom_site_label
_atom_site_type_symbol
_atom_site_fract_x
_atom_site_fract_y
_atom_site_fract_z
Cd1 Cd 0.87952(7) 0.62819(5) 0.71477(3)
Cd2 Cd 0.42394(7) 0.41663(5) 0.76771(3)
O1 O 0.9939(8) 0.6011(6) 0.7979(4)
O2 O 0.3722(10) 0.3403(8) 0.6840(4)
O3 O 0.6976(7) 0.5417(5) 0.7289(3)
O4 O 0.6150(8) 0.4034(5) 0.7326(4)
O5 O 0.7369(7) 0.2204(6) 0.7350(4)
O6 O 0.6126(9) 0.2482(6) 0.6602(4)
O7 O 1.0192(7) 0.7682(5) 0.7091(3)
O8 O 1.0983(7) 0.6353(6) 0.6911(4)
O9 O 1.3622(11) 0.5625(8) 0.7491(5)
O10 O 1.3581(12) 0.5553(8) 0.6654(5)
O11 O 0.3050(11) 1.0417(7) 0.5195(4)
O12 O 0.1966(13) 1.1863(9) 0.5712(5)
H1 H 0.1980 1.1790 0.6026
O13 O 0.3880(17) 0.6750(7) 0.4969(5)
O14 O 0.260(2) 0.5041(14) 0.5211(9)
N1 N 0.9052(8) 0.4788(6) 0.6831(4)
N2 N 0.9237(11) 0.3001(9) 0.6553(5)
N3 N 1.2616(8) 0.8436(6) 0.7065(4)
N4 N 1.4833(10) 0.7372(9) 0.7118(5)
N5 N 0.7512(10) 0.6872(6) 0.6428(4)
N6 N 0.0204(9) 1.0272(6) 0.3466(4)
C1 C 0.8097(10) 0.4193(7) 0.6920(4)
C2 C 0.8128(11) 0.3291(8) 0.6797(5)
C3 C 1.0063(11) 0.4481(8) 0.6596(5)
H4 H 1.0716 0.4886 0.6527
C4 C 1.0191(12) 0.3602(9) 0.6451(5)
H5 H 1.0912 0.3416 0.6287
C5 C 0.6980(10) 0.4586(7) 0.7203(4)
C6 C 0.7117(10) 0.2649(8) 0.6929(5)
C7 C 1.2530(11) 0.7541(8) 0.7044(4)
C8 C 1.3607(11) 0.6990(9) 0.7081(6)
C9 C 1.4911(11) 0.8299(8) 0.7093(5)
H6 H 1.5724 0.8573 0.7086
C10 C 1.3827(10) 0.8811(8) 0.7079(4)
H7 H 1.3907 0.9436 0.7078
C11 C 1.1141(10) 0.7173(7) 0.7009(4)
C12 C 1.3636(16) 0.581(2) 0.7097(7)
C13 C 0.7578(12) 0.7740(8) 0.6289(5)
H8 H 0.8285 0.8084 0.6426
C14 C 0.6633(12) 0.8144(9) 0.5949(5)
H9 H 0.6756 0.8732 0.5839
C15 C 0.5470(14) 0.7666(8) 0.5765(5)
C16 C 0.5459(15) 0.6781(8) 0.5917(6)
H10 H 0.4755 0.6414 0.5802
C17 C 0.6459(14) 0.6436(8) 0.6230(5)
H11 H 0.6401 0.5829 0.6315
C18 C 0.4424(14) 0.8114(8) 0.5422(5)
C19 C 0.4197(14) 0.9059(9) 0.5492(6)
H12 H 0.4658 0.9363 0.5765
C20 C 0.3313(13) 0.9520(9) 0.5163(5)
C21 C 0.2604(13) 0.9053(9) 0.4730(5)
C22 C 0.2792(17) 0.8146(9) 0.4698(5)
H13 H 0.2288 0.7835 0.4439
C23 C 0.3674(17) 0.7654(10) 0.5019(6)
C24 C 0.1748(12) 0.9534(9) 0.4318(5)
C25 C 0.0832(12) 1.0214(10) 0.4384(5)
H14 H 0.0734 1.0448 0.4711
C26 C 0.0095(12) 1.0523(9) 0.3962(5)
H15 H -0.0546 1.0946 0.4018
C27 C 0.1113(13) 0.9636(8) 0.3413(5)
H16 H 0.1240 0.9440 0.3081
C28 C 0.1859(12) 0.9260(8) 0.3821(5)
H17 H 0.2455 0.8810 0.3759
C29 C 0.3746(18) 1.0898(12) 0.5610(8)
H18 H 0.4680 1.0878 0.5578
H19 H 0.3582 1.0634 0.5940
C30 C 0.3233(18) 1.1916(13) 0.5575(7)
H20 H 0.3765 1.2302 0.5813
H21 H 0.3247 1.2150 0.5226
C31 C 0.298(2) 0.6231(12) 0.4600(7)
H22 H 0.2090 0.6453 0.4605
H23 H 0.3234 0.6296 0.4251
C32 C 0.305(3) 0.5279(16) 0.4759(10)
H24 H 0.2577 0.4928 0.4487
H25 H 0.3961 0.5097 0.4773
Cd1A Cd 0.62048(7) 0.12819(5) 0.78523(3)
Cd2A Cd 1.07606(7) 0.91663(5) 0.73229(3)
Cd2_2 Cd 1.42394(7) 0.41663(5) 0.76771(3)
Cd2C Cd -0.07606(7) 1.08337(5) 0.26771(3)
O5A O 0.7631(7) 0.7204(6) 0.7650(4)
O7A O 0.4808(7) 0.2682(5) 0.7909(3)
O9_2 O 0.3622(11) 0.5625(8) 0.7491(5)
N3A N 0.2384(8) 0.3436(6) 0.7935(4)
N6C N 0.5204(9) 0.4728(6) 0.8466(4)
O15 O 0.098(2) 1.3373(14) 0.5158(9)
O16 O 1.2566(12) 0.6627(8) 0.8226(5)
O17 O 0.206(4) 0.603(2) 0.5798(13)
O18 O 1.471(3) 0.4462(19) 0.5933(11)
H2? H 0.3210 0.4878 0.5416
H3? H 0.9309 0.2443 0.6469
O19? O 0.078(3) 0.644(2) 0.5710(11)
loop_
_geom_bond_atom_site_label_1
_geom_bond_atom_site_label_2
_geom_bond_site_symmetry_1
_geom_bond_site_symmetry_2
Cd1 O1 1_555 1_555
Cd2 O2 1_555 1_555
O3 Cd1 1_555 1_555
O4 Cd2 1_555 1_555
O5 C6 1_555 1_555
O6 C6 1_555 1_555
O7 Cd1 1_555 1_555
O8 Cd1 1_555 1_555
O9 C12 1_555 1_555
O10 C12 1_555 1_555
O11 C20 1_555 1_555
O12 H1 1_555 1_555
O13 C23 1_555 1_555
O14 C32 1_555 1_555
N1 Cd1 1_555 1_555
N2 C2 1_555 1_555
N3 C7 1_555 1_555
N4 C8 1_555 1_555
N5 Cd1 1_555 1_555
N6 C26 1_555 1_555
C1 N1 1_555 1_555
C2 C1 1_555 1_555
C3 N1 1_555 1_555
H4 C3 1_555 1_555
C4 N2 1_555 1_555
H5 C4 1_555 1_555
C5 O3 1_555 1_555
C6 C2 1_555 1_555
C7 C8 1_555 1_555
C8 C12 1_555 1_555
C9 N4 1_555 1_555
H6 C9 1_555 1_555
C10 N3 1_555 1_555
H7 C10 1_555 1_555
C11 O7 1_555 1_555
C13 N5 1_555 1_555
H8 C13 1_555 1_555
C14 C13 1_555 1_555
H9 C14 1_555 1_555
C15 C14 1_555 1_555
C16 C15 1_555 1_555
H10 C16 1_555 1_555
C17 N5 1_555 1_555
H11 C17 1_555 1_555
C18 C15 1_555 1_555
C19 C18 1_555 1_555
H12 C19 1_555 1_555
C20 C19 1_555 1_555
C21 C20 1_555 1_555
C22 C21 1_555 1_555
H13 C22 1_555 1_555
C23 C18 1_555 1_555
C24 C21 1_555 1_555
C25 C24 1_555 1_555
H14 C25 1_555 1_555
C26 C25 1_555 1_555
H15 C26 1_555 1_555
C27 N6 1_555 1_555
H16 C27 1_555 1_555
C28 C24 1_555 1_555
H17 C28 1_555 1_555
C29 O11 1_555 1_555
H18 C29 1_555 1_555
H19 C29 1_555 1_555
C30 O12 1_555 1_555
H20 C30 1_555 1_555
H21 C30 1_555 1_555
C31 O13 1_555 1_555
H22 C31 1_555 1_555
H23 C31 1_555 1_555
C32 C31 1_555 1_555
H24 C32 1_555 1_555
H25 C32 1_555 1_555
Cd1A O5 1_555 1_555
Cd2A O7 1_555 1_555
Cd2_2 O9 1_555 1_555
Cd2C N6 1_555 1_555
O5A Cd1 1_555 1_555
O7A Cd2 1_555 1_555
O9_2 Cd2 1_555 1_555
N3A Cd2 1_555 1_555
N6C Cd2 1_555 1_555
O4 C5 1_555 1_555
O8 C11 1_555 1_555
N3 Cd2A 1_555 1_555
C1 C5 1_555 1_555
C3 C4 1_555 1_555
C7 C11 1_555 1_555
C9 C10 1_555 1_555
C16 C17 1_555 1_555
C22 C23 1_555 1_555
C27 C28 1_555 1_555
C29 C30 1_555 1_555
Cd1A O7A 1_555 1_555

#END
