
#######################################################################
#
#                 Cambridge Crystallographic Data Centre
#                                CCDC 
#
#######################################################################
#
# If this CIF has been generated from an entry in the Cambridge 
# Structural Database, then it will include bibliographic, chemical, 
# crystal, experimental, refinement or atomic coordinate data resulting 
# from the CCDC's data processing and validation procedures.
#
#######################################################################

data_VISGOU
_chemical_formula_moiety         '(C60 H140 B50 N8 O30 Zn6)n,n(C5 H11 N1 O1)'
_chemical_name_systematic        
'catena-(tetrakis(\m~4~-1,12-dicarba-closo-dodecaborane-1,12-dicarboxylato)-bis(\m~3~-hydroxo)-(\m~2~-1,12-dicarba-closo-dodecaborane-1,12-dicarboxylato)-octakis(N,N-diethylformamide)-hexa-zinc(ii) N,N-diethylformamide solvate)'
_symmetry_cell_setting           orthorhombic
_symmetry_space_group_name_H-M   'P b c n'
_symmetry_Int_Tables_number      60
_space_group_name_Hall           '-P 2n 2ab'
loop_
_symmetry_equiv_pos_site_id
_symmetry_equiv_pos_as_xyz
1 x,y,z
2 1/2-x,1/2-y,1/2+z
3 -x,y,1/2-z
4 1/2+x,1/2-y,-z
5 -x,-y,-z
6 1/2+x,1/2+y,1/2-z
7 x,-y,1/2+z
8 1/2-x,1/2+y,z
_cell_length_a                   39.356(5)
_cell_length_b                   14.5154(18)
_cell_length_c                   21.629(3)
_cell_angle_alpha                90
_cell_angle_beta                 90
_cell_angle_gamma                90
_cell_volume                     12356
_exptl_crystal_colour            colorless
_exptl_crystal_description       plate
_cell_formula_units_Z            4
loop_
_atom_site_label
_atom_site_type_symbol
_atom_site_fract_x
_atom_site_fract_y
_atom_site_fract_z
Zn1 Zn 0.126915(10) 0.69079(3) 0.026711(17)
Zn2 Zn 0.150792(11) 0.73361(3) 0.170290(18)
Zn3 Zn 0.110530(13) 0.89835(3) 0.08176(2)
B1 B 0.11807(15) 1.0667(4) -0.1597(2)
B2 B 0.15935(13) 1.0265(3) -0.1711(2)
B3 B 0.15757(14) 0.9269(3) -0.2187(2)
B4 B 0.11321(16) 0.9050(4) -0.2360(2)
B5 B 0.08946(13) 0.9920(4) -0.1998(2)
B6 B 0.24362(12) 0.3745(3) 0.1092(2)
B7 B 0.26354(11) 0.4652(3) 0.15006(19)
B8 B 0.28187(12) 0.5423(3) 0.0963(2)
B9 B 0.27390(12) 0.4991(3) 0.0206(2)
B10 B 0.25041(12) 0.3950(3) 0.0287(2)
B11 B 0.13411(16) 0.8409(3) -0.1779(2)
B12 B 0.09230(14) 0.8819(4) -0.1654(3)
B13 B 0.09470(13) 0.9815(4) -0.1192(2)
B14 B 0.13814(13) 1.0025(3) -0.1010(2)
B15 B 0.16246(12) 0.9147(3) -0.1383(2)
B16 B 0.24917(12) 0.5900(3) 0.0501(2)
B17 B 0.24271(11) 0.5685(3) 0.1312(2)
B18 B 0.21934(11) 0.4655(3) 0.1393(2)
B19 B 0.21092(11) 0.4224(3) 0.0631(2)
B20 B 0.22961(12) 0.4994(3) 0.0091(2)
B21 B 0.02067(12) 0.4610(3) 0.0633(2)
B22 B 0.03904(11) 0.4543(3) -0.0121(2)
B23 B -0.02412(12) 0.4506(3) 0.0555(2)
B24 B 0.00355(12) 0.3848(3) 0.0071(2)
B25 B -0.00621(11) 0.5604(3) 0.0659(2)
C1 C 0.13086(10) 1.0773(3) -0.28414(17)
C2 C 0.12912(10) 1.0145(3) -0.22715(16)
C3 C 0.31317(10) 0.3708(3) 0.08704(17)
C4 C 0.27982(10) 0.4261(3) 0.08211(17)
C5 C 0.11860(9) 0.8352(3) -0.05203(16)
C6 C 0.12276(9) 0.8934(3) -0.11072(16)
C7 C 0.17974(9) 0.5927(2) 0.07790(16)
C8 C 0.21295(9) 0.5383(2) 0.07736(16)
C9 C 0.06058(9) 0.6167(3) 0.04622(18)
C10 C 0.03046(9) 0.5586(3) 0.02286(17)
C11 C 0.12605(11) 0.5833(3) 0.24544(19)
H1 H 0.1474 0.5595 0.2328
C12 C 0.07553(14) 0.5695(5) 0.3053(3)
H2 H 0.0757 0.6377 0.3053
H3 H 0.0703 0.5482 0.3477
C13 C 0.0477(2) 0.5335(10) 0.2592(6)
H4 H 0.0499 0.5659 0.2197
H5 H 0.0251 0.5449 0.2766
H6 H 0.0508 0.4672 0.2527
C14 C 0.12219(16) 0.4497(4) 0.3124(3)
H7 H 0.1419 0.4303 0.2873
H8 H 0.1047 0.4009 0.3094
C15 C 0.13303(19) 0.4586(5) 0.3782(3)
H9 H 0.1521 0.5020 0.3810
H10 H 0.1402 0.3982 0.3938
H11 H 0.1140 0.4814 0.4031
C16 C 0.21165(12) 0.7453(3) 0.2514(2)
H12 H 0.2164 0.7961 0.2251
C17 C 0.2230(2) 0.6565(5) 0.3447(3)
H13 H 0.2343 0.6697 0.3846
H14 H 0.1981 0.6567 0.3516
C18 C 0.2327(4) 0.5746(13) 0.3240(6)
H15 H 0.2196 0.5590 0.2869
H16 H 0.2286 0.5281 0.3560
H17 H 0.2569 0.5763 0.3139
C19 C 0.26458(18) 0.7787(6) 0.3053(4)
H18 H 0.2836 0.7344 0.3012
H19 H 0.2668 0.8248 0.2718
C20 C 0.2672(3) 0.8249(8) 0.3641(5)
H20 H 0.2444 0.8385 0.3798
H21 H 0.2799 0.8826 0.3590
H22 H 0.2792 0.7851 0.3936
C21 C 0.1111(3) 1.0994(4) 0.0814(3)
H23 H 0.1150 1.0853 0.1237
C22 C 0.1236(8) 1.2555(7) 0.1047(5)
H24 H 0.1360 1.2208 0.1370
H25 H 0.1418 1.2815 0.0783
C23 C 0.1154(3) 1.3277(6) 0.1357(5)
H26 H 0.1118 1.3793 0.1072
H27 H 0.1337 1.3430 0.1646
H28 H 0.0944 1.3158 0.1588
C24 C 0.1085(7) 1.2176(6) 0.0142(7)
H29 H 0.1028 1.1597 -0.0076
H30 H 0.0865 1.2498 0.0190
C25 C 0.1218(4) 1.2627(7) -0.0276(5)
H31 H 0.1262 1.3256 -0.0131
H32 H 0.1065 1.2647 -0.0633
H33 H 0.1433 1.2338 -0.0397
H34 H 0.1174(17) 1.130(5) -0.154(3)
H35 H 0.1801(15) 1.075(4) -0.181(3)
H36 H 0.1732(14) 0.907(3) -0.252(2)
H37 H 0.1043(13) 0.889(3) -0.277(2)
H38 H 0.0686(15) 1.022(4) -0.213(3)
H39 H 0.2475(11) 0.311(3) 0.1311(19)
H40 H 0.2748(13) 0.450(3) 0.188(2)
H41 H 0.3036(14) 0.577(4) 0.103(2)
H42 H 0.2941(12) 0.505(3) -0.012(2)
H43 H 0.2566(13) 0.335(3) -0.006(2)
H44 H 0.1381(14) 0.760(3) -0.176(2)
H45 H 0.0733(13) 0.839(3) -0.159(2)
H46 H 0.076(2) 0.973(6) -0.094(4)
H47 H 0.1529(15) 1.020(4) -0.060(3)
H48 H 0.1835(11) 0.898(3) -0.112(2)
H49 H 0.2463(11) 0.661(3) 0.0348(19)
H50 H 0.2371(14) 0.627(4) 0.159(2)
H51 H 0.2011(13) 0.462(3) 0.173(2)
H52 H 0.1873(19) 0.403(4) 0.044(3)
H53 H 0.2162(15) 0.519(4) -0.030(2)
H54 H 0.0365(12) 0.435(3) 0.107(2)
H55 H 0.0626(13) 0.431(3) -0.016(2)
H56 H -0.0401(13) 0.416(3) 0.085(2)
H57 H 0.0022(10) 0.312(2) 0.0051(17)
H58 H -0.0044(19) 0.601(4) 0.111(3)
H59 H 0.089(2) 0.746(5) 0.106(4)
N1 N 0.10840(11) 0.5353(3) 0.28663(19)
N2 N 0.23223(12) 0.7293(3) 0.2981(2)
N3 N 0.11368(18) 1.1878(3) 0.0700(2)
O1 O 0.11587(6) 0.76030(16) 0.10220(11)
O2 O 0.14435(12) 1.1516(3) -0.27660(16)
O3 O 0.11832(14) 1.0473(2) -0.33150(16)
O4 O 0.31192(7) 0.3007(2) 0.11850(16)
O5 O 0.33824(8) 0.4048(3) 0.05992(17)
O6 O 0.13522(7) 0.76186(19) -0.04958(12)
O7 O 0.09922(7) 0.8658(2) -0.01153(11)
O8 O 0.16616(7) 0.60692(17) 0.12858(12)
O9 O 0.16908(7) 0.61806(19) 0.02577(12)
O10 O 0.08680(7) 0.61266(19) 0.01165(13)
O11 O 0.05693(8) 0.6605(3) 0.09332(15)
O12 O 0.11663(8) 0.6565(2) 0.22256(14)
O13 O 0.18658(8) 0.6978(2) 0.24005(14)
O14 O 0.10557(14) 1.0373(2) 0.05368(17)
O15 O 0.05831(11) 0.8988(3) 0.0998(2)
Zn1D Zn -0.126915(10) 0.30921(3) -0.026711(17)
Zn1F Zn 0.126915(10) 1.30921(3) 0.526711(17)
Zn1G Zn 0.373085(10) 1.19079(3) 0.026711(17)
Zn2F Zn 0.150792(11) 1.26639(3) -0.329710(18)
Zn2G Zn 0.349208(11) 0.23361(3) 0.170290(18)
Zn2G_2 Zn 0.349208(11) 1.23361(3) 0.170290(18)
Zn2D Zn -0.150792(11) 0.26639(3) -0.170290(18)
Zn3F Zn 0.110530(13) 1.10165(3) -0.41824(2)
Zn3G Zn 0.389470(13) 0.39835(3) 0.08176(2)
Zn3F_2 Zn 0.110530(13) 1.10165(3) 0.58176(2)
Zn3D Zn -0.110530(13) 0.10165(3) -0.08176(2)
B1F B 0.11807(15) 0.9333(4) 0.3403(2)
B2F B 0.15935(13) 0.9735(3) 0.3289(2)
B3F B 0.15757(14) 1.0731(3) 0.2813(2)
B4F B 0.11321(16) 1.0950(4) 0.2640(2)
B5F B 0.08946(13) 1.0080(4) 0.3002(2)
B6G B 0.25638(12) 0.8745(3) 0.1092(2)
B7G B 0.23646(11) 0.9652(3) 0.15006(19)
B8G B 0.21813(12) 1.0423(3) 0.0963(2)
B9G B 0.22610(12) 0.9991(3) 0.0206(2)
B10G B 0.24959(12) 0.8950(3) 0.0287(2)
B11F B 0.13411(16) 1.1591(3) 0.3221(2)
B12F B 0.09230(14) 1.1181(4) 0.3346(3)
B13F B 0.09470(13) 1.0185(4) 0.3808(2)
B14F B 0.13814(13) 0.9975(3) 0.3990(2)
B15F B 0.16246(12) 1.0853(3) 0.3617(2)
B16G B 0.25083(12) 1.0900(3) 0.0501(2)
B17G B 0.25729(11) 1.0685(3) 0.1312(2)
B18G B 0.28066(11) 0.9655(3) 0.1393(2)
B19G B 0.28908(11) 0.9224(3) 0.0631(2)
B20G B 0.27039(12) 0.9994(3) 0.0091(2)
B21D B -0.02067(12) 0.5390(3) -0.0633(2)
B22D B -0.03904(11) 0.5457(3) 0.0121(2)
B23D B 0.02412(12) 0.5494(3) -0.0555(2)
B24D B -0.00355(12) 0.6152(3) -0.0071(2)
B25D B 0.00621(11) 0.4396(3) -0.0659(2)
C1F C 0.13086(10) 0.9227(3) 0.21586(17)
C2F C 0.12912(10) 0.9855(3) 0.27285(16)
C3G C 0.18683(10) 0.8708(3) 0.08704(17)
C4G C 0.22018(10) 0.9261(3) 0.08211(17)
C5F C 0.11860(9) 1.1648(3) 0.44797(16)
C6F C 0.12276(9) 1.1066(3) 0.38928(16)
C7G C 0.32026(9) 1.0927(2) 0.07790(16)
C8G C 0.28705(9) 1.0383(2) 0.07736(16)
C9D C -0.06058(9) 0.3833(3) -0.04622(18)
C10D C -0.03046(9) 0.4414(3) -0.02286(17)
C11F C 0.12605(11) 1.4167(3) -0.25456(19)
H1F H 0.1474 1.4405 -0.2672
C12F C 0.07553(14) 1.4305(5) -0.1947(3)
H2F H 0.0757 1.3623 -0.1947
H3F H 0.0703 1.4518 -0.1523
C13F C 0.0477(2) 1.4665(10) -0.2408(6)
H4F H 0.0499 1.4341 -0.2803
H5F H 0.0251 1.4551 -0.2234
H6F H 0.0508 1.5328 -0.2473
C14F C 0.12219(16) 1.5503(4) -0.1876(3)
H7F H 0.1419 1.5697 -0.2127
H8F H 0.1047 1.5991 -0.1906
C15F C 0.13303(19) 1.5414(5) -0.1218(3)
H9F H 0.1521 1.4980 -0.1190
H10F H 0.1402 1.6018 -0.1062
H11F H 0.1140 1.5186 -0.0969
C16F C 0.21165(12) 1.2547(3) -0.2486(2)
H12F H 0.2164 1.2039 -0.2749
C17F C 0.2230(2) 1.3435(5) -0.1553(3)
H13F H 0.2343 1.3303 -0.1154
H14F H 0.1981 1.3433 -0.1484
C18F C 0.2327(4) 1.4254(13) -0.1760(6)
H15F H 0.2196 1.4410 -0.2131
H16F H 0.2286 1.4719 -0.1440
H17F H 0.2569 1.4237 -0.1861
C19F C 0.26458(18) 1.2213(6) -0.1947(4)
H18F H 0.2836 1.2656 -0.1988
H19F H 0.2668 1.1752 -0.2282
C20F C 0.2672(3) 1.1751(8) -0.1359(5)
H20F H 0.2444 1.1615 -0.1202
H21F H 0.2799 1.1174 -0.1410
H22F H 0.2792 1.2149 -0.1064
C21F C 0.1111(3) 0.9006(4) -0.4186(3)
H23F H 0.1150 0.9147 -0.3763
C22F C 0.1236(8) 0.7445(7) -0.3953(5)
H24F H 0.1360 0.7792 -0.3630
H25F H 0.1418 0.7185 -0.4217
C23F C 0.1154(3) 0.6723(6) -0.3643(5)
H26F H 0.1118 0.6207 -0.3928
H27F H 0.1337 0.6570 -0.3354
H28F H 0.0944 0.6842 -0.3412
C24F C 0.1085(7) 0.7824(6) -0.4858(7)
H29F H 0.1028 0.8403 -0.5076
H30F H 0.0865 0.7502 -0.4810
C25F C 0.1218(4) 0.7373(7) -0.5276(5)
H31F H 0.1262 0.6744 -0.5131
H32F H 0.1065 0.7353 -0.5633
H33F H 0.1433 0.7662 -0.5397
H34F H 0.1174(17) 0.870(5) 0.346(3)
H35F H 0.1801(15) 0.925(4) 0.319(3)
H36F H 0.1732(14) 1.093(3) 0.248(2)
H37F H 0.1043(13) 1.111(3) 0.223(2)
H38F H 0.0686(15) 0.978(4) 0.287(3)
H39G H 0.2525(11) 0.811(3) 0.1311(19)
H40G H 0.2252(13) 0.950(3) 0.188(2)
H41G H 0.1964(14) 1.077(4) 0.103(2)
H42G H 0.2059(12) 1.005(3) -0.012(2)
H43G H 0.2434(13) 0.835(3) -0.006(2)
H44F H 0.1381(14) 1.240(3) 0.324(2)
H45F H 0.0733(13) 1.161(3) 0.341(2)
H46F H 0.076(2) 1.027(6) 0.406(4)
H47F H 0.1529(15) 0.980(4) 0.440(3)
H48F H 0.1835(11) 1.102(3) 0.388(2)
H49G H 0.2537(11) 1.161(3) 0.0348(19)
H50G H 0.2629(14) 1.127(4) 0.159(2)
H51G H 0.2989(13) 0.962(3) 0.173(2)
H52G H 0.3127(19) 0.903(4) 0.044(3)
H53G H 0.2838(15) 1.019(4) -0.030(2)
H54D H -0.0365(12) 0.565(3) -0.107(2)
H55D H -0.0626(13) 0.569(3) 0.016(2)
H56D H 0.0401(13) 0.584(3) -0.085(2)
H57D H -0.0022(10) 0.688(2) -0.0051(17)
H58D H 0.0044(19) 0.399(4) -0.111(3)
H59D H -0.089(2) 0.254(5) -0.106(4)
H59F H 0.089(2) 1.254(5) -0.394(4)
N1F N 0.10840(11) 1.4647(3) -0.21337(19)
N2F N 0.23223(12) 1.2707(3) -0.2019(2)
N3F N 0.11368(18) 0.8122(3) -0.4300(2)
O1D O -0.11587(6) 0.23970(16) -0.10220(11)
O1F O 0.11587(6) 1.23970(16) -0.39780(11)
O2F O 0.14435(12) 0.8484(3) 0.22340(16)
O3F O 0.11832(14) 0.9527(2) 0.16850(16)
O4G O 0.18808(7) 0.8007(2) 0.11850(16)
O4A O 0.18808(7) 1.1993(2) -0.38150(16)
O5G O 0.16176(8) 0.9048(3) 0.05992(17)
O5A O 0.16176(8) 1.0952(3) -0.44008(17)
O6F O 0.13522(7) 1.23814(19) 0.45042(12)
O6D O -0.13522(7) 0.23814(19) 0.04958(12)
O7F O 0.09922(7) 1.1342(2) 0.48847(11)
O7F_2 O 0.09922(7) 1.1342(2) -0.51153(11)
O8G O 0.33384(7) 1.10692(17) 0.12858(12)
O8F O 0.16616(7) 1.39308(17) -0.37142(12)
O9G O 0.33092(7) 1.11806(19) 0.02577(12)
O9D O -0.16908(7) 0.38194(19) -0.02577(12)
O10D O -0.08680(7) 0.38734(19) -0.01165(13)
O11D O -0.05693(8) 0.3395(3) -0.09332(15)
O12F O 0.11663(8) 1.3435(2) -0.27744(14)
O13F O 0.18658(8) 1.3022(2) -0.25995(14)
O14F O 0.10557(14) 0.9627(2) -0.44632(17)
O15F O 0.05831(11) 1.1012(3) -0.4002(2)
loop_
_geom_bond_atom_site_label_1
_geom_bond_atom_site_label_2
_geom_bond_site_symmetry_1
_geom_bond_site_symmetry_2
Zn1 O1 1_555 1_555
Zn2 O1 1_555 1_555
Zn3 O1 1_555 1_555
B1 B2 1_555 1_555
B2 B3 1_555 1_555
B3 B4 1_555 1_555
B4 B5 1_555 1_555
B5 B1 1_555 1_555
B6 B7 1_555 1_555
B7 B8 1_555 1_555
B8 B9 1_555 1_555
B9 B10 1_555 1_555
B10 B6 1_555 1_555
B11 B3 1_555 1_555
B12 B4 1_555 1_555
B13 B1 1_555 1_555
B14 B1 1_555 1_555
B15 B2 1_555 1_555
B16 B8 1_555 1_555
B17 B7 1_555 1_555
B18 B6 1_555 1_555
B19 B6 1_555 1_555
B20 B9 1_555 1_555
B21 B22 1_555 1_555
B22 B24 1_555 1_555
B23 B21 1_555 1_555
B24 B21 1_555 1_555
B25 B21 1_555 1_555
C1 C2 1_555 1_555
C2 B1 1_555 1_555
C3 C4 1_555 1_555
C4 B6 1_555 1_555
C5 C6 1_555 1_555
C6 B11 1_555 1_555
C7 C8 1_555 1_555
C8 B16 1_555 1_555
C9 C10 1_555 1_555
C10 B21 1_555 1_555
C11 H1 1_555 1_555
C12 H2 1_555 1_555
H3 C12 1_555 1_555
C13 C12 1_555 1_555
H4 C13 1_555 1_555
H5 C13 1_555 1_555
H6 C13 1_555 1_555
C14 H7 1_555 1_555
H8 C14 1_555 1_555
C15 C14 1_555 1_555
H9 C15 1_555 1_555
H10 C15 1_555 1_555
H11 C15 1_555 1_555
C16 H12 1_555 1_555
C17 H13 1_555 1_555
H14 C17 1_555 1_555
C18 C17 1_555 1_555
H15 C18 1_555 1_555
H16 C18 1_555 1_555
H17 C18 1_555 1_555
C19 H18 1_555 1_555
H19 C19 1_555 1_555
C20 C19 1_555 1_555
H20 C20 1_555 1_555
H21 C20 1_555 1_555
H22 C20 1_555 1_555
C21 H23 1_555 1_555
C22 H24 1_555 1_555
H25 C22 1_555 1_555
C23 C22 1_555 1_555
H26 C23 1_555 1_555
H27 C23 1_555 1_555
H28 C23 1_555 1_555
C24 H29 1_555 1_555
H30 C24 1_555 1_555
C25 C24 1_555 1_555
H31 C25 1_555 1_555
H32 C25 1_555 1_555
H33 C25 1_555 1_555
H34 B1 1_555 1_555
H35 B2 1_555 1_555
H36 B3 1_555 1_555
H37 B4 1_555 1_555
H38 B5 1_555 1_555
H39 B6 1_555 1_555
H40 B7 1_555 1_555
H41 B8 1_555 1_555
H42 B9 1_555 1_555
H43 B10 1_555 1_555
H44 B11 1_555 1_555
H45 B12 1_555 1_555
H46 B13 1_555 1_555
H47 B14 1_555 1_555
H48 B15 1_555 1_555
H49 B16 1_555 1_555
H50 B17 1_555 1_555
H51 B18 1_555 1_555
H52 B19 1_555 1_555
H53 B20 1_555 1_555
H54 B21 1_555 1_555
H55 B22 1_555 1_555
H56 B23 1_555 1_555
H57 B24 1_555 1_555
H58 B25 1_555 1_555
H59 O1 1_555 1_555
N1 C11 1_555 1_555
N2 C16 1_555 1_555
N3 C21 1_555 1_555
O2 C1 1_555 1_555
O3 C1 1_555 1_555
O4 C3 1_555 1_555
O5 C3 1_555 1_555
O6 Zn1 1_555 1_555
O7 Zn3 1_555 1_555
O8 Zn2 1_555 1_555
O9 Zn1 1_555 1_555
O10 Zn1 1_555 1_555
O11 C9 1_555 1_555
O12 Zn2 1_555 1_555
O13 Zn2 1_555 1_555
O14 Zn3 1_555 1_555
O15 Zn3 1_555 1_555
Zn1D O1D 1_555 1_555
Zn1F O6F 1_555 1_555
Zn1G O9G 1_555 1_555
Zn2F O2 1_555 1_555
Zn2G O4 1_555 1_555
Zn2G_2 O8G 1_555 1_555
Zn2D O1D 1_555 1_555
Zn3F O3 1_555 1_555
Zn3G O5 1_555 1_555
Zn3F_2 O7F 1_555 1_555
Zn3D O1D 1_555 1_555
B1F B2F 1_555 1_555
B2F B3F 1_555 1_555
B3F B4F 1_555 1_555
B4F B5F 1_555 1_555
B5F B1F 1_555 1_555
B6G B7G 1_555 1_555
B7G B8G 1_555 1_555
B8G B9G 1_555 1_555
B9G B10G 1_555 1_555
B10G B6G 1_555 1_555
B11F B3F 1_555 1_555
B12F B4F 1_555 1_555
B13F B1F 1_555 1_555
B14F B1F 1_555 1_555
B15F B2F 1_555 1_555
B16G B8G 1_555 1_555
B17G B7G 1_555 1_555
B18G B6G 1_555 1_555
B19G B6G 1_555 1_555
B20G B9G 1_555 1_555
B21D B22D 1_555 1_555
B22D B23 1_555 1_555
B23D B22 1_555 1_555
B24D B25 1_555 1_555
B25D B22 1_555 1_555
C1F C2F 1_555 1_555
C2F B1F 1_555 1_555
C3G C4G 1_555 1_555
C4G B6G 1_555 1_555
C5F C6F 1_555 1_555
C6F B11F 1_555 1_555
C7G C8G 1_555 1_555
C8G B16G 1_555 1_555
C9D C10D 1_555 1_555
C10D B23 1_555 1_555
C11F H1F 1_555 1_555
C12F H2F 1_555 1_555
H3F C12F 1_555 1_555
C13F C12F 1_555 1_555
H4F C13F 1_555 1_555
H5F C13F 1_555 1_555
H6F C13F 1_555 1_555
C14F H7F 1_555 1_555
H8F C14F 1_555 1_555
C15F C14F 1_555 1_555
H9F C15F 1_555 1_555
H10F C15F 1_555 1_555
H11F C15F 1_555 1_555
C16F H12F 1_555 1_555
C17F H13F 1_555 1_555
H14F C17F 1_555 1_555
C18F C17F 1_555 1_555
H15F C18F 1_555 1_555
H16F C18F 1_555 1_555
H17F C18F 1_555 1_555
C19F H18F 1_555 1_555
H19F C19F 1_555 1_555
C20F C19F 1_555 1_555
H20F C20F 1_555 1_555
H21F C20F 1_555 1_555
H22F C20F 1_555 1_555
C21F H23F 1_555 1_555
C22F H24F 1_555 1_555
H25F C22F 1_555 1_555
C23F C22F 1_555 1_555
H26F C23F 1_555 1_555
H27F C23F 1_555 1_555
H28F C23F 1_555 1_555
C24F H29F 1_555 1_555
H30F C24F 1_555 1_555
C25F C24F 1_555 1_555
H31F C25F 1_555 1_555
H32F C25F 1_555 1_555
H33F C25F 1_555 1_555
H34F B1F 1_555 1_555
H35F B2F 1_555 1_555
H36F B3F 1_555 1_555
H37F B4F 1_555 1_555
H38F B5F 1_555 1_555
H39G B6G 1_555 1_555
H40G B7G 1_555 1_555
H41G B8G 1_555 1_555
H42G B9G 1_555 1_555
H43G B10G 1_555 1_555
H44F B11F 1_555 1_555
H45F B12F 1_555 1_555
H46F B13F 1_555 1_555
H47F B14F 1_555 1_555
H48F B15F 1_555 1_555
H49G B16G 1_555 1_555
H50G B17G 1_555 1_555
H51G B18G 1_555 1_555
H52G B19G 1_555 1_555
H53G B20G 1_555 1_555
H54D B21D 1_555 1_555
H55D B22D 1_555 1_555
H56D B23D 1_555 1_555
H57D B24D 1_555 1_555
H58D B25D 1_555 1_555
H59D O1D 1_555 1_555
H59F O1F 1_555 1_555
N1F C11F 1_555 1_555
N2F C16F 1_555 1_555
N3F C21F 1_555 1_555
O1F Zn2F 1_555 1_555
O2F Zn2 1_555 1_555
O3F Zn3 1_555 1_555
O4G Zn2 1_555 1_555
O4A Zn2F 1_555 1_555
O5G Zn3 1_555 1_555
O5A Zn3F 1_555 1_555
O6F C5F 1_555 1_555
O6D Zn1D 1_555 1_555
O7F C5F 1_555 1_555
O7F_2 Zn3F 1_555 1_555
O8G C7G 1_555 1_555
O8F Zn2F 1_555 1_555
O9G C7G 1_555 1_555
O9D Zn1D 1_555 1_555
O10D Zn1D 1_555 1_555
O11D C9D 1_555 1_555
O12F Zn2F 1_555 1_555
O13F Zn2F 1_555 1_555
O14F Zn3F 1_555 1_555
O15F Zn3F 1_555 1_555
B2 B14 1_555 1_555
B2 C2 1_555 1_555
B3 B15 1_555 1_555
B3 C2 1_555 1_555
B4 B11 1_555 1_555
B4 C2 1_555 1_555
B5 B12 1_555 1_555
B5 B13 1_555 1_555
B5 C2 1_555 1_555
B7 B18 1_555 1_555
B7 C4 1_555 1_555
B8 B17 1_555 1_555
B8 C4 1_555 1_555
B9 B16 1_555 1_555
B9 C4 1_555 1_555
B10 B19 1_555 1_555
B10 B20 1_555 1_555
B10 C4 1_555 1_555
B11 B12 1_555 1_555
B11 B15 1_555 1_555
B12 B13 1_555 1_555
B12 C6 1_555 1_555
B13 B14 1_555 1_555
B13 C6 1_555 1_555
B14 B15 1_555 1_555
B14 C6 1_555 1_555
B15 C6 1_555 1_555
B16 B17 1_555 1_555
B16 B20 1_555 1_555
B17 B18 1_555 1_555
B17 C8 1_555 1_555
B18 B19 1_555 1_555
B18 C8 1_555 1_555
B19 B20 1_555 1_555
B19 C8 1_555 1_555
B20 C8 1_555 1_555
B22 C10 1_555 1_555
B23 B24 1_555 1_555
B23 B25 1_555 1_555
B24 B25D 1_555 1_555
B24 C10D 1_555 1_555
B25 C10 1_555 1_555
B25 B22D 1_555 1_555
C5 O6 1_555 1_555
C5 O7 1_555 1_555
C7 O8 1_555 1_555
C7 O9 1_555 1_555
C9 O10 1_555 1_555
C10 B23D 1_555 1_555
C10 B24D 1_555 1_555
C11 O12 1_555 1_555
C12 N1 1_555 1_555
C14 N1 1_555 1_555
C16 O13 1_555 1_555
C17 N2 1_555 1_555
C19 N2 1_555 1_555
C21 O14 1_555 1_555
C22 N3 1_555 1_555
C24 N3 1_555 1_555
Zn3F O1F 1_555 1_555
B2F B14F 1_555 1_555
B2F C2F 1_555 1_555
B3F B15F 1_555 1_555
B3F C2F 1_555 1_555
B4F B11F 1_555 1_555
B4F C2F 1_555 1_555
B5F B12F 1_555 1_555
B5F B13F 1_555 1_555
B5F C2F 1_555 1_555
B7G B18G 1_555 1_555
B7G C4G 1_555 1_555
B8G B17G 1_555 1_555
B8G C4G 1_555 1_555
B9G B16G 1_555 1_555
B9G C4G 1_555 1_555
B10G B19G 1_555 1_555
B10G B20G 1_555 1_555
B10G C4G 1_555 1_555
B11F B12F 1_555 1_555
B11F B15F 1_555 1_555
B12F B13F 1_555 1_555
B12F C6F 1_555 1_555
B13F B14F 1_555 1_555
B13F C6F 1_555 1_555
B14F B15F 1_555 1_555
B14F C6F 1_555 1_555
B15F C6F 1_555 1_555
B16G B17G 1_555 1_555
B16G B20G 1_555 1_555
B17G B18G 1_555 1_555
B17G C8G 1_555 1_555
B18G B19G 1_555 1_555
B18G C8G 1_555 1_555
B19G B20G 1_555 1_555
B19G C8G 1_555 1_555
B20G C8G 1_555 1_555
B21D B23D 1_555 1_555
B21D B24D 1_555 1_555
B21D B25D 1_555 1_555
B21D C10D 1_555 1_555
B22D B24D 1_555 1_555
B22D C10D 1_555 1_555
B23D B24D 1_555 1_555
B23D B25D 1_555 1_555
B25D C10D 1_555 1_555
C1F O2F 1_555 1_555
C1F O3F 1_555 1_555
C3G O4G 1_555 1_555
C3G O5G 1_555 1_555
C9D O10D 1_555 1_555
C11F O12F 1_555 1_555
C12F N1F 1_555 1_555
C14F N1F 1_555 1_555
C16F O13F 1_555 1_555
C17F N2F 1_555 1_555
C19F N2F 1_555 1_555
C21F O14F 1_555 1_555
C22F N3F 1_555 1_555
C24F N3F 1_555 1_555

#END
