
#######################################################################
#
#                 Cambridge Crystallographic Data Centre
#                                CCDC 
#
#######################################################################
#
# If this CIF has been generated from an entry in the Cambridge 
# Structural Database, then it will include bibliographic, chemical, 
# crystal, experimental, refinement or atomic coordinate data resulting 
# from the CCDC's data processing and validation procedures.
#
#######################################################################

data_MUVGUG
_chemical_formula_moiety         '(C34 H16 N10 Zn1)n,n(C7 H8 O1)'
_chemical_name_systematic        
"catena-((\m~4~-1,2-bis(4-(Dicyanomethylene)cyclohexa-2,5-dien-1-yl)ethane-1,1,2,2-tetracarbonitrile)-(\m~2~-4,4'-bipyridine)-zinc anisole clathrate)"
_symmetry_cell_setting           orthorhombic
_symmetry_space_group_name_H-M   'P c c m'
_symmetry_Int_Tables_number      49
_space_group_name_Hall           '-P 2 2c'
loop_
_symmetry_equiv_pos_site_id
_symmetry_equiv_pos_as_xyz
1 x,y,z
2 -x,-y,z
3 x,-y,1/2-z
4 -x,y,1/2-z
5 -x,-y,-z
6 x,y,-z
7 -x,y,1/2+z
8 x,-y,1/2+z
_cell_length_a                   11.419(4)
_cell_length_b                   12.670(5)
_cell_length_c                   14.752(5)
_cell_angle_alpha                90
_cell_angle_beta                 90
_cell_angle_gamma                90
_cell_volume                     2134.3
_exptl_crystal_colour            colorless
_exptl_crystal_description       prism
_cell_formula_units_Z            2
loop_
_atom_site_label
_atom_site_type_symbol
_atom_site_fract_x
_atom_site_fract_y
_atom_site_fract_z
_atom_site_U_iso_or_equiv
_atom_site_thermal_displace_type
Zn1 Zn 0.5000 0.5000 -0.2500 0.0357 Uani
N1 N 0.1010(4) -0.1357(4) -0.1448(3) 0.1160 Uani
N2 N 0.49872(17) 0.3803(2) -0.14748(18) 0.0484 Uani
N3 N 0.3103(3) 0.5000 -0.2500 0.0374 Uani
C1 C 0.4150(3) 0.3085(2) 0.0000 0.0422 Uani
C2 C 0.0653(3) 0.5000 -0.2500 0.0363 Uani
C6 C 0.2492(2) 0.4116(2) -0.2651(2) 0.0458 Uani
C7 C 0.1281(2) 0.4080(2) -0.2650(2) 0.0451 Uani
C8 C 0.4618(2) 0.3485(2) -0.08041(17) 0.0408 Uani
C9 C 0.3217(3) 0.2316(3) 0.0000 0.0456 Uani
C10 C 0.2757(3) 0.1926(2) -0.0814(2) 0.0608 Uani
C11 C 0.0794(3) -0.0900(2) -0.0804(2) 0.0675 Uani
C12 C 0.0680(6) -0.0236(5) 0.0000 0.0803 Uani
C13 C 0.1571(6) 0.0685(5) 0.0000 0.0847 Uani
C16 C 0.1926(4) 0.1140(4) -0.0810(2) 0.0884 Uani
H1 H 0.0892 0.3445 -0.2748 0.0540 Uiso
H2 H 0.3020 0.2203 -0.1361 0.0730 Uiso
H3 H 0.2903 0.3496 -0.2764 0.0550 Uiso
H4 H 0.1605 0.0909 -0.1355 0.1060 Uiso
N2A N 0.50128(17) 0.6197(2) -0.14748(18) 0.0484 Uani
N2B N 0.49872(17) 0.6197(2) -0.35252(18) 0.0484 Uani
N2C N 0.50128(17) 0.3803(2) -0.35252(18) 0.0484 Uani
N3A N 0.6897(3) 0.5000 -0.2500 0.0374 Uani
C2A C -0.0653(3) 0.5000 -0.2500 0.0363 Uani
C6B C 0.2492(2) 0.5884(2) -0.2349(2) 0.0458 Uani
C7B C 0.1281(2) 0.5920(2) -0.2350(2) 0.0451 Uani
C8E C 0.4618(2) 0.3485(2) 0.08041(17) 0.0408 Uani
C10E C 0.2757(3) 0.1926(2) 0.0814(2) 0.0608 Uani
C11E C 0.0794(3) -0.0900(2) 0.0804(2) 0.0675 Uani
C12A C -0.0680(6) 0.0236(5) 0.0000 0.0803 Uani
C16E C 0.1926(4) 0.1140(4) 0.0810(2) 0.0884 Uani
O1 O 0.1158(14) 0.6247(12) 0.0000 0.3080 Uani
C3 C 0.1568(13) 0.5176(17) 0.0000 0.1413 Uani
C4 C 0.0777(10) 0.4338(9) 0.0000 0.1257 Uani
C5 C 0.0418(14) 0.5464(7) 0.0000 0.0920 Uani
C14 C 0.242(2) 0.614(5) 0.0000 0.2780 Uani
C15 C 0.0006(15) 0.6495(7) 0.0000 0.1847 Uani
C4A C -0.0777(10) 0.5662(9) 0.0000 0.1257 Uani
C5A C -0.0418(14) 0.4536(7) 0.0000 0.0920 Uani
C15A C -0.0006(15) 0.3505(7) 0.0000 0.1847 Uani
C17? C -0.1206(9) 0.3702(10) 0.0000 0.0850 Uani
loop_
_atom_site_aniso_label
_atom_site_aniso_U_11
_atom_site_aniso_U_22
_atom_site_aniso_U_33
_atom_site_aniso_U_23
_atom_site_aniso_U_13
_atom_site_aniso_U_12
Zn1 0.0199 0.056 0.0311 0 0 0
N1 0.139 0.098 0.111 -0.024 0.008 0.006
N2 0.0383 0.0679 0.0389 0.0083 -0.002 -0.0161
N3 0.0198 0.0513 0.0412 -0.0077 0 0
C1 0.0390(17) 0.0479(17) 0.0397(17) 0.0000 0.0000 -0.0182(14)
C2 0.0233 0.0503 0.0354 -0.003 0 0
C6 0.0249 0.054 0.0585 -0.0103 -0.0003 0.0023
C7 0.0255 0.0469 0.0629 -0.0086 -0.0021 -0.0028
C8 0.0342 0.0479 0.0404 -0.0011 -0.0014 -0.0134
C9 0.0395(17) 0.0528(19) 0.0445(18) 0.0000 0.0000 -0.0185(15)
C10 0.063 0.0776 0.0418 0.0006 0.0004 -0.0359
C11 0.058 0.0576 0.087 -0.0112 0.0047 -0.0235
C12 0.078(4) 0.081(3) 0.082(4) 0.0000 0.0000 -0.007(3)
C13 0.085(4) 0.099(4) 0.070(3) 0.0000 0.0000 -0.045(3)
C16 0.091 0.119 0.0552 -0.0081 -0.0006 -0.07
N2A 0.0383 0.0679 0.0389 -0.0083 0.002 -0.0161
N2B 0.0383 0.0679 0.0389 0.0083 0.002 0.0161
N2C 0.0383 0.0679 0.0389 -0.0083 -0.002 0.0161
N3A 0.0198 0.0513 0.0412 0.0077 0 0
C2A 0.0233 0.0503 0.0354 0.003 0 0
C6B 0.0249 0.054 0.0585 -0.0103 0.0003 -0.0023
C7B 0.0255 0.0469 0.0629 -0.0086 0.0021 0.0028
C8E 0.0342(11) 0.0479(12) 0.0404(12) 0.0011(10) 0.0014(9) -0.0134(9)
C10E 0.0630(18) 0.0776(19) 0.0418(14) -0.0006(13) -0.0004(12) -0.0359(16)
C11E 0.0580(17) 0.0576(16) 0.087(2) 0.0112(17) -0.0047(16) -0.0235(15)
C12A 0.078 0.081 0.082 0 0 -0.007
C16E 0.091(2) 0.119(3) 0.0552(19) 0.0081(19) 0.0006(18) -0.070(2)
O1 0.7 0.13 0.094 0 0 0.02
C3 0.107(16) 0.26(3) 0.057(8) 0.0000 0.0000 -0.046(17)
C4 0.152(9) 0.154(9) 0.071(4) 0.0000 0.0000 0.077(8)
C5 0.125 0.106 0.045 0 0 0.045
C14 0.085 0.68 0.069 0 0 0.09
C15 0.13 0.33 0.094 0 0 0.02
C4A 0.152 0.154 0.071 0 0 0.077
C5A 0.125(13) 0.106(10) 0.045(5) 0.0000 0.0000 0.045(10)
C15A 0.13(2) 0.33(7) 0.094(17) 0.0000 0.0000 0.02(2)
C17? 0.051(6) 0.119(16) 0.085(12) 0.0000 0.0000 0.006(7)
loop_
_geom_bond_atom_site_label_1
_geom_bond_atom_site_label_2
_geom_bond_site_symmetry_1
_geom_bond_site_symmetry_2
Zn1 N2 1_555 1_555
O1 C3 1_555 1_555
N1 C11 1_555 1_555
N2 C8 1_555 1_555
N3 Zn1 1_555 1_555
C1 C8 1_555 1_555
C2 C7 1_555 1_555
C3 C4 1_555 1_555
C4 C5 1_555 1_555
C5 O1 1_555 1_555
C6 N3 1_555 1_555
C7 C6 1_555 1_555
C9 C1 1_555 1_555
C10 C9 1_555 1_555
C11 C12 1_555 1_555
C12 C13 1_555 1_555
C13 C16 1_555 1_555
C14 O1 1_555 1_555
C15 O1 1_555 1_555
C16 C10 1_555 1_555
H1 C7 1_555 1_555
H2 C10 1_555 1_555
H3 C6 1_555 1_555
H4 C16 1_555 1_555
N2A Zn1 1_555 1_555
N2B Zn1 1_555 1_555
N2C Zn1 1_555 1_555
N3A Zn1 1_555 1_555
C2A C2 1_555 1_555
C4A C5 1_555 1_555
C5A C4 1_555 1_555
C6B N3 1_555 1_555
C7B C2 1_555 1_555
C8E C1 1_555 1_555
C10E C9 1_555 1_555
C11E C12 1_555 1_555
C12A C12 1_555 1_555
C15A C4 1_555 1_555
C16E C13 1_555 1_555
C3 C5 1_555 1_555
C3 C14 1_555 1_555
C5 C15 1_555 1_555
C5 C5A 1_555 1_555
C15 C4A 1_555 1_555
C4A C5A 1_555 1_555
C5A C15A 1_555 1_555
C6B C7B 1_555 1_555
C10E C16E 1_555 1_555

#END
