
#######################################################################
#
#                 Cambridge Crystallographic Data Centre
#                                CCDC 
#
#######################################################################
#
# If this CIF has been generated from an entry in the Cambridge 
# Structural Database, then it will include bibliographic, chemical, 
# crystal, experimental, refinement or atomic coordinate data resulting 
# from the CCDC's data processing and validation procedures.
#
#######################################################################

data_MUVHER
_chemical_formula_moiety         '(C34 H16 N10 Zn1)n,n(C8 H10)'
_chemical_name_systematic        
"catena-((\m~4~-1,2-bis(4-(Dicyanomethylene)cyclohexa-2,5-dien-1-yl)ethane-1,1,2,2-tetracarbonitrile)-(\m~2~-4,4'-bipyridine)-zinc p-xylene clathrate)"
_symmetry_cell_setting           orthorhombic
_symmetry_space_group_name_H-M   'P c c m'
_symmetry_Int_Tables_number      49
_space_group_name_Hall           '-P 2 2c'
loop_
_symmetry_equiv_pos_site_id
_symmetry_equiv_pos_as_xyz
1 x,y,z
2 -x,-y,z
3 x,-y,1/2-z
4 -x,y,1/2-z
5 -x,-y,-z
6 x,y,-z
7 -x,y,1/2+z
8 x,-y,1/2+z
_cell_length_a                   11.3749(17)
_cell_length_b                   12.7239(19)
_cell_length_c                   14.801(2)
_cell_angle_alpha                90
_cell_angle_beta                 90
_cell_angle_gamma                90
_cell_volume                     2142.19
_exptl_crystal_colour            colorless
_exptl_crystal_description       prism
_cell_formula_units_Z            2
loop_
_atom_site_label
_atom_site_type_symbol
_atom_site_fract_x
_atom_site_fract_y
_atom_site_fract_z
Zn1 Zn 0.0000 0.0000 -0.2500
N1 N -0.4040(3) 0.6383(2) -0.1428(3)
N2 N -0.0019(2) 0.11900(17) -0.14706(15)
N3 N 0.1886(2) 0.0000 -0.2500
C1 C -0.1764(3) 0.2701(3) 0.0000
C2 C -0.0392(2) 0.15061(19) -0.08053(18)
C3 C -0.4330(4) 0.5206(3) 0.0000
C4 C -0.4181(3) 0.5888(2) -0.0806(2)
C5 C 0.3716(2) 0.0916(2) -0.23648(19)
C6 C 0.2497(2) 0.0884(2) -0.23727(19)
C8 C -0.3431(4) 0.4322(3) 0.0000
C9 C -0.2219(2) 0.3108(2) -0.0807(2)
C10 C 0.4350(2) 0.0000 -0.2500
C11 C -0.3023(3) 0.3903(2) -0.0804(2)
C12 C -0.0852(3) 0.1903(2) 0.0000
H1 H 0.4113 0.1564 -0.2268
H2 H 0.2076 0.1520 -0.2283
H3 H -0.1961 0.2825 -0.1367
H4 H -0.3307 0.4174 -0.1361
Zn1_2 Zn -1.0000 1.0000 -0.2500
Zn1D Zn -1.0000 1.0000 0.2500
Zn1D_2 Zn 0.0000 0.0000 0.2500
Zn1_3 Zn 1.0000 0.0000 -0.2500
N1A N -0.5960(3) 0.3617(2) -0.1428(3)
N1D N -0.5960(3) 0.3617(2) 0.1428(3)
N1E N -0.4040(3) 0.6383(2) 0.1428(3)
N2A N -0.9981(2) 0.88100(17) -0.14706(15)
N2D N -0.9981(2) 0.88100(17) 0.14706(15)
N2E N -0.0019(2) 0.11900(17) 0.14706(15)
N2A_2 N 0.0019(2) -0.11900(17) -0.14706(15)
N2B N -0.0019(2) -0.11900(17) -0.35294(15)
N2C N 0.0019(2) 0.11900(17) -0.35294(15)
N3A N 0.8114(2) 0.0000 -0.2500
N3A_2 N -0.1886(2) 0.0000 -0.2500
C1A C -0.8236(3) 0.7299(3) 0.0000
C2A C -0.9608(2) 0.84939(19) -0.08053(18)
C2D C -0.9608(2) 0.84939(19) 0.08053(18)
C2E C -0.0392(2) 0.15061(19) 0.08053(18)
C3A C -0.5670(4) 0.4794(3) 0.0000
C4A C -0.5819(3) 0.4112(2) -0.0806(2)
C4D C -0.5819(3) 0.4112(2) 0.0806(2)
C4E C -0.4181(3) 0.5888(2) 0.0806(2)
C5B C 0.3716(2) -0.0916(2) -0.26352(19)
C5A C 0.6284(2) -0.0916(2) -0.23648(19)
C5C C 0.6284(2) 0.0916(2) -0.26352(19)
C6B C 0.2497(2) -0.0884(2) -0.26273(19)
C6A C 0.7503(2) -0.0884(2) -0.23727(19)
C6C C 0.7503(2) 0.0884(2) -0.26273(19)
C8A C -0.6569(4) 0.5678(3) 0.0000
C9A C -0.7781(2) 0.6892(2) -0.0807(2)
C9D C -0.7781(2) 0.6892(2) 0.0807(2)
C9E C -0.2219(2) 0.3108(2) 0.0807(2)
C10A C 0.5650(2) 0.0000 -0.2500
C11A C -0.6977(3) 0.6097(2) -0.0804(2)
C11D C -0.6977(3) 0.6097(2) 0.0804(2)
C11E C -0.3023(3) 0.3903(2) 0.0804(2)
C12A C -0.9148(3) 0.8097(2) 0.0000
H1B H 0.4113 -0.1564 -0.2732
H1C H 0.5887 0.1564 -0.2732
H1A H 0.5887 -0.1564 -0.2268
H2B H 0.2076 -0.1520 -0.2717
H2C H 0.7924 0.1520 -0.2717
H2A H 0.7924 -0.1520 -0.2283
H3D H -0.8039 0.7175 0.1367
H3A H -0.8039 0.7175 -0.1367
H3E H -0.1961 0.2825 0.1367
H4D H -0.6693 0.5826 0.1361
H4A H -0.6693 0.5826 -0.1361
H4E H -0.3307 0.4174 0.1361
C7 C 0.7150(7) -0.1230(8) 0.000000(10)
C13 C 0.6039(5) -0.0581(5) 0.0000
C14 C 0.4963(6) -0.1059(4) 0.000000(10)
C15 C 0.6053(5) 0.0485(5) 0.000000(10)
H5 H 0.4925 -0.1805 0.0000
H6 H 0.6785 0.0845 0.0000
H9 H 0.7003 -0.1875 -0.0303
C7A C 0.2850(7) 0.1230(8) 0.000000(10)
C13A C 0.3961(5) 0.0581(5) 0.0000
C14A C 0.5037(6) 0.1059(4) 0.000000(10)
C15A C 0.3947(5) -0.0485(5) 0.000000(10)
H5A H 0.5075 0.1805 0.0000
H6A H 0.3215 -0.0845 0.0000
H9A H 0.2997 0.1875 -0.0303
H9D H 0.2997 0.1875 0.0303
H9E H 0.7003 -0.1875 0.0303
H7? H 0.7382 -0.1368 0.0605
H8? H 0.7760 -0.0861 -0.0303
loop_
_geom_bond_atom_site_label_1
_geom_bond_atom_site_label_2
_geom_bond_site_symmetry_1
_geom_bond_site_symmetry_2
Zn1 N2 1_555 1_555
N1 C4 1_555 1_555
N2 C2 1_555 1_555
N3 Zn1 1_555 1_555
C1 C9 1_555 1_555
C2 C12 1_555 1_555
C3 C4 1_555 1_555
C5 C6 1_555 1_555
C6 N3 1_555 1_555
C7 C13 1_555 1_555
C8 C3 1_555 1_555
C9 C11 1_555 1_555
C10 C5 1_555 1_555
C11 C8 1_555 1_555
C12 C1 1_555 1_555
C13 C14 1_555 1_555
C14 H5 1_555 1_555
C15 C13 1_555 1_555
H1 C5 1_555 1_555
H2 C6 1_555 1_555
H3 C9 1_555 1_555
H4 C11 1_555 1_555
H6 C15 1_555 1_555
H9 C7 1_555 1_555
Zn1_2 N2A 1_555 1_555
Zn1D N2D 1_555 1_555
Zn1D_2 N2E 1_555 1_555
Zn1_3 N3A 1_555 1_555
N1A C4A 1_555 1_555
N1D C4D 1_555 1_555
N1E C4E 1_555 1_555
N2A C2A 1_555 1_555
N2D C2D 1_555 1_555
N2E C2E 1_555 1_555
N2A_2 Zn1 1_555 1_555
N2B Zn1 1_555 1_555
N2C Zn1 1_555 1_555
N3A C6A 1_555 1_555
N3A_2 Zn1 1_555 1_555
C1A C9A 1_555 1_555
C2A C12A 1_555 1_555
C2D C12A 1_555 1_555
C2E C12 1_555 1_555
C3A C3 1_555 1_555
C4A C3A 1_555 1_555
C4D C3A 1_555 1_555
C4E C3 1_555 1_555
C5B C10 1_555 1_555
C5A C6A 1_555 1_555
C5C C6C 1_555 1_555
C6B N3 1_555 1_555
C6A H2A 1_555 1_555
C6C N3A 1_555 1_555
C7A C13A 1_555 1_555
C8A C3A 1_555 1_555
C9A C11A 1_555 1_555
C9D C1A 1_555 1_555
C9E C1 1_555 1_555
C10A C10 1_555 1_555
C11A C8A 1_555 1_555
C11D C8A 1_555 1_555
C11E C8 1_555 1_555
C12A C1A 1_555 1_555
C13A C14A 1_555 1_555
C14A C15 1_555 1_555
C15A C14 1_555 1_555
H1B C5B 1_555 1_555
H1C C5C 1_555 1_555
H1A C5A 1_555 1_555
H2B C6B 1_555 1_555
H2C C6C 1_555 1_555
H3D C9D 1_555 1_555
H3A C9A 1_555 1_555
H3E C9E 1_555 1_555
H4D C11D 1_555 1_555
H4A C11A 1_555 1_555
H4E C11E 1_555 1_555
H5A C14A 1_555 1_555
H6A C15A 1_555 1_555
H9A C7A 1_555 1_555
H9D C7A 1_555 1_555
H9E C7 1_555 1_555
C5B C6B 1_555 1_555
C5A C10A 1_555 1_555
C5C C10A 1_555 1_555
C9D C11D 1_555 1_555
C9E C11E 1_555 1_555
C13A C15A 1_555 1_555

#END
