
#######################################################################
#
#                 Cambridge Crystallographic Data Centre
#                                CCDC 
#
#######################################################################
#
# If this CIF has been generated from an entry in the Cambridge 
# Structural Database, then it will include bibliographic, chemical, 
# crystal, experimental, refinement or atomic coordinate data resulting 
# from the CCDC's data processing and validation procedures.
#
#######################################################################

data_ACOCUS
_chemical_name_common            DUT-49(Zn)
_chemical_formula_moiety         '(C40 H24 N2 O10 Zn2)n,5.3n(C5 H9 N1 O1)'
_chemical_name_systematic        
"catena-[(\m~8~-9,9'-Biphenyl-4,4'-diylbis(9H-carbazole-3,6-dicarboxylato))-diaqua-di-zinc(ii) N-methyl-2-pyrrolidone solvate]"
_symmetry_cell_setting           cubic
_symmetry_space_group_name_H-M   'F m -3 m'
_symmetry_Int_Tables_number      225
_space_group_name_Hall           '-F 4 2 3'
loop_
_symmetry_equiv_pos_site_id
_symmetry_equiv_pos_as_xyz
1 x,y,z
2 -y,x,z
3 -x,-y,z
4 y,-x,z
5 x,-y,-z
6 y,x,-z
7 -x,y,-z
8 -y,-x,-z
9 z,x,y
10 -x,z,y
11 -z,-x,y
12 x,-z,y
13 z,-x,-y
14 x,z,-y
15 -z,x,-y
16 -x,-z,-y
17 y,z,x
18 -z,-y,-x
19 -z,y,x
20 z,y,-x
21 z,-y,x
22 y,-z,-x
23 -y,-z,x
24 -y,z,-x
25 x,1/2+y,1/2+z
26 -y,1/2+x,1/2+z
27 -x,1/2-y,1/2+z
28 y,1/2-x,1/2+z
29 x,1/2-y,1/2-z
30 y,1/2+x,1/2-z
31 -x,1/2+y,1/2-z
32 -y,1/2-x,1/2-z
33 z,1/2+x,1/2+y
34 -x,1/2+z,1/2+y
35 -z,1/2-x,1/2+y
36 x,1/2-z,1/2+y
37 z,1/2-x,1/2-y
38 x,1/2+z,1/2-y
39 -z,1/2+x,1/2-y
40 -x,1/2-z,1/2-y
41 y,1/2+z,1/2+x
42 -z,1/2-y,1/2-x
43 -z,1/2+y,1/2+x
44 z,1/2+y,1/2-x
45 z,1/2-y,1/2+x
46 y,1/2-z,1/2-x
47 -y,1/2-z,1/2+x
48 -y,1/2+z,1/2-x
49 1/2+x,y,1/2+z
50 1/2-y,x,1/2+z
51 1/2-x,-y,1/2+z
52 1/2+y,-x,1/2+z
53 1/2+x,-y,1/2-z
54 1/2+y,x,1/2-z
55 1/2-x,y,1/2-z
56 1/2-y,-x,1/2-z
57 1/2+z,x,1/2+y
58 1/2-x,z,1/2+y
59 1/2-z,-x,1/2+y
60 1/2+x,-z,1/2+y
61 1/2+z,-x,1/2-y
62 1/2+x,z,1/2-y
63 1/2-z,x,1/2-y
64 1/2-x,-z,1/2-y
65 1/2+y,z,1/2+x
66 1/2-z,-y,1/2-x
67 1/2-z,y,1/2+x
68 1/2+z,y,1/2-x
69 1/2+z,-y,1/2+x
70 1/2+y,-z,1/2-x
71 1/2-y,-z,1/2+x
72 1/2-y,z,1/2-x
73 1/2+x,1/2+y,z
74 1/2-y,1/2+x,z
75 1/2-x,1/2-y,z
76 1/2+y,1/2-x,z
77 1/2+x,1/2-y,-z
78 1/2+y,1/2+x,-z
79 1/2-x,1/2+y,-z
80 1/2-y,1/2-x,-z
81 1/2+z,1/2+x,y
82 1/2-x,1/2+z,y
83 1/2-z,1/2-x,y
84 1/2+x,1/2-z,y
85 1/2+z,1/2-x,-y
86 1/2+x,1/2+z,-y
87 1/2-z,1/2+x,-y
88 1/2-x,1/2-z,-y
89 1/2+y,1/2+z,x
90 1/2-z,1/2-y,-x
91 1/2-z,1/2+y,x
92 1/2+z,1/2+y,-x
93 1/2+z,1/2-y,x
94 1/2+y,1/2-z,-x
95 1/2-y,1/2-z,x
96 1/2-y,1/2+z,-x
97 -x,-y,-z
98 y,-x,-z
99 x,y,-z
100 -y,x,-z
101 -x,y,z
102 -y,-x,z
103 x,-y,z
104 y,x,z
105 -z,-x,-y
106 x,-z,-y
107 z,x,-y
108 -x,z,-y
109 -z,x,y
110 -x,-z,y
111 z,-x,y
112 x,z,y
113 -y,-z,-x
114 z,y,x
115 z,-y,-x
116 -z,-y,x
117 -z,y,-x
118 -y,z,x
119 y,z,-x
120 y,-z,x
121 -x,1/2-y,1/2-z
122 y,1/2-x,1/2-z
123 x,1/2+y,1/2-z
124 -y,1/2+x,1/2-z
125 -x,1/2+y,1/2+z
126 -y,1/2-x,1/2+z
127 x,1/2-y,1/2+z
128 y,1/2+x,1/2+z
129 -z,1/2-x,1/2-y
130 x,1/2-z,1/2-y
131 z,1/2+x,1/2-y
132 -x,1/2+z,1/2-y
133 -z,1/2+x,1/2+y
134 -x,1/2-z,1/2+y
135 z,1/2-x,1/2+y
136 x,1/2+z,1/2+y
137 -y,1/2-z,1/2-x
138 z,1/2+y,1/2+x
139 z,1/2-y,1/2-x
140 -z,1/2-y,1/2+x
141 -z,1/2+y,1/2-x
142 -y,1/2+z,1/2+x
143 y,1/2+z,1/2-x
144 y,1/2-z,1/2+x
145 1/2-x,-y,1/2-z
146 1/2+y,-x,1/2-z
147 1/2+x,y,1/2-z
148 1/2-y,x,1/2-z
149 1/2-x,y,1/2+z
150 1/2-y,-x,1/2+z
151 1/2+x,-y,1/2+z
152 1/2+y,x,1/2+z
153 1/2-z,-x,1/2-y
154 1/2+x,-z,1/2-y
155 1/2+z,x,1/2-y
156 1/2-x,z,1/2-y
157 1/2-z,x,1/2+y
158 1/2-x,-z,1/2+y
159 1/2+z,-x,1/2+y
160 1/2+x,z,1/2+y
161 1/2-y,-z,1/2-x
162 1/2+z,y,1/2+x
163 1/2+z,-y,1/2-x
164 1/2-z,-y,1/2+x
165 1/2-z,y,1/2-x
166 1/2-y,z,1/2+x
167 1/2+y,z,1/2-x
168 1/2+y,-z,1/2+x
169 1/2-x,1/2-y,-z
170 1/2+y,1/2-x,-z
171 1/2+x,1/2+y,-z
172 1/2-y,1/2+x,-z
173 1/2-x,1/2+y,z
174 1/2-y,1/2-x,z
175 1/2+x,1/2-y,z
176 1/2+y,1/2+x,z
177 1/2-z,1/2-x,-y
178 1/2+x,1/2-z,-y
179 1/2+z,1/2+x,-y
180 1/2-x,1/2+z,-y
181 1/2-z,1/2+x,y
182 1/2-x,1/2-z,y
183 1/2+z,1/2-x,y
184 1/2+x,1/2+z,y
185 1/2-y,1/2-z,-x
186 1/2+z,1/2+y,x
187 1/2+z,1/2-y,-x
188 1/2-z,1/2-y,x
189 1/2-z,1/2+y,-x
190 1/2-y,1/2+z,x
191 1/2+y,1/2+z,-x
192 1/2+y,1/2-z,x
_cell_length_a                   46.806(5)
_cell_length_b                   46.806(5)
_cell_length_c                   46.806(5)
_cell_angle_alpha                90
_cell_angle_beta                 90
_cell_angle_gamma                90
_cell_volume                     102543
_exptl_crystal_colour            colorless
_exptl_crystal_description       cubic
_cell_formula_units_Z            24
loop_
_atom_site_label
_atom_site_type_symbol
_atom_site_fract_x
_atom_site_fract_y
_atom_site_fract_z
Zn1 Zn 0.5000 1.000000(11) 0.8537
Zn2 Zn 0.5000 1.000000(12) 0.7903
O1 O 0.45731(5) 1.0000 0.84603(5)
O2 O 0.45752(6) 1.0000 0.79821(5)
O3 O 0.50000(10) 1.0000 0.7478
O4 O 0.50000(10) 1.0000 0.8963
N1 N 0.3252 1.00000(5) 0.82520(5)
C1 C 0.4453 1.00000(8) 0.82190(7)
C2 C 0.4131 1.00000(7) 0.82180(7)
C3 C 0.3981 1.00000(7) 0.84760(7)
H1 H 0.4077 1.0000 0.8649
C4 C 0.3687 1.00000(6) 0.84660(7)
C5 C 0.3543 1.00000(8) 0.81990(8)
C6 C 0.3692 1.00000(8) 0.79430(9)
H2 H 0.3597 1.0000 0.7768
C7 C 0.3982 1.00000(8) 0.79580(9)
H3 H 0.4086 1.0000 0.7789
C8 C 0.3030 1.00000(8) 0.80300(8)
C9 C 0.30217(16) 0.97813(12) 0.78431(13)
H4 H 0.3151 0.9631 0.7852
C10 C 0.28008(16) 0.97950(13) 0.76294(12)
H5 H 0.2793 0.9648 0.7496
C11 C 0.2610 1.00000(7) 0.76100(7)
Zn1OB Zn 0.3537 1.000000(11) 1.0000
Zn1Q Zn 0.1463 1.000000(11) 0.5000
Zn1CA Zn 0.000000(11) 1.0000 0.6463
Zn2OB Zn 0.2903 1.000000(12) 1.0000
Zn2Q Zn 0.2097 1.000000(12) 0.5000
Zn2CA Zn 0.000000(12) 1.0000 0.7097
O1PB O 0.34603(5) 1.0000 0.95731(5)
O1Q O 0.15397(5) 1.0000 0.54269(5)
O1BB O 0.04269(5) 1.0000 0.65397(5)
O1B O 0.54269(5) 1.0000 0.84603(5)
O1WB O 0.5000 1.04269(5) 0.84603(5)
O1UB O 0.5000 0.95731(5) 0.84603(5)
O2PB O 0.29821(5) 1.0000 0.95752(6)
O2Q O 0.20179(5) 1.0000 0.54248(6)
O2BB O 0.04248(6) 1.0000 0.70179(5)
O2B O 0.54248(6) 1.0000 0.79821(5)
O2WB O 0.5000 1.04248(6) 0.79821(5)
O2UB O 0.5000 0.95752(6) 0.79821(5)
N1Q N 0.17480(5) 1.00000(5) 0.6748
C1PB C 0.32190(7) 1.00000(8) 0.9453
C1Q C 0.17810(7) 1.00000(8) 0.5547
C1BB C 0.0547 1.00000(8) 0.67810(7)
C2PB C 0.32180(7) 1.00000(7) 0.9131
C2Q C 0.17820(7) 1.00000(7) 0.5869
C2BB C 0.0869 1.00000(7) 0.67820(7)
C3PB C 0.34760(7) 1.00000(7) 0.8981
C3Q C 0.15240(7) 1.00000(7) 0.6019
C3BB C 0.1019 1.00000(7) 0.65240(7)
H1Q H 0.1351 1.0000 0.5923
H1BB H 0.0923 1.0000 0.6351
H1PB H 0.3649 1.0000 0.9077
C4PB C 0.34660(7) 1.00000(6) 0.8687
C4Q C 0.15340(7) 1.00000(6) 0.6313
C4BB C 0.1313 1.00000(6) 0.65340(7)
C5PB C 0.31990(8) 1.00000(8) 0.8543
C5Q C 0.18010(8) 1.00000(8) 0.6457
C5BB C 0.1457 1.00000(8) 0.68010(8)
C6PB C 0.29430(9) 1.00000(8) 0.8692
C6Q C 0.20570(9) 1.00000(8) 0.6308
C6BB C 0.1308 1.00000(8) 0.70570(9)
H2Q H 0.2232 1.0000 0.6403
H2BB H 0.1403 1.0000 0.7232
H2PB H 0.2768 1.0000 0.8597
C7PB C 0.29580(9) 1.00000(8) 0.8982
C7Q C 0.20420(9) 1.00000(8) 0.6018
C7BB C 0.1018 1.00000(8) 0.70420(9)
H3Q H 0.2211 1.0000 0.5914
H3BB H 0.0914 1.0000 0.7211
H3PB H 0.2789 1.0000 0.9086
C8Q C 0.19700(8) 1.00000(8) 0.6970
C9EF C 0.28431(13) 0.97813(12) 0.80217(16)
C9PB C 0.28431(13) 1.02187(12) 0.80217(16)
C9XC C 0.30217(16) 1.02187(12) 0.78431(13)
C9Q C 0.21569(13) 1.02187(12) 0.69783(16)
C9BB C 0.19783(16) 0.97813(12) 0.71569(13)
C9LD C 0.21569(13) 0.97813(12) 0.69783(16)
C9NE C 0.19783(16) 1.02187(12) 0.71569(13)
H4XC H 0.3151 1.0369 0.7852
H4PB H 0.2852 1.0369 0.8151
H4EF H 0.2852 0.9631 0.8151
H4BB H 0.1849 0.9631 0.7148
H4NE H 0.1849 1.0369 0.7148
H4LD H 0.2148 0.9631 0.6849
H4Q H 0.2148 1.0369 0.6849
C10XC C 0.28008(16) 1.02050(13) 0.76294(12)
C10PB C 0.26294(12) 1.02050(13) 0.78008(16)
C10EF C 0.26294(12) 0.97950(13) 0.78008(16)
C10Q C 0.23706(12) 1.02050(13) 0.71992(16)
C10BB C 0.21992(16) 0.97950(13) 0.73706(12)
C10LD C 0.23706(12) 0.97950(13) 0.71992(16)
C10NE C 0.21992(16) 1.02050(13) 0.73706(12)
H5PB H 0.2496 1.0352 0.7793
H5XC H 0.2793 1.0352 0.7496
H5EF H 0.2496 0.9648 0.7793
H5NE H 0.2207 1.0352 0.7504
H5BB H 0.2207 0.9648 0.7504
H5LD H 0.2504 0.9648 0.7207
H5Q H 0.2504 1.0352 0.7207
C11Q C 0.23900(7) 1.00000(7) 0.7390
loop_
_geom_bond_atom_site_label_1
_geom_bond_atom_site_label_2
_geom_bond_site_symmetry_1
_geom_bond_site_symmetry_2
Zn1 O1 1_555 1_555
Zn2 O2 1_555 1_555
O1 C1 1_555 1_555
O2 C1 1_555 1_555
O3 Zn2 1_555 1_555
O4 Zn1 1_555 1_555
N1 C5 1_555 1_555
C1 C2 1_555 1_555
C2 C3 1_555 1_555
C3 H1 1_555 1_555
C4 C3 1_555 1_555
C5 C4 1_555 1_555
C6 C5 1_555 1_555
H2 C6 1_555 1_555
C7 C2 1_555 1_555
H3 C7 1_555 1_555
C8 N1 1_555 1_555
C9 C8 1_555 1_555
H4 C9 1_555 1_555
C10 C9 1_555 1_555
H5 C10 1_555 1_555
C11 C10 1_555 1_555
Zn1OB O1PB 1_555 1_555
Zn1Q O1Q 1_555 1_555
Zn1CA O1BB 1_555 1_555
Zn2OB O2PB 1_555 1_555
Zn2Q O2Q 1_555 1_555
Zn2CA O2BB 1_555 1_555
O1PB C1PB 1_555 1_555
O1Q C1Q 1_555 1_555
O1BB C1BB 1_555 1_555
O1B Zn1 1_555 1_555
O1WB Zn1 1_555 1_555
O1UB Zn1 1_555 1_555
O2PB C1PB 1_555 1_555
O2Q C1Q 1_555 1_555
O2BB C1BB 1_555 1_555
O2B Zn2 1_555 1_555
O2WB Zn2 1_555 1_555
O2UB Zn2 1_555 1_555
N1Q C5Q 1_555 1_555
C1PB C2PB 1_555 1_555
C1Q C2Q 1_555 1_555
C1BB C2BB 1_555 1_555
C2PB C3PB 1_555 1_555
C2Q C3Q 1_555 1_555
C2BB C3BB 1_555 1_555
C3PB H1PB 1_555 1_555
C3Q H1Q 1_555 1_555
C3BB H1BB 1_555 1_555
C4PB C4 1_555 1_555
C4Q C3Q 1_555 1_555
C4BB C3BB 1_555 1_555
C5PB N1 1_555 1_555
C5Q C4Q 1_555 1_555
C5BB N1Q 1_555 1_555
C6PB C5PB 1_555 1_555
C6Q C5Q 1_555 1_555
C6BB C5BB 1_555 1_555
H2Q C6Q 1_555 1_555
H2BB C6BB 1_555 1_555
H2PB C6PB 1_555 1_555
C7PB C2PB 1_555 1_555
C7Q C2Q 1_555 1_555
C7BB C2BB 1_555 1_555
H3Q C7Q 1_555 1_555
H3BB C7BB 1_555 1_555
H3PB C7PB 1_555 1_555
C8Q N1Q 1_555 1_555
C9EF C8 1_555 1_555
C9PB C8 1_555 1_555
C9XC C8 1_555 1_555
C9Q C8Q 1_555 1_555
C9BB C8Q 1_555 1_555
C9LD C8Q 1_555 1_555
C9NE C8Q 1_555 1_555
H4XC C9XC 1_555 1_555
H4PB C9PB 1_555 1_555
H4EF C9EF 1_555 1_555
H4BB C9BB 1_555 1_555
H4NE C9NE 1_555 1_555
H4LD C9LD 1_555 1_555
H4Q C9Q 1_555 1_555
C10XC C11 1_555 1_555
C10PB C11 1_555 1_555
C10EF C10 1_555 1_555
C10Q C9Q 1_555 1_555
C10BB C9BB 1_555 1_555
C10LD C9LD 1_555 1_555
C10NE C9NE 1_555 1_555
H5PB C10PB 1_555 1_555
H5XC C10XC 1_555 1_555
H5EF C10EF 1_555 1_555
H5NE C10NE 1_555 1_555
H5BB C10BB 1_555 1_555
H5LD C10LD 1_555 1_555
H5Q C10Q 1_555 1_555
C11Q C11 1_555 1_555
C6 C7 1_555 1_555
C9 C9EF 1_555 1_555
C11 C10EF 1_555 1_555
C3PB C4PB 1_555 1_555
C4PB C5PB 1_555 1_555
C4Q C4BB 1_555 1_555
C4BB C5BB 1_555 1_555
C6PB C7PB 1_555 1_555
C6Q C7Q 1_555 1_555
C6BB C7BB 1_555 1_555
C9EF C10EF 1_555 1_555
C9PB C9XC 1_555 1_555
C9PB C10PB 1_555 1_555
C9XC C10XC 1_555 1_555
C9Q C9NE 1_555 1_555
C9BB C9LD 1_555 1_555
C10XC C10PB 1_555 1_555
C10Q C10NE 1_555 1_555
C10Q C11Q 1_555 1_555
C10BB C10LD 1_555 1_555
C10BB C11Q 1_555 1_555
C10LD C11Q 1_555 1_555
C10NE C11Q 1_555 1_555

#END
