
#######################################################################
#
#                 Cambridge Crystallographic Data Centre
#                                CCDC 
#
#######################################################################
#
# If this CIF has been generated from an entry in the Cambridge 
# Structural Database, then it will include bibliographic, chemical, 
# crystal, experimental, refinement or atomic coordinate data resulting 
# from the CCDC's data processing and validation procedures.
#
#######################################################################

data_ACOCOM
_chemical_name_common            DUT-49(Cu)
_chemical_formula_moiety         '(C40 H24 Cu2 N2 O10)n,5.2n(C5 H9 N1 O1)'
_chemical_name_systematic        
"catena-[(\m~8~-9,9'-Biphenyl-4,4'-diylbis(9H-carbazole-3,6-dicarboxylato))-diaqua-di-copper(ii) N-methyl-2-pyrrolidone solvate]"
_symmetry_cell_setting           cubic
_symmetry_space_group_name_H-M   'F m -3 m'
_symmetry_Int_Tables_number      225
_space_group_name_Hall           '-F 4 2 3'
loop_
_symmetry_equiv_pos_site_id
_symmetry_equiv_pos_as_xyz
1 x,y,z
2 -y,x,z
3 -x,-y,z
4 y,-x,z
5 x,-y,-z
6 y,x,-z
7 -x,y,-z
8 -y,-x,-z
9 z,x,y
10 -x,z,y
11 -z,-x,y
12 x,-z,y
13 z,-x,-y
14 x,z,-y
15 -z,x,-y
16 -x,-z,-y
17 y,z,x
18 -z,-y,-x
19 -z,y,x
20 z,y,-x
21 z,-y,x
22 y,-z,-x
23 -y,-z,x
24 -y,z,-x
25 x,1/2+y,1/2+z
26 -y,1/2+x,1/2+z
27 -x,1/2-y,1/2+z
28 y,1/2-x,1/2+z
29 x,1/2-y,1/2-z
30 y,1/2+x,1/2-z
31 -x,1/2+y,1/2-z
32 -y,1/2-x,1/2-z
33 z,1/2+x,1/2+y
34 -x,1/2+z,1/2+y
35 -z,1/2-x,1/2+y
36 x,1/2-z,1/2+y
37 z,1/2-x,1/2-y
38 x,1/2+z,1/2-y
39 -z,1/2+x,1/2-y
40 -x,1/2-z,1/2-y
41 y,1/2+z,1/2+x
42 -z,1/2-y,1/2-x
43 -z,1/2+y,1/2+x
44 z,1/2+y,1/2-x
45 z,1/2-y,1/2+x
46 y,1/2-z,1/2-x
47 -y,1/2-z,1/2+x
48 -y,1/2+z,1/2-x
49 1/2+x,y,1/2+z
50 1/2-y,x,1/2+z
51 1/2-x,-y,1/2+z
52 1/2+y,-x,1/2+z
53 1/2+x,-y,1/2-z
54 1/2+y,x,1/2-z
55 1/2-x,y,1/2-z
56 1/2-y,-x,1/2-z
57 1/2+z,x,1/2+y
58 1/2-x,z,1/2+y
59 1/2-z,-x,1/2+y
60 1/2+x,-z,1/2+y
61 1/2+z,-x,1/2-y
62 1/2+x,z,1/2-y
63 1/2-z,x,1/2-y
64 1/2-x,-z,1/2-y
65 1/2+y,z,1/2+x
66 1/2-z,-y,1/2-x
67 1/2-z,y,1/2+x
68 1/2+z,y,1/2-x
69 1/2+z,-y,1/2+x
70 1/2+y,-z,1/2-x
71 1/2-y,-z,1/2+x
72 1/2-y,z,1/2-x
73 1/2+x,1/2+y,z
74 1/2-y,1/2+x,z
75 1/2-x,1/2-y,z
76 1/2+y,1/2-x,z
77 1/2+x,1/2-y,-z
78 1/2+y,1/2+x,-z
79 1/2-x,1/2+y,-z
80 1/2-y,1/2-x,-z
81 1/2+z,1/2+x,y
82 1/2-x,1/2+z,y
83 1/2-z,1/2-x,y
84 1/2+x,1/2-z,y
85 1/2+z,1/2-x,-y
86 1/2+x,1/2+z,-y
87 1/2-z,1/2+x,-y
88 1/2-x,1/2-z,-y
89 1/2+y,1/2+z,x
90 1/2-z,1/2-y,-x
91 1/2-z,1/2+y,x
92 1/2+z,1/2+y,-x
93 1/2+z,1/2-y,x
94 1/2+y,1/2-z,-x
95 1/2-y,1/2-z,x
96 1/2-y,1/2+z,-x
97 -x,-y,-z
98 y,-x,-z
99 x,y,-z
100 -y,x,-z
101 -x,y,z
102 -y,-x,z
103 x,-y,z
104 y,x,z
105 -z,-x,-y
106 x,-z,-y
107 z,x,-y
108 -x,z,-y
109 -z,x,y
110 -x,-z,y
111 z,-x,y
112 x,z,y
113 -y,-z,-x
114 z,y,x
115 z,-y,-x
116 -z,-y,x
117 -z,y,-x
118 -y,z,x
119 y,z,-x
120 y,-z,x
121 -x,1/2-y,1/2-z
122 y,1/2-x,1/2-z
123 x,1/2+y,1/2-z
124 -y,1/2+x,1/2-z
125 -x,1/2+y,1/2+z
126 -y,1/2-x,1/2+z
127 x,1/2-y,1/2+z
128 y,1/2+x,1/2+z
129 -z,1/2-x,1/2-y
130 x,1/2-z,1/2-y
131 z,1/2+x,1/2-y
132 -x,1/2+z,1/2-y
133 -z,1/2+x,1/2+y
134 -x,1/2-z,1/2+y
135 z,1/2-x,1/2+y
136 x,1/2+z,1/2+y
137 -y,1/2-z,1/2-x
138 z,1/2+y,1/2+x
139 z,1/2-y,1/2-x
140 -z,1/2-y,1/2+x
141 -z,1/2+y,1/2-x
142 -y,1/2+z,1/2+x
143 y,1/2+z,1/2-x
144 y,1/2-z,1/2+x
145 1/2-x,-y,1/2-z
146 1/2+y,-x,1/2-z
147 1/2+x,y,1/2-z
148 1/2-y,x,1/2-z
149 1/2-x,y,1/2+z
150 1/2-y,-x,1/2+z
151 1/2+x,-y,1/2+z
152 1/2+y,x,1/2+z
153 1/2-z,-x,1/2-y
154 1/2+x,-z,1/2-y
155 1/2+z,x,1/2-y
156 1/2-x,z,1/2-y
157 1/2-z,x,1/2+y
158 1/2-x,-z,1/2+y
159 1/2+z,-x,1/2+y
160 1/2+x,z,1/2+y
161 1/2-y,-z,1/2-x
162 1/2+z,y,1/2+x
163 1/2+z,-y,1/2-x
164 1/2-z,-y,1/2+x
165 1/2-z,y,1/2-x
166 1/2-y,z,1/2+x
167 1/2+y,z,1/2-x
168 1/2+y,-z,1/2+x
169 1/2-x,1/2-y,-z
170 1/2+y,1/2-x,-z
171 1/2+x,1/2+y,-z
172 1/2-y,1/2+x,-z
173 1/2-x,1/2+y,z
174 1/2-y,1/2-x,z
175 1/2+x,1/2-y,z
176 1/2+y,1/2+x,z
177 1/2-z,1/2-x,-y
178 1/2+x,1/2-z,-y
179 1/2+z,1/2+x,-y
180 1/2-x,1/2+z,-y
181 1/2-z,1/2+x,y
182 1/2-x,1/2-z,y
183 1/2+z,1/2-x,y
184 1/2+x,1/2+z,y
185 1/2-y,1/2-z,-x
186 1/2+z,1/2+y,x
187 1/2+z,1/2-y,-x
188 1/2-z,1/2-y,x
189 1/2-z,1/2+y,-x
190 1/2-y,1/2+z,x
191 1/2+y,1/2+z,-x
192 1/2+y,1/2-z,x
_cell_length_a                   46.588(5)
_cell_length_b                   46.588(5)
_cell_length_c                   46.588(5)
_cell_angle_alpha                90
_cell_angle_beta                 90
_cell_angle_gamma                90
_cell_volume                     101117
_exptl_crystal_colour            green
_exptl_crystal_description       cubic
_cell_formula_units_Z            24
loop_
_atom_site_label
_atom_site_type_symbol
_atom_site_fract_x
_atom_site_fract_y
_atom_site_fract_z
Cu1 Cu 0.5000 1.000000(14) 0.8505
Cu2 Cu 0.5000 1.000000(15) 0.7940
O1 O 0.54211(5) 1.0000 0.84618(4)
O2 O 0.54195(5) 1.0000 0.79804(5)
O3 O 0.50000(10) 1.0000 0.7465
O4 O 0.50000(9) 1.0000 0.8976
N1 N 0.67453(6) 1.00000(6) 0.8255
C1 C 0.55388(8) 1.00000(8) 0.8225
C2 C 0.58593(8) 1.00000(8) 0.8218
C3 C 0.60171(7) 1.00000(7) 0.8474
H1 H 0.5920 1.0000 0.8648
C4 C 0.63079(7) 1.00000(7) 0.8472
C5 C 0.64526(8) 1.00000(8) 0.8202
C6 C 0.62960(10) 1.00000(9) 0.7945
H2 H 0.6390 1.0000 0.7769
C7 C 0.60105(9) 1.00000(8) 0.7956
H3 H 0.5907 1.0000 0.7785
C8 C 0.69679(9) 1.00000(9) 0.8032
C9 C 0.69850(15) 1.02349(14) 0.78532(17)
H4 H 0.6864 1.0392 0.7874
C10 C 0.71988(16) 1.02236(13) 0.76347(13)
H5 H 0.7212 1.0373 0.7502
C11 C 0.7384 1.00000(8) 0.76160(8)
Cu1MB Cu 0.6495 1.000000(14) 1.0000
Cu1S Cu 0.8505 1.000000(14) 0.5000
Cu1CA Cu 1.000000(14) 1.0000 0.6495
Cu2MB Cu 0.7060 1.000000(15) 1.0000
Cu2S Cu 0.7940 1.000000(15) 0.5000
Cu2CA Cu 1.000000(15) 1.0000 0.7060
O1MB O 0.65382(4) 1.0000 0.95789(5)
O1T O 0.84618(4) 1.0000 0.54211(5)
O1BB O 0.95789(5) 1.0000 0.65382(4)
O1B O 0.45789(5) 1.0000 0.84618(4)
O1UB O 0.5000 1.04211(5) 0.84618(4)
O1WB O 0.5000 0.95789(5) 0.84618(4)
O2MB O 0.70196(5) 1.0000 0.95805(5)
O2T O 0.79804(5) 1.0000 0.54195(5)
O2BB O 0.95805(5) 1.0000 0.70196(5)
O2B O 0.45805(5) 1.0000 0.79804(5)
O2UB O 0.5000 1.04195(5) 0.79804(5)
O2WB O 0.5000 0.95805(5) 0.79804(5)
N1T N 0.8255 1.00000(6) 0.67453(6)
C1MB C 0.6775 1.00000(8) 0.94612(8)
C1T C 0.8225 1.00000(8) 0.55388(8)
C1BB C 0.94612(8) 1.00000(8) 0.6775
C2MB C 0.6782 1.00000(8) 0.91407(8)
C2T C 0.8218 1.00000(8) 0.58593(8)
C2BB C 0.91407(8) 1.00000(8) 0.6782
C3MB C 0.6526 1.00000(7) 0.89829(7)
C3T C 0.8474 1.00000(7) 0.60171(7)
C3BB C 0.89829(7) 1.00000(7) 0.6526
H1T H 0.8648 1.0000 0.5920
H1BB H 0.9080 1.0000 0.6352
H1MB H 0.6352 1.0000 0.9080
C4MB C 0.6528 1.00000(7) 0.86921(7)
C4T C 0.8472 1.00000(7) 0.63079(7)
C4BB C 0.86921(7) 1.00000(7) 0.6528
C5MB C 0.6798 1.00000(8) 0.85474(8)
C5T C 0.8202 1.00000(8) 0.64526(8)
C5BB C 0.85474(8) 1.00000(8) 0.6798
C6MB C 0.7055 1.00000(9) 0.87040(10)
C6T C 0.7945 1.00000(9) 0.62960(10)
C6BB C 0.87040(10) 1.00000(9) 0.7055
H2T H 0.7769 1.0000 0.6390
H2BB H 0.8610 1.0000 0.7231
H2MB H 0.7231 1.0000 0.8610
C7MB C 0.7044 1.00000(8) 0.89895(9)
C7T C 0.7956 1.00000(8) 0.60105(9)
C7BB C 0.89895(9) 1.00000(8) 0.7044
H3T H 0.7785 1.0000 0.5907
H3BB H 0.9093 1.0000 0.7215
H3MB H 0.7215 1.0000 0.9093
C8T C 0.8032 1.00000(9) 0.69679(9)
C9HF C 0.71468(17) 1.02349(14) 0.80150(15)
C9MB C 0.71468(17) 0.97651(14) 0.80150(15)
C9XC C 0.69850(15) 0.97651(14) 0.78532(17)
C9T C 0.78532(17) 0.97651(14) 0.69850(15)
C9BB C 0.80150(15) 1.02349(14) 0.71468(17)
C9ID C 0.78532(17) 1.02349(14) 0.69850(15)
C9NE C 0.80150(15) 0.97651(14) 0.71468(17)
H4XC H 0.6864 0.9608 0.7874
H4MB H 0.7126 0.9608 0.8136
H4HF H 0.7126 1.0392 0.8136
H4BB H 0.8136 1.0392 0.7126
H4NE H 0.8136 0.9608 0.7126
H4ID H 0.7874 1.0392 0.6864
H4T H 0.7874 0.9608 0.6864
C10XC C 0.71988(16) 0.97764(13) 0.76347(13)
C10MB C 0.73653(13) 0.97764(13) 0.78012(16)
C10HF C 0.73653(13) 1.02236(13) 0.78012(16)
C10T C 0.76347(13) 0.97764(13) 0.71988(16)
C10BB C 0.78012(16) 1.02236(13) 0.73653(13)
C10ID C 0.76347(13) 1.02236(13) 0.71988(16)
C10NE C 0.78012(16) 0.97764(13) 0.73653(13)
H5MB H 0.7498 0.9627 0.7788
H5XC H 0.7212 0.9627 0.7502
H5HF H 0.7498 1.0373 0.7788
H5NE H 0.7788 0.9627 0.7498
H5BB H 0.7788 1.0373 0.7498
H5ID H 0.7502 1.0373 0.7212
H5T H 0.7502 0.9627 0.7212
C11T C 0.76160(8) 1.00000(8) 0.7384
loop_
_geom_bond_atom_site_label_1
_geom_bond_atom_site_label_2
_geom_bond_site_symmetry_1
_geom_bond_site_symmetry_2
Cu1 O1 1_555 1_555
Cu2 O2 1_555 1_555
O1 C1 1_555 1_555
O2 C1 1_555 1_555
O3 Cu2 1_555 1_555
O4 Cu1 1_555 1_555
N1 C5 1_555 1_555
C1 C2 1_555 1_555
C2 C3 1_555 1_555
C3 H1 1_555 1_555
C4 C3 1_555 1_555
C5 C4 1_555 1_555
C6 C5 1_555 1_555
H2 C6 1_555 1_555
C7 C2 1_555 1_555
H3 C7 1_555 1_555
C8 N1 1_555 1_555
C9 C8 1_555 1_555
H4 C9 1_555 1_555
C10 C9 1_555 1_555
H5 C10 1_555 1_555
C11 C10 1_555 1_555
Cu1MB O1MB 1_555 1_555
Cu1S O1T 1_555 1_555
Cu1CA O1BB 1_555 1_555
Cu2MB O2MB 1_555 1_555
Cu2S O2T 1_555 1_555
Cu2CA O2BB 1_555 1_555
O1MB C1MB 1_555 1_555
O1T C1T 1_555 1_555
O1BB C1BB 1_555 1_555
O1B Cu1 1_555 1_555
O1UB Cu1 1_555 1_555
O1WB Cu1 1_555 1_555
O2MB C1MB 1_555 1_555
O2T C1T 1_555 1_555
O2BB C1BB 1_555 1_555
O2B Cu2 1_555 1_555
O2UB Cu2 1_555 1_555
O2WB Cu2 1_555 1_555
N1T C5T 1_555 1_555
C1MB C2MB 1_555 1_555
C1T C2T 1_555 1_555
C1BB C2BB 1_555 1_555
C2MB C3MB 1_555 1_555
C2T C3T 1_555 1_555
C2BB C3BB 1_555 1_555
C3MB H1MB 1_555 1_555
C3T H1T 1_555 1_555
C3BB H1BB 1_555 1_555
C4MB C4 1_555 1_555
C4T C3T 1_555 1_555
C4BB C3BB 1_555 1_555
C5MB N1 1_555 1_555
C5T C4T 1_555 1_555
C5BB N1T 1_555 1_555
C6MB C5MB 1_555 1_555
C6T C5T 1_555 1_555
C6BB C5BB 1_555 1_555
H2T C6T 1_555 1_555
H2BB C6BB 1_555 1_555
H2MB C6MB 1_555 1_555
C7MB C2MB 1_555 1_555
C7T C2T 1_555 1_555
C7BB C2BB 1_555 1_555
H3T C7T 1_555 1_555
H3BB C7BB 1_555 1_555
H3MB C7MB 1_555 1_555
C8T N1T 1_555 1_555
C9HF C8 1_555 1_555
C9MB C8 1_555 1_555
C9XC C8 1_555 1_555
C9T C8T 1_555 1_555
C9BB C8T 1_555 1_555
C9ID C8T 1_555 1_555
C9NE C8T 1_555 1_555
H4XC C9XC 1_555 1_555
H4MB C9MB 1_555 1_555
H4HF C9HF 1_555 1_555
H4BB C9BB 1_555 1_555
H4NE C9NE 1_555 1_555
H4ID C9ID 1_555 1_555
H4T C9T 1_555 1_555
C10XC C11 1_555 1_555
C10MB C11 1_555 1_555
C10HF C10 1_555 1_555
C10T C9T 1_555 1_555
C10BB C9BB 1_555 1_555
C10ID C9ID 1_555 1_555
C10NE C9NE 1_555 1_555
H5MB C10MB 1_555 1_555
H5XC C10XC 1_555 1_555
H5HF C10HF 1_555 1_555
H5NE C10NE 1_555 1_555
H5BB C10BB 1_555 1_555
H5ID C10ID 1_555 1_555
H5T C10T 1_555 1_555
C11T C11 1_555 1_555
C6 C7 1_555 1_555
C9 C9HF 1_555 1_555
C11 C10HF 1_555 1_555
C3MB C4MB 1_555 1_555
C4MB C5MB 1_555 1_555
C4T C4BB 1_555 1_555
C4BB C5BB 1_555 1_555
C6MB C7MB 1_555 1_555
C6T C7T 1_555 1_555
C6BB C7BB 1_555 1_555
C9HF C10HF 1_555 1_555
C9MB C9XC 1_555 1_555
C9MB C10MB 1_555 1_555
C9XC C10XC 1_555 1_555
C9T C9NE 1_555 1_555
C9BB C9ID 1_555 1_555
C10XC C10MB 1_555 1_555
C10T C10NE 1_555 1_555
C10T C11T 1_555 1_555
C10BB C10ID 1_555 1_555
C10BB C11T 1_555 1_555
C10ID C11T 1_555 1_555
C10NE C11T 1_555 1_555

#END
