
#######################################################################
#
#                 Cambridge Crystallographic Data Centre
#                                CCDC 
#
#######################################################################
#
# If this CIF has been generated from an entry in the Cambridge 
# Structural Database, then it will include bibliographic, chemical, 
# crystal, experimental, refinement or atomic coordinate data resulting 
# from the CCDC's data processing and validation procedures.
#
#######################################################################

data_ACODAZ
_chemical_name_common            DUT-49(Co)
_chemical_formula_moiety         '(C40 H24 Co2 N2 O10)n,4.6n(C5 H9 N1 O1)'
_chemical_name_systematic        
"catena-[(\m~8~-9,9'-Biphenyl-4,4'-diylbis(9H-carbazole-3,6-dicarboxylato))-diaqua-di-cobalt(ii) N-methyl-2-pyrrolidone solvate]"
_symmetry_cell_setting           cubic
_symmetry_space_group_name_H-M   'F m -3 m'
_symmetry_Int_Tables_number      225
_space_group_name_Hall           '-F 4 2 3'
loop_
_symmetry_equiv_pos_site_id
_symmetry_equiv_pos_as_xyz
1 x,y,z
2 -x,-y,z
3 -x,y,-z
4 x,-y,-z
5 z,x,y
6 z,-x,-y
7 -z,-x,y
8 -z,x,-y
9 y,z,x
10 -y,z,-x
11 y,-z,-x
12 -y,-z,x
13 y,x,-z
14 -y,-x,-z
15 y,-x,z
16 -y,x,z
17 x,z,-y
18 -x,z,y
19 -x,-z,-y
20 x,-z,y
21 z,y,-x
22 z,-y,x
23 -z,y,x
24 -z,-y,-x
25 x,1/2+y,1/2+z
26 -x,1/2-y,1/2+z
27 -x,1/2+y,1/2-z
28 x,1/2-y,1/2-z
29 z,1/2+x,1/2+y
30 z,1/2-x,1/2-y
31 -z,1/2-x,1/2+y
32 -z,1/2+x,1/2-y
33 y,1/2+z,1/2+x
34 -y,1/2+z,1/2-x
35 y,1/2-z,1/2-x
36 -y,1/2-z,1/2+x
37 y,1/2+x,1/2-z
38 -y,1/2-x,1/2-z
39 y,1/2-x,1/2+z
40 -y,1/2+x,1/2+z
41 x,1/2+z,1/2-y
42 -x,1/2+z,1/2+y
43 -x,1/2-z,1/2-y
44 x,1/2-z,1/2+y
45 z,1/2+y,1/2-x
46 z,1/2-y,1/2+x
47 -z,1/2+y,1/2+x
48 -z,1/2-y,1/2-x
49 1/2+x,y,1/2+z
50 1/2-x,-y,1/2+z
51 1/2-x,y,1/2-z
52 1/2+x,-y,1/2-z
53 1/2+z,x,1/2+y
54 1/2+z,-x,1/2-y
55 1/2-z,-x,1/2+y
56 1/2-z,x,1/2-y
57 1/2+y,z,1/2+x
58 1/2-y,z,1/2-x
59 1/2+y,-z,1/2-x
60 1/2-y,-z,1/2+x
61 1/2+y,x,1/2-z
62 1/2-y,-x,1/2-z
63 1/2+y,-x,1/2+z
64 1/2-y,x,1/2+z
65 1/2+x,z,1/2-y
66 1/2-x,z,1/2+y
67 1/2-x,-z,1/2-y
68 1/2+x,-z,1/2+y
69 1/2+z,y,1/2-x
70 1/2+z,-y,1/2+x
71 1/2-z,y,1/2+x
72 1/2-z,-y,1/2-x
73 1/2+x,1/2+y,z
74 1/2-x,1/2-y,z
75 1/2-x,1/2+y,-z
76 1/2+x,1/2-y,-z
77 1/2+z,1/2+x,y
78 1/2+z,1/2-x,-y
79 1/2-z,1/2-x,y
80 1/2-z,1/2+x,-y
81 1/2+y,1/2+z,x
82 1/2-y,1/2+z,-x
83 1/2+y,1/2-z,-x
84 1/2-y,1/2-z,x
85 1/2+y,1/2+x,-z
86 1/2-y,1/2-x,-z
87 1/2+y,1/2-x,z
88 1/2-y,1/2+x,z
89 1/2+x,1/2+z,-y
90 1/2-x,1/2+z,y
91 1/2-x,1/2-z,-y
92 1/2+x,1/2-z,y
93 1/2+z,1/2+y,-x
94 1/2+z,1/2-y,x
95 1/2-z,1/2+y,x
96 1/2-z,1/2-y,-x
97 -x,-y,-z
98 x,y,-z
99 x,-y,z
100 -x,y,z
101 -z,-x,-y
102 -z,x,y
103 z,x,-y
104 z,-x,y
105 -y,-z,-x
106 y,-z,x
107 -y,z,x
108 y,z,-x
109 -y,-x,z
110 y,x,z
111 -y,x,-z
112 y,-x,-z
113 -x,-z,y
114 x,-z,-y
115 x,z,y
116 -x,z,-y
117 -z,-y,x
118 -z,y,-x
119 z,-y,-x
120 z,y,x
121 -x,1/2-y,1/2-z
122 x,1/2+y,1/2-z
123 x,1/2-y,1/2+z
124 -x,1/2+y,1/2+z
125 -z,1/2-x,1/2-y
126 -z,1/2+x,1/2+y
127 z,1/2+x,1/2-y
128 z,1/2-x,1/2+y
129 -y,1/2-z,1/2-x
130 y,1/2-z,1/2+x
131 -y,1/2+z,1/2+x
132 y,1/2+z,1/2-x
133 -y,1/2-x,1/2+z
134 y,1/2+x,1/2+z
135 -y,1/2+x,1/2-z
136 y,1/2-x,1/2-z
137 -x,1/2-z,1/2+y
138 x,1/2-z,1/2-y
139 x,1/2+z,1/2+y
140 -x,1/2+z,1/2-y
141 -z,1/2-y,1/2+x
142 -z,1/2+y,1/2-x
143 z,1/2-y,1/2-x
144 z,1/2+y,1/2+x
145 1/2-x,-y,1/2-z
146 1/2+x,y,1/2-z
147 1/2+x,-y,1/2+z
148 1/2-x,y,1/2+z
149 1/2-z,-x,1/2-y
150 1/2-z,x,1/2+y
151 1/2+z,x,1/2-y
152 1/2+z,-x,1/2+y
153 1/2-y,-z,1/2-x
154 1/2+y,-z,1/2+x
155 1/2-y,z,1/2+x
156 1/2+y,z,1/2-x
157 1/2-y,-x,1/2+z
158 1/2+y,x,1/2+z
159 1/2-y,x,1/2-z
160 1/2+y,-x,1/2-z
161 1/2-x,-z,1/2+y
162 1/2+x,-z,1/2-y
163 1/2+x,z,1/2+y
164 1/2-x,z,1/2-y
165 1/2-z,-y,1/2+x
166 1/2-z,y,1/2-x
167 1/2+z,-y,1/2-x
168 1/2+z,y,1/2+x
169 1/2-x,1/2-y,-z
170 1/2+x,1/2+y,-z
171 1/2+x,1/2-y,z
172 1/2-x,1/2+y,z
173 1/2-z,1/2-x,-y
174 1/2-z,1/2+x,y
175 1/2+z,1/2+x,-y
176 1/2+z,1/2-x,y
177 1/2-y,1/2-z,-x
178 1/2+y,1/2-z,x
179 1/2-y,1/2+z,x
180 1/2+y,1/2+z,-x
181 1/2-y,1/2-x,z
182 1/2+y,1/2+x,z
183 1/2-y,1/2+x,-z
184 1/2+y,1/2-x,-z
185 1/2-x,1/2-z,y
186 1/2+x,1/2-z,-y
187 1/2+x,1/2+z,y
188 1/2-x,1/2+z,-y
189 1/2-z,1/2-y,x
190 1/2-z,1/2+y,-x
191 1/2+z,1/2-y,-x
192 1/2+z,1/2+y,x
_cell_length_a                   46.730(10)
_cell_length_b                   46.730(10)
_cell_length_c                   46.730(10)
_cell_angle_alpha                90
_cell_angle_beta                 90
_cell_angle_gamma                90
_cell_volume                     102044
_exptl_crystal_colour            purple
_exptl_crystal_description       cubic
_cell_formula_units_Z            24
loop_
_atom_site_label
_atom_site_type_symbol
_atom_site_fract_x
_atom_site_fract_y
_atom_site_fract_z
Co1 Co 0.50000(2) 0.1478 0.0000
Co2 Co 0.50000(2) 0.2084 0.0000
O1 O 0.54290(7) 0.1534 0.00000(8)
O2 O 0.54250(7) 0.2020 0.00000(8)
O3 O 0.5000 0.2522 0.00000(14)
O4 O 0.5000 0.1040 0.00000(13)
N1 N 0.6749 0.17490(8) 0.00000(8)
C1 C 0.5539 0.17780(14) 0.00000(11)
C2 C 0.5867 0.17790(12) 0.00000(11)
C3 C 0.6018 0.15280(10) 0.00000(10)
H1 H 0.5922 0.1353 0.0000
C4 C 0.6314 0.15340(8) 0.00000(10)
C5 C 0.6456 0.18020(11) 0.00000(11)
C6 C 0.6314 0.20560(12) 0.00000(12)
H2 H 0.6412 0.2229 0.0000
C7 C 0.6022 0.20460(10) 0.00000(13)
H3 H 0.5919 0.2216 0.0000
C8 C 0.6969 0.19690(11) 0.00000(11)
C9 C 0.6975(2) 0.21560(17) 0.02040(19)
H4 H 0.6837 0.2150 0.0348
C10 C 0.71920(19) 0.23722(16) 0.02101(15)
H5 H 0.7197 0.2502 0.0360
C11 C 0.7389 0.23890(10) 0.00000(10)
Co1DB Co 0.6478 0.0000 0.00000(2)
Co1M Co 0.8522 0.50000(2) 0.0000
Co1SA Co 1.0000 0.3522 0.00000(2)
Co2DB Co 0.7084 0.0000 0.00000(2)
Co2M Co 0.7916 0.50000(2) 0.0000
Co2SA Co 1.0000 0.2916 0.00000(2)
O1FC O 0.6534 0.04290(7) 0.00000(8)
O1M O 0.8466 0.45710(7) 0.00000(8)
O1UB O 0.95710(7) 0.3466 0.00000(8)
O1B O 0.45710(7) 0.1534 0.00000(8)
O1RB O 0.50000(8) 0.1534 0.04290(7)
O1PB O 0.50000(8) 0.1534 -0.04290(7)
O2FC O 0.7020 0.04250(7) 0.00000(8)
O2M O 0.7980 0.45750(7) 0.00000(8)
O2UB O 0.95750(7) 0.2980 0.00000(8)
O2B O 0.45750(7) 0.2020 0.00000(8)
O2RB O 0.50000(8) 0.2020 0.04250(7)
O2PB O 0.50000(8) 0.2020 -0.04250(7)
N1M N 0.82510(8) 0.3251 0.00000(8)
C1FC C 0.67780(14) 0.0539 0.00000(11)
C1M C 0.82220(14) 0.4461 0.00000(11)
C1UB C 0.9461 0.32220(14) 0.00000(11)
C2FC C 0.67790(12) 0.0867 0.00000(11)
C2M C 0.82210(12) 0.4133 0.00000(11)
C2UB C 0.9133 0.32210(12) 0.00000(11)
C3FC C 0.65280(10) 0.1018 0.00000(10)
C3M C 0.84720(10) 0.3982 0.00000(10)
C3UB C 0.8982 0.34720(10) 0.00000(10)
H1M H 0.8647 0.4078 0.0000
H1UB H 0.9078 0.3647 0.0000
H1FC H 0.6353 0.0922 0.0000
C4FC C 0.65340(8) 0.1314 0.00000(10)
C4M C 0.84660(8) 0.3686 0.00000(10)
C4UB C 0.8686 0.34660(8) 0.00000(10)
C5FC C 0.68020(11) 0.1456 0.00000(11)
C5M C 0.81980(11) 0.3544 0.00000(11)
C5UB C 0.8544 0.31980(11) 0.00000(11)
C6FC C 0.70560(12) 0.1314 0.00000(12)
C6M C 0.79440(12) 0.3686 0.00000(12)
C6UB C 0.8686 0.29440(12) 0.00000(12)
H2M H 0.7771 0.3588 0.0000
H2UB H 0.8588 0.2771 0.0000
H2FC H 0.7229 0.1412 0.0000
C7FC C 0.70460(10) 0.1022 0.00000(13)
C7M C 0.79540(10) 0.3978 0.00000(13)
C7UB C 0.8978 0.29540(10) 0.00000(13)
H3M H 0.7784 0.4081 0.0000
H3UB H 0.9081 0.2784 0.0000
H3FC H 0.7216 0.0919 0.0000
C8M C 0.80310(11) 0.3031 0.00000(11)
C9YF C 0.71560(17) 0.1975(2) 0.02040(19)
C9FC C 0.71560(17) 0.1975(2) -0.02040(19)
C9SC C 0.6975(2) 0.21560(17) -0.02040(19)
C9M C 0.78440(17) 0.3025(2) -0.02040(19)
C9UB C 0.8025(2) 0.28440(17) 0.02040(19)
C9DD C 0.78440(17) 0.3025(2) 0.02040(19)
C9LF C 0.8025(2) 0.28440(17) -0.02040(19)
H4SC H 0.6837 0.2150 -0.0348
H4FC H 0.7150 0.1837 -0.0348
H4YF H 0.7150 0.1837 0.0348
H4UB H 0.8163 0.2850 0.0348
H4LF H 0.8163 0.2850 -0.0348
H4DD H 0.7850 0.3163 0.0348
H4M H 0.7850 0.3163 -0.0348
C10SC C 0.71920(19) 0.23722(16) -0.02101(15)
C10FC C 0.73722(16) 0.21920(19) -0.02101(15)
C10YF C 0.73722(16) 0.21920(19) 0.02101(15)
C10M C 0.76278(16) 0.28080(19) -0.02101(15)
C10UB C 0.78080(19) 0.26278(16) 0.02101(15)
C10DD C 0.76278(16) 0.28080(19) 0.02101(15)
C10LF C 0.78080(19) 0.26278(16) -0.02101(15)
H5FC H 0.7502 0.2197 -0.0360
H5SC H 0.7197 0.2502 -0.0360
H5YF H 0.7502 0.2197 0.0360
H5LF H 0.7803 0.2498 -0.0360
H5UB H 0.7803 0.2498 0.0360
H5DD H 0.7498 0.2803 0.0360
H5M H 0.7498 0.2803 -0.0360
C11M C 0.76110(10) 0.2611 0.00000(10)
loop_
_geom_bond_atom_site_label_1
_geom_bond_atom_site_label_2
_geom_bond_site_symmetry_1
_geom_bond_site_symmetry_2
Co1 O1 1_555 1_555
Co2 O2 1_555 1_555
O1 C1 1_555 1_555
O2 C1 1_555 1_555
O3 Co2 1_555 1_555
O4 Co1 1_555 1_555
N1 C5 1_555 1_555
C1 C2 1_555 1_555
C2 C3 1_555 1_555
C3 H1 1_555 1_555
C4 C3 1_555 1_555
C5 C4 1_555 1_555
C6 C5 1_555 1_555
H2 C6 1_555 1_555
C7 C2 1_555 1_555
H3 C7 1_555 1_555
C8 N1 1_555 1_555
C9 C8 1_555 1_555
H4 C9 1_555 1_555
C10 C9 1_555 1_555
H5 C10 1_555 1_555
C11 C10 1_555 1_555
Co1DB O1FC 1_555 1_555
Co1M O1M 1_555 1_555
Co1SA O1UB 1_555 1_555
Co2DB O2FC 1_555 1_555
Co2M O2M 1_555 1_555
Co2SA O2UB 1_555 1_555
O1FC C1FC 1_555 1_555
O1M C1M 1_555 1_555
O1UB C1UB 1_555 1_555
O1B Co1 1_555 1_555
O1RB Co1 1_555 1_555
O1PB Co1 1_555 1_555
O2FC C1FC 1_555 1_555
O2M C1M 1_555 1_555
O2UB C1UB 1_555 1_555
O2B Co2 1_555 1_555
O2RB Co2 1_555 1_555
O2PB Co2 1_555 1_555
N1M C5M 1_555 1_555
C1FC C2FC 1_555 1_555
C1M C2M 1_555 1_555
C1UB C2UB 1_555 1_555
C2FC C3FC 1_555 1_555
C2M C3M 1_555 1_555
C2UB C3UB 1_555 1_555
C3FC H1FC 1_555 1_555
C3M H1M 1_555 1_555
C3UB H1UB 1_555 1_555
C4FC C4 1_555 1_555
C4M C3M 1_555 1_555
C4UB C3UB 1_555 1_555
C5FC N1 1_555 1_555
C5M C4M 1_555 1_555
C5UB N1M 1_555 1_555
C6FC C5FC 1_555 1_555
C6M C5M 1_555 1_555
C6UB C5UB 1_555 1_555
H2M C6M 1_555 1_555
H2UB C6UB 1_555 1_555
H2FC C6FC 1_555 1_555
C7FC C2FC 1_555 1_555
C7M C2M 1_555 1_555
C7UB C2UB 1_555 1_555
H3M C7M 1_555 1_555
H3UB C7UB 1_555 1_555
H3FC C7FC 1_555 1_555
C8M N1M 1_555 1_555
C9YF C8 1_555 1_555
C9FC C8 1_555 1_555
C9SC C8 1_555 1_555
C9M C8M 1_555 1_555
C9UB C8M 1_555 1_555
C9DD C8M 1_555 1_555
C9LF C8M 1_555 1_555
H4SC C9SC 1_555 1_555
H4FC C9FC 1_555 1_555
H4YF C9YF 1_555 1_555
H4UB C9UB 1_555 1_555
H4LF C9LF 1_555 1_555
H4DD C9DD 1_555 1_555
H4M C9M 1_555 1_555
C10SC C11 1_555 1_555
C10FC C11 1_555 1_555
C10YF C10 1_555 1_555
C10M C9M 1_555 1_555
C10UB C9UB 1_555 1_555
C10DD C9DD 1_555 1_555
C10LF C9LF 1_555 1_555
H5FC C10FC 1_555 1_555
H5SC C10SC 1_555 1_555
H5YF C10YF 1_555 1_555
H5LF C10LF 1_555 1_555
H5UB C10UB 1_555 1_555
H5DD C10DD 1_555 1_555
H5M C10M 1_555 1_555
C11M C11 1_555 1_555
C6 C7 1_555 1_555
C9 C9YF 1_555 1_555
C11 C10YF 1_555 1_555
C3FC C4FC 1_555 1_555
C4FC C5FC 1_555 1_555
C4M C4UB 1_555 1_555
C4UB C5UB 1_555 1_555
C6FC C7FC 1_555 1_555
C6M C7M 1_555 1_555
C6UB C7UB 1_555 1_555
C9YF C10YF 1_555 1_555
C9FC C9SC 1_555 1_555
C9FC C10FC 1_555 1_555
C9SC C10SC 1_555 1_555
C9M C9LF 1_555 1_555
C9UB C9DD 1_555 1_555
C10SC C10FC 1_555 1_555
C10M C10LF 1_555 1_555
C10M C11M 1_555 1_555
C10UB C10DD 1_555 1_555
C10UB C11M 1_555 1_555
C10DD C11M 1_555 1_555
C10LF C11M 1_555 1_555

#END
