
#######################################################################
#
#                 Cambridge Crystallographic Data Centre
#                                CCDC 
#
#######################################################################
#
# If this CIF has been generated from an entry in the Cambridge 
# Structural Database, then it will include bibliographic, chemical, 
# crystal, experimental, refinement or atomic coordinate data resulting 
# from the CCDC's data processing and validation procedures.
#
#######################################################################

data_QAHFAI
_chemical_name_common            UMCM-1-CAT
_chemical_formula_moiety         '(C132 H75 O45 Zn12)n'
_chemical_name_systematic        
catena-(tetrakis(\m~6~-4,4',4''-(Benzene-1,3,5-triyl)tribenzoato)-tris(\m~4~-2,3-dihydroxyterephthalato)-tris(\m~4~-oxo)-dodeca-zinc)
_symmetry_cell_setting           hexagonal
_symmetry_space_group_name_H-M   'P 63/m'
_symmetry_Int_Tables_number      176
_space_group_name_Hall           '-P 6c'
loop_
_symmetry_equiv_pos_site_id
_symmetry_equiv_pos_as_xyz
1 x,y,z
2 -y,x-y,z
3 -x+y,-x,z
4 -x,-y,1/2+z
5 y,-x+y,1/2+z
6 x-y,x,1/2+z
7 -x,-y,-z
8 y,-x+y,-z
9 x-y,x,-z
10 x,y,1/2-z
11 -y,x-y,1/2-z
12 -x+y,-x,1/2-z
_cell_length_a                   41.377(3)
_cell_length_b                   41.377(3)
_cell_length_c                   17.5217(13)
_cell_angle_alpha                90
_cell_angle_beta                 90
_cell_angle_gamma                120
_cell_volume                     25979.1
_exptl_crystal_colour            orange
_exptl_crystal_description       needle
_cell_formula_units_Z            2
loop_
_atom_site_label
_atom_site_type_symbol
_atom_site_fract_x
_atom_site_fract_y
_atom_site_fract_z
Zn1 Zn 0.029538(11) 0.628869(8) 0.160224(18)
Zn2 Zn 0.105285(16) 0.679694(11) 0.2500
Zn3 Zn 0.069819(17) 0.592194(12) 0.2500
O1 O 0.05844(8) 0.63183(6) 0.2500
O2 O 0.11074(8) 0.70704(5) 0.34222(12)
O3 O 0.05771(8) 0.67071(5) 0.40609(11)
O4 O 0.35678(6) 0.98352(8) 0.81355(12)
O5 O 0.01750(6) 0.58434(8) 0.10094(13)
O6 O 0.04769(6) 0.55978(8) 0.16257(14)
O7 O 0.12252(11) 0.60961(8) 0.2500
O8 O 0.14620(11) 0.67014(8) 0.2500
O9 O -0.01970(23) 0.55465(16) -0.0232(3)
O10 O 0.04259(22) 0.49884(15) 0.1231(4)
C1 C 0.09041(11) 0.69782(8) 0.40058(19)
C2 C 0.10664(13) 0.72021(8) 0.47219(19)
C3 C 0.08318(15) 0.71395(9) 0.5352(2)
C4 C 0.09968(17) 0.73365(11) 0.6027(2)
C5 C 0.13733(14) 0.75876(9) 0.6075(2)
C6 C 0.16000(17) 0.76537(10) 0.5430(2)
C7 C 0.14462(15) 0.74644(9) 0.4732(2)
C8 C 0.15453(15) 0.77833(9) 0.68051(19)
C9 C 0.13803(21) 0.76083(13) 0.7500
C10 C 0.18749(14) 0.81370(9) 0.67934(19)
C11 C 0.20287(21) 0.83066(13) 0.7500
C12 C 0.23888(20) 0.86679(12) 0.7500
C13 C 0.24819(28) 0.89029(19) 0.6882(4)
C14 C 0.28213(28) 0.92613(19) 0.6883(4)
C15 C 0.30693(17) 0.93503(11) 0.7500
C16 C 0.14946(18) 0.64224(13) 0.2500
C17 C 0.18647(14) 0.64559(11) 0.2500
C18 C 0.21499(13) 0.67704(10) 0.21476(16)
C19 C 0.25064(15) 0.68174(9) 0.2105(3)
C20 C 0.25776(14) 0.65499(11) 0.2586(3)
C21 C 0.22923(12) 0.62353(10) 0.2766(2)
C22 C 0.19358(13) 0.61883(9) 0.28094(16)
C23 C 0.29786(18) 0.66217(13) 0.2500
C24 C 0.30267(17) 0.63084(12) 0.2500
C25 C 0.02735(14) 0.56036(9) 0.1093(2)
C26 C 0.01315(13) 0.52875(9) 0.0530(2)
C27 C -0.00837(14) 0.52714(10) -0.0056(3)
C28 C 0.02153(16) 0.50190(11) 0.0580(2)
C29 C 0.34312(16) 0.97004(11) 0.7500
Zn1I Zn 0.029538(11) 0.628869(8) 0.339776(18)
Zn1_2 Zn 0.029538(11) 0.628869(8) 1.160224(18)
Zn1I_2 Zn 0.029538(11) 0.628869(8) -0.660224(18)
Zn1H Zn 0.400669(14) 1.029538(11) 0.839776(18)
Zn1E Zn 0.400669(14) 1.029538(11) 0.660224(18)
Zn1F Zn -0.029538(11) 0.371131(8) -0.160224(18)
Zn1E_2 Zn 0.400669(14) 1.029538(11) -0.339776(18)
Zn1H_2 Zn 0.400669(14) 1.029538(11) -0.160224(18)
Zn1D Zn -0.371131(8) 0.599331(14) 0.660224(18)
Zn1G Zn -0.371131(8) 0.599331(14) -0.160224(18)
Zn1C Zn -0.029538(11) 0.371131(8) 0.660224(18)
Zn1I_3 Zn 0.029538(11) 0.628869(8) 1.339776(18)
Zn1_3 Zn 0.029538(11) 0.628869(8) -0.839776(18)
Zn1J Zn 0.371131(8) 0.400669(14) 0.339776(18)
Zn1D_2 Zn 0.628869(8) 0.599331(14) 0.660224(18)
Zn2_2 Zn 0.105285(16) 0.679694(11) 1.2500
Zn2_3 Zn 0.105285(16) 0.679694(11) -0.7500
Zn2A Zn 0.320306(11) 0.425591(19) 0.2500
Zn2B Zn 0.574409(19) 0.894715(16) 0.2500
Zn2D Zn -0.320306(11) 0.574409(19) 0.7500
Zn2D_2 Zn -0.320306(11) 0.574409(19) -0.2500
Zn3A Zn 0.407806(12) 0.477625(21) 0.2500
Zn3B Zn 0.522375(21) 0.930181(17) 0.2500
Zn3C Zn -0.069819(17) 0.407806(12) -0.2500
Zn3C_2 Zn -0.069819(17) 0.407806(12) 0.7500
Zn3_2 Zn 0.069819(17) 0.592194(12) 1.2500
Zn3_3 Zn 0.069819(17) 0.592194(12) -0.7500
Zn3D Zn 0.592194(12) 0.522375(21) 0.7500
O1_2 O 0.05844(8) 0.63183(6) 1.2500
O1_3 O 0.05844(8) 0.63183(6) -0.7500
O1A O 0.36817(6) 0.42661(10) 0.2500
O1B O 0.57339(10) 0.94156(8) 0.2500
O1E O 0.42661(10) 1.05844(8) 0.7500
O2I O 0.11074(8) 0.70704(5) 1.15778(12)
O2I_2 O 0.11074(8) 0.70704(5) 0.15778(12)
O2_2 O 0.11074(8) 0.70704(5) -0.65778(12)
O2G O -0.29296(5) 0.59630(9) 0.65778(12)
O2D O -0.29296(5) 0.59630(9) -0.15778(12)
O2_3 O 0.11074(8) 0.70704(5) 1.34222(12)
O2I_3 O 0.11074(8) 0.70704(5) -0.84222(12)
O3I O 0.05771(8) 0.67071(5) 1.09391(11)
O3I_2 O 0.05771(8) 0.67071(5) 0.09391(11)
O3_2 O 0.05771(8) 0.67071(5) -0.59391(11)
O3G O -0.32929(5) 0.61300(9) 0.59391(11)
O3D O -0.32929(5) 0.61300(9) -0.09391(11)
O3E O 0.38700(9) 1.05771(8) 0.90609(11)
O3H O 0.38700(9) 1.05771(8) 0.59391(11)
O4I O 0.35678(6) 0.98352(8) 0.68645(12)
O4I_2 O 0.35678(6) 0.98352(8) -0.31355(12)
O4_2 O 0.35678(6) 0.98352(8) -0.18645(12)
O4G O -0.01648(8) 0.62674(10) 0.18645(12)
O4D O -0.01648(8) 0.62674(10) 0.31355(12)
O4G_2 O -0.01648(8) 0.62674(10) 1.18645(12)
O4D_2 O -0.01648(8) 0.62674(10) -0.68645(12)
O5F O -0.01750(6) 0.41566(8) -0.10094(13)
O5I O 0.01750(6) 0.58434(8) 0.39906(13)
O5C O -0.01750(6) 0.41566(8) 0.60094(13)
O5J O 0.41566(8) 0.43316(10) 0.39906(13)
O5D O 0.58434(8) 0.56684(10) 0.60094(13)
O5_2 O 0.01750(6) 0.58434(8) 1.10094(13)
O5I_2 O 0.01750(6) 0.58434(8) -0.60094(13)
O5H O 0.43316(10) 1.01750(6) 0.89906(13)
O5E O 0.43316(10) 1.01750(6) 0.60094(13)
O6F O -0.04769(6) 0.44022(8) -0.16257(14)
O6I O 0.04769(6) 0.55978(8) 0.33743(14)
O6C O -0.04769(6) 0.44022(8) 0.66257(14)
O6J O 0.44022(8) 0.48791(10) 0.33743(14)
O6D O 0.55978(8) 0.51209(10) 0.66257(14)
O6A O 0.44022(8) 0.48791(10) 0.16257(14)
O6K O 0.51209(10) 0.95231(6) 0.33743(14)
O6B O 0.51209(10) 0.95231(6) 0.16257(14)
O7A O 0.39039(8) 0.51291(14) 0.2500
O7B O 0.48709(14) 0.87748(11) 0.2500
O8A O 0.32986(8) 0.47606(14) 0.2500
O8B O 0.52394(14) 0.85380(11) 0.2500
O8_2 O 0.14620(11) 0.67014(8) 1.2500
O8_3 O 0.14620(11) 0.67014(8) -0.7500
O9F O 0.01970(23) 0.44535(16) 0.0232(3)
O9I O -0.01970(23) 0.55465(16) 0.5232(3)
O9C O 0.01970(23) 0.44535(16) 0.4768(3)
O9J O 0.44535(16) 0.42565(28) 0.5232(3)
O9D O 0.55465(16) 0.57435(28) 0.4768(3)
O10F O -0.04259(22) 0.50116(15) -0.1231(4)
O10I O 0.04259(22) 0.49884(15) 0.3769(4)
O10C O -0.04259(22) 0.50116(15) 0.6231(4)
O10J O 0.50116(15) 0.54375(27) 0.3769(4)
O10D O 0.49884(15) 0.45625(27) 0.6231(4)
C1I C 0.09041(11) 0.69782(8) 1.09942(19)
C1I_2 C 0.09041(11) 0.69782(8) 0.09942(19)
C1_2 C 0.09041(11) 0.69782(8) -0.59942(19)
C1G C -0.30218(8) 0.60741(14) 0.59942(19)
C1D C -0.30218(8) 0.60741(14) -0.09942(19)
C2I C 0.10664(13) 0.72021(8) 1.02781(19)
C2I_2 C 0.10664(13) 0.72021(8) 0.02781(19)
C2_2 C 0.10664(13) 0.72021(8) -0.52781(19)
C2G C -0.27979(8) 0.61357(15) 0.52781(19)
C2D C -0.27979(8) 0.61357(15) -0.02781(19)
C3I C 0.08318(15) 0.71395(9) 0.9648(2)
C3I_2 C 0.08318(15) 0.71395(9) -0.0352(2)
C3_2 C 0.08318(15) 0.71395(9) -0.4648(2)
C3G C -0.28605(9) 0.63077(17) 0.4648(2)
C3D C -0.28605(9) 0.63077(17) 0.0352(2)
C4I C 0.09968(17) 0.73365(11) 0.8973(2)
C4I_2 C 0.09968(17) 0.73365(11) -0.1027(2)
C4_2 C 0.09968(17) 0.73365(11) -0.3973(2)
C4G C -0.26635(11) 0.63397(20) 0.3973(2)
C4D C -0.26635(11) 0.63397(20) 0.1027(2)
C5I C 0.13733(14) 0.75876(9) 0.8925(2)
C5I_2 C 0.13733(14) 0.75876(9) -0.1075(2)
C5_2 C 0.13733(14) 0.75876(9) -0.3925(2)
C5G C -0.24124(9) 0.62143(17) 0.3925(2)
C5D C -0.24124(9) 0.62143(17) 0.1075(2)
C6I C 0.16000(17) 0.76537(10) 0.9570(2)
C6I_2 C 0.16000(17) 0.76537(10) -0.0430(2)
C6_2 C 0.16000(17) 0.76537(10) -0.4570(2)
C6G C -0.23463(10) 0.60537(20) 0.4570(2)
C6D C -0.23463(10) 0.60537(20) 0.0430(2)
C7I C 0.14462(15) 0.74644(9) 1.0268(2)
C7I_2 C 0.14462(15) 0.74644(9) 0.0268(2)
C7_2 C 0.14462(15) 0.74644(9) -0.5268(2)
C7G C -0.25356(9) 0.60182(17) 0.5268(2)
C7D C -0.25356(9) 0.60182(17) -0.0268(2)
C8I C 0.15453(15) 0.77833(9) 0.81949(19)
C8I_2 C 0.15453(15) 0.77833(9) -0.18051(19)
C8_2 C 0.15453(15) 0.77833(9) -0.31949(19)
C8G C -0.22167(9) 0.62380(17) 0.31949(19)
C8D C -0.22167(9) 0.62380(17) 0.18051(19)
C9_2 C 0.13803(21) 0.76083(13) -0.2500
C9D C -0.23917(13) 0.62280(25) 0.2500
C10I C 0.18749(14) 0.81370(9) 0.82066(19)
C10I_2 C 0.18749(14) 0.81370(9) -0.17934(19)
C10_2 C 0.18749(14) 0.81370(9) -0.32066(19)
C10G C -0.18630(9) 0.62621(17) 0.32066(19)
C10D C -0.18630(9) 0.62621(17) 0.17934(19)
C11_2 C 0.20287(21) 0.83066(13) -0.2500
C11D C -0.16934(13) 0.62779(25) 0.2500
C12_2 C 0.23888(20) 0.86679(12) -0.2500
C12D C -0.13321(12) 0.62791(23) 0.2500
C13I C 0.24819(28) 0.89029(19) 0.8118(4)
C13I_2 C 0.24819(28) 0.89029(19) -0.1882(4)
C13_2 C 0.24819(28) 0.89029(19) -0.3118(4)
C13G C -0.10971(19) 0.64210(34) 0.3118(4)
C13D C -0.10971(19) 0.64210(34) 0.1882(4)
C14I C 0.28213(28) 0.92613(19) 0.8117(4)
C14I_2 C 0.28213(28) 0.92613(19) -0.1883(4)
C14_2 C 0.28213(28) 0.92613(19) -0.3117(4)
C14G C -0.07387(19) 0.64400(34) 0.3117(4)
C14D C -0.07387(19) 0.64400(34) 0.1883(4)
C15_2 C 0.30693(17) 0.93503(11) -0.2500
C15D C -0.06497(11) 0.62810(20) 0.2500
C16A C 0.35776(13) 0.50722(22) 0.2500
C16B C 0.49278(22) 0.85054(18) 0.2500
C17A C 0.35441(11) 0.54088(18) 0.2500
C17B C 0.45912(18) 0.81353(14) 0.2500
C18I C 0.21499(13) 0.67704(10) 0.28524(16)
C18A C 0.32296(10) 0.53795(16) 0.21476(16)
C18J C 0.32296(10) 0.53795(16) 0.28524(16)
C18B C 0.46205(16) 0.78501(13) 0.21476(16)
C18K C 0.46205(16) 0.78501(13) 0.28524(16)
C19I C 0.25064(15) 0.68174(9) 0.2895(3)
C19A C 0.31826(9) 0.56890(17) 0.2105(3)
C19J C 0.31826(9) 0.56890(17) 0.2895(3)
C19B C 0.43110(17) 0.74936(15) 0.2105(3)
C19K C 0.43110(17) 0.74936(15) 0.2895(3)
C20I C 0.25776(14) 0.65499(11) 0.2414(3)
C20A C 0.34501(11) 0.60277(18) 0.2586(3)
C20J C 0.34501(11) 0.60277(18) 0.2414(3)
C20B C 0.39723(18) 0.74224(14) 0.2586(3)
C20K C 0.39723(18) 0.74224(14) 0.2414(3)
C21I C 0.22923(12) 0.62353(10) 0.2234(2)
C21A C 0.37647(10) 0.60570(16) 0.2766(2)
C21J C 0.37647(10) 0.60570(16) 0.2234(2)
C21B C 0.39430(16) 0.77077(12) 0.2766(2)
C21K C 0.39430(16) 0.77077(12) 0.2234(2)
C22I C 0.19358(13) 0.61883(9) 0.21906(16)
C22A C 0.38117(9) 0.57475(16) 0.28094(16)
C22J C 0.38117(9) 0.57475(16) 0.21906(16)
C22B C 0.42525(16) 0.80642(13) 0.28094(16)
C22K C 0.42525(16) 0.80642(13) 0.21906(16)
C23A C 0.33783(13) 0.63569(22) 0.2500
C23B C 0.36431(22) 0.70214(18) 0.2500
C24A C 0.36916(12) 0.67183(21) 0.2500
C24B C 0.32817(21) 0.69733(17) 0.2500
C25F C -0.02735(14) 0.43964(9) -0.1093(2)
C25I C 0.02735(14) 0.56036(9) 0.3907(2)
C25C C -0.02735(14) 0.43964(9) 0.6093(2)
C25J C 0.43964(9) 0.46699(17) 0.3907(2)
C25D C 0.56036(9) 0.53301(17) 0.6093(2)
C26F C -0.01315(13) 0.47125(9) -0.0530(2)
C26I C 0.01315(13) 0.52875(9) 0.4470(2)
C26C C -0.01315(13) 0.47125(9) 0.5530(2)
C26J C 0.47125(9) 0.48440(16) 0.4470(2)
C26D C 0.52875(9) 0.51560(16) 0.5530(2)
C27F C 0.00837(14) 0.47286(10) 0.0056(3)
C27I C -0.00837(14) 0.52714(10) 0.5056(3)
C27C C 0.00837(14) 0.47286(10) 0.4944(3)
C27J C 0.47286(10) 0.46449(17) 0.5056(3)
C27D C 0.52714(10) 0.53551(17) 0.4944(3)
C28F C -0.02153(16) 0.49810(11) -0.0580(2)
C28I C 0.02153(16) 0.50190(11) 0.4420(2)
C28C C -0.02153(16) 0.49810(11) 0.5580(2)
C28J C 0.49810(11) 0.51963(19) 0.4420(2)
C28D C 0.50190(11) 0.48037(19) 0.5580(2)
C29_2 C 0.34312(16) 0.97004(11) -0.2500
C29D C -0.02996(11) 0.62692(19) 0.2500
C30? C 0.12290(18) 0.3862(2) 0.6863(4)
C31? C 0.08771(19) 0.3844(2) 0.6862(4)
loop_
_geom_bond_atom_site_label_1
_geom_bond_atom_site_label_2
_geom_bond_site_symmetry_1
_geom_bond_site_symmetry_2
Zn1 O1 1_555 1_555
Zn2 O1 1_555 1_555
Zn3 O1 1_555 1_555
O1 Zn1I 1_555 1_555
O2 Zn2 1_555 1_555
O3 C1 1_555 1_555
O4 C29 1_555 1_555
O5 Zn1 1_555 1_555
O6 Zn3 1_555 1_555
O7 Zn3 1_555 1_555
O8 Zn2 1_555 1_555
O9 C27 1_555 1_555
O10 C28 1_555 1_555
C1 O2 1_555 1_555
C2 C1 1_555 1_555
C3 C2 1_555 1_555
C4 C3 1_555 1_555
C5 C4 1_555 1_555
C6 C5 1_555 1_555
C7 C2 1_555 1_555
C8 C5 1_555 1_555
C9 C8 1_555 1_555
C10 C8 1_555 1_555
C11 C10 1_555 1_555
C12 C11 1_555 1_555
C13 C12 1_555 1_555
C14 C13 1_555 1_555
C15 C14 1_555 1_555
C16 O7 1_555 1_555
C17 C16 1_555 1_555
C18 C17 1_555 1_555
C19 C18 1_555 1_555
C20 C19 1_555 1_555
C21 C20 1_555 1_555
C22 C17 1_555 1_555
C23 C20 1_555 1_555
C24 C23 1_555 1_555
C25 O5 1_555 1_555
C26 C25 1_555 1_555
C27 C26 1_555 1_555
C28 C26 1_555 1_555
C29 C15 1_555 1_555
Zn1I O3 1_555 1_555
Zn1_2 O1_2 1_555 1_555
Zn1I_2 O1_3 1_555 1_555
Zn1H O4 1_555 1_555
Zn1E O1E 1_555 1_555
Zn1F O5F 1_555 1_555
Zn1E_2 O4I_2 1_555 1_555
Zn1H_2 O4_2 1_555 1_555
Zn1D O3G 1_555 1_555
Zn1G O3D 1_555 1_555
Zn1C O5C 1_555 1_555
Zn1I_3 O1_2 1_555 1_555
Zn1_3 O1_3 1_555 1_555
Zn1J O1A 1_555 1_555
Zn1D_2 O5D 1_555 1_555
Zn2_2 O1_2 1_555 1_555
Zn2_3 O1_3 1_555 1_555
Zn2A O1A 1_555 1_555
Zn2B O1B 1_555 1_555
Zn2D O2G 1_555 1_555
Zn2D_2 O2D 1_555 1_555
Zn3A O1A 1_555 1_555
Zn3B O1B 1_555 1_555
Zn3C O6F 1_555 1_555
Zn3C_2 O6C 1_555 1_555
Zn3_2 O1_2 1_555 1_555
Zn3_3 O1_3 1_555 1_555
Zn3D O6D 1_555 1_555
O1E Zn1H 1_555 1_555
O2I Zn2_2 1_555 1_555
O2I_2 Zn2 1_555 1_555
O2_2 Zn2_3 1_555 1_555
O2G C1G 1_555 1_555
O2D C1D 1_555 1_555
O2_3 Zn2_2 1_555 1_555
O2I_3 Zn2_3 1_555 1_555
O3I Zn1_2 1_555 1_555
O3I_2 Zn1 1_555 1_555
O3_2 Zn1I_2 1_555 1_555
O3G C1G 1_555 1_555
O3D C1D 1_555 1_555
O3E Zn1H 1_555 1_555
O3H Zn1E 1_555 1_555
O4I C29 1_555 1_555
O4I_2 C29_2 1_555 1_555
O4_2 C29_2 1_555 1_555
O4G Zn1 1_555 1_555
O4D Zn1I 1_555 1_555
O4G_2 Zn1_2 1_555 1_555
O4D_2 Zn1I_2 1_555 1_555
O5F C25F 1_555 1_555
O5I Zn1I 1_555 1_555
O5C C25C 1_555 1_555
O5J Zn1J 1_555 1_555
O5D C25D 1_555 1_555
O5_2 Zn1_2 1_555 1_555
O5I_2 Zn1I_2 1_555 1_555
O5H Zn1H 1_555 1_555
O5E Zn1E 1_555 1_555
O6F C25F 1_555 1_555
O6I Zn3 1_555 1_555
O6C C25C 1_555 1_555
O6J Zn3A 1_555 1_555
O6D C25D 1_555 1_555
O6A Zn3A 1_555 1_555
O6K Zn3B 1_555 1_555
O6B Zn3B 1_555 1_555
O7A Zn3A 1_555 1_555
O7B Zn3B 1_555 1_555
O8A Zn2A 1_555 1_555
O8B Zn2B 1_555 1_555
O8_2 Zn2_2 1_555 1_555
O8_3 Zn2_3 1_555 1_555
O9F C27F 1_555 1_555
O9I C27I 1_555 1_555
O9C C27C 1_555 1_555
O9J C27J 1_555 1_555
O9D C27D 1_555 1_555
O10F C28F 1_555 1_555
O10I C28I 1_555 1_555
O10C C28C 1_555 1_555
O10J C28J 1_555 1_555
O10D C28D 1_555 1_555
C1I O2I 1_555 1_555
C1I_2 O2I_2 1_555 1_555
C1_2 O2_2 1_555 1_555
C1G C2G 1_555 1_555
C1D C2D 1_555 1_555
C2I C1I 1_555 1_555
C2I_2 C1I_2 1_555 1_555
C2_2 C1_2 1_555 1_555
C2G C3G 1_555 1_555
C2D C3D 1_555 1_555
C3I C2I 1_555 1_555
C3I_2 C2I_2 1_555 1_555
C3_2 C2_2 1_555 1_555
C3G C4G 1_555 1_555
C3D C4D 1_555 1_555
C4I C3I 1_555 1_555
C4I_2 C3I_2 1_555 1_555
C4_2 C3_2 1_555 1_555
C4G C5G 1_555 1_555
C4D C5D 1_555 1_555
C5I C4I 1_555 1_555
C5I_2 C4I_2 1_555 1_555
C5_2 C4_2 1_555 1_555
C5G C6G 1_555 1_555
C5D C6D 1_555 1_555
C6I C5I 1_555 1_555
C6I_2 C5I_2 1_555 1_555
C6_2 C5_2 1_555 1_555
C6G C7G 1_555 1_555
C6D C7D 1_555 1_555
C7I C2I 1_555 1_555
C7I_2 C2I_2 1_555 1_555
C7_2 C2_2 1_555 1_555
C7G C2G 1_555 1_555
C7D C2D 1_555 1_555
C8I C9 1_555 1_555
C8I_2 C5I_2 1_555 1_555
C8_2 C5_2 1_555 1_555
C8G C5G 1_555 1_555
C8D C5D 1_555 1_555
C9_2 C8I_2 1_555 1_555
C9D C8G 1_555 1_555
C10I C11 1_555 1_555
C10I_2 C8I_2 1_555 1_555
C10_2 C8_2 1_555 1_555
C10G C8G 1_555 1_555
C10D C8D 1_555 1_555
C11_2 C10I_2 1_555 1_555
C11D C10G 1_555 1_555
C12_2 C11_2 1_555 1_555
C12D C11D 1_555 1_555
C13I C12 1_555 1_555
C13I_2 C12_2 1_555 1_555
C13_2 C12_2 1_555 1_555
C13G C12D 1_555 1_555
C13D C12D 1_555 1_555
C14I C15 1_555 1_555
C14I_2 C13I_2 1_555 1_555
C14_2 C13_2 1_555 1_555
C14G C13G 1_555 1_555
C14D C13D 1_555 1_555
C15_2 C14I_2 1_555 1_555
C15D C14G 1_555 1_555
C16A O7A 1_555 1_555
C16B O7B 1_555 1_555
C17A C16A 1_555 1_555
C17B C16B 1_555 1_555
C18I C17 1_555 1_555
C18A C17A 1_555 1_555
C18J C17A 1_555 1_555
C18B C17B 1_555 1_555
C18K C17B 1_555 1_555
C19I C19 1_555 1_555
C19A C18A 1_555 1_555
C19J C18J 1_555 1_555
C19B C18B 1_555 1_555
C19K C18K 1_555 1_555
C20I C19 1_555 1_555
C20A C19A 1_555 1_555
C20J C19A 1_555 1_555
C20B C19B 1_555 1_555
C20K C19B 1_555 1_555
C21I C20 1_555 1_555
C21A C20A 1_555 1_555
C21J C20A 1_555 1_555
C21B C20B 1_555 1_555
C21K C20B 1_555 1_555
C22I C17 1_555 1_555
C22A C17A 1_555 1_555
C22J C17A 1_555 1_555
C22B C17B 1_555 1_555
C22K C17B 1_555 1_555
C23A C24 1_555 1_555
C23B C20B 1_555 1_555
C24A C23A 1_555 1_555
C24B C23 1_555 1_555
C25F C26F 1_555 1_555
C25I O5I 1_555 1_555
C25C C26C 1_555 1_555
C25J O5J 1_555 1_555
C25D C26D 1_555 1_555
C26F C27F 1_555 1_555
C26I C25I 1_555 1_555
C26C C27C 1_555 1_555
C26J C25J 1_555 1_555
C26D C27D 1_555 1_555
C27F C28 1_555 1_555
C27I C26I 1_555 1_555
C27C C28I 1_555 1_555
C27J C26J 1_555 1_555
C27D C28J 1_555 1_555
C28F C27 1_555 1_555
C28I C26I 1_555 1_555
C28C C26C 1_555 1_555
C28J C26J 1_555 1_555
C28D C26D 1_555 1_555
C29_2 C15_2 1_555 1_555
C29D O4G 1_555 1_555
O6 C25 1_555 1_555
O8 C16 1_555 1_555
C6 C7 1_555 1_555
C18 C18I 1_555 1_555
C20 C19I 1_555 1_555
C20 C20I 1_555 1_555
C21 C22 1_555 1_555
C21 C20I 1_555 1_555
C21 C21I 1_555 1_555
C21 C22I 1_555 1_555
C22 C21I 1_555 1_555
C22 C22I 1_555 1_555
C23 C20I 1_555 1_555
Zn1E O4I 1_555 1_555
O3I C1I 1_555 1_555
O3I_2 C1I_2 1_555 1_555
O3_2 C1_2 1_555 1_555
O4D C29D 1_555 1_555
O6I C25I 1_555 1_555
O6J C25J 1_555 1_555
O8A C16A 1_555 1_555
O8B C16B 1_555 1_555
C5I C8I 1_555 1_555
C6I C7I 1_555 1_555
C6I_2 C7I_2 1_555 1_555
C6_2 C7_2 1_555 1_555
C8I C10I 1_555 1_555
C8_2 C9_2 1_555 1_555
C8D C9D 1_555 1_555
C10_2 C11_2 1_555 1_555
C10D C11D 1_555 1_555
C13I C14I 1_555 1_555
C14_2 C15_2 1_555 1_555
C14D C15D 1_555 1_555
C15D C29D 1_555 1_555
C18I C19I 1_555 1_555
C18A C18J 1_555 1_555
C18B C18K 1_555 1_555
C19I C20I 1_555 1_555
C19A C19J 1_555 1_555
C19J C20A 1_555 1_555
C19J C20J 1_555 1_555
C19B C19K 1_555 1_555
C19K C20B 1_555 1_555
C19K C20K 1_555 1_555
C20I C21I 1_555 1_555
C20A C20J 1_555 1_555
C20A C23A 1_555 1_555
C20J C21A 1_555 1_555
C20J C21J 1_555 1_555
C20J C23A 1_555 1_555
C20B C20K 1_555 1_555
C20K C21B 1_555 1_555
C20K C21K 1_555 1_555
C20K C23B 1_555 1_555
C21I C22I 1_555 1_555
C21A C21J 1_555 1_555
C21A C22A 1_555 1_555
C21A C22J 1_555 1_555
C21J C22A 1_555 1_555
C21J C22J 1_555 1_555
C21B C21K 1_555 1_555
C21B C22B 1_555 1_555
C21B C22K 1_555 1_555
C21K C22B 1_555 1_555
C21K C22K 1_555 1_555
C22A C22J 1_555 1_555
C22B C22K 1_555 1_555
C23B C24A 1_555 1_555
C23B C24B 1_555 1_555
C26F C28F 1_555 1_555
C27I C28C 1_555 1_555
C27J C28D 1_555 1_555

#END
