
#######################################################################
#
#                 Cambridge Crystallographic Data Centre
#                                CCDC 
#
#######################################################################
#
# If this CIF has been generated from an entry in the Cambridge 
# Structural Database, then it will include bibliographic, chemical, 
# crystal, experimental, refinement or atomic coordinate data resulting 
# from the CCDC's data processing and validation procedures.
#
#######################################################################

data_VIRCIJ
_chemical_name_common            
"catena-((mu!5$-3,3',3''-(2,4,6-Trioxo-1,3,5-triazacyclohexane-1,3,5-triyl)tris(propionato))-diaqua-praseodymium(iii) dihydrate)"
_chemical_formula_moiety         '(C12 H16 N3 O11 Pr1)n,2n(H2 O1)'
_chemical_name_systematic        
"catena-((\m~5~-N,N',N''-tris(2-Carboxylatoethyl)isocyanurato)-diaqua-praseodymium(iii) dihydrate)"
_symmetry_cell_setting           triclinic
_symmetry_space_group_name_H-M   'P -1'
_symmetry_Int_Tables_number      2
_space_group_name_Hall           '-P 1'
loop_
_symmetry_equiv_pos_site_id
_symmetry_equiv_pos_as_xyz
1 x,y,z
2 -x,-y,-z
_cell_length_a                   9.119(2)
_cell_length_b                   9.328(2)
_cell_length_c                   12.411(3)
_cell_angle_alpha                100.428(6)
_cell_angle_beta                 102.612(5)
_cell_angle_gamma                115.769(7)
_cell_volume                     880.864
_exptl_crystal_colour            colorless
_exptl_crystal_description       'rectangular parallelepiped'
_cell_formula_units_Z            2
_exptl_crystal_preparation       
'reversibly loses coordinated and solvent water above 140 C'
loop_
_atom_site_label
_atom_site_type_symbol
_atom_site_fract_x
_atom_site_fract_y
_atom_site_fract_z
Pr1 Pr 0.72611(5) 0.48079(4) -0.51747(3)
O1 O 0.7756(8) 0.4589(8) -0.0572(6)
O2 O 0.2040(7) 0.1663(8) -0.0973(6)
O3 O 0.5952(8) 0.1071(7) 0.1549(5)
O4 O 0.5958(8) 0.2721(7) -0.4153(6)
O5 O 0.4147(8) 0.3655(7) -0.4309(6)
O6 O 0.2394(7) 0.3473(6) 0.3290(5)
O7 O 0.4483(6) 0.2856(6) 0.3236(5)
O8 O 0.7877(7) 0.5070(7) 0.2978(5)
O9 O 1.0252(7) 0.5207(7) 0.3958(5)
O10 O 0.7141(7) 0.2068(6) -0.6038(5)
O11 O 0.9681(7) 0.7877(6) -0.4751(5)
N1 N 0.4905(9) 0.3152(8) -0.0809(6)
N2 N 0.4039(8) 0.1677(8) 0.0509(6)
N3 N 0.6952(8) 0.2935(8) 0.0553(6)
C1 C 0.6621(10) 0.3637(9) -0.0289(7)
C2 C 0.3538(11) 0.2122(9) -0.0472(7)
C3 C 0.5659(10) 0.1841(9) 0.0915(7)
C4 C 0.4528(11) 0.3558(10) -0.1893(7)
H1 H 0.5465 0.4640 -0.1821
H2 H 0.3477 0.3629 -0.2025
C5 C 0.4308(12) 0.2193(9) -0.2949(8)
H3 H 0.5001 0.1698 -0.2682
H4 H 0.3108 0.1312 -0.3274
C6 C 0.4835(10) 0.2895(8) -0.3871(7)
C7 C 0.2616(10) 0.0667(9) 0.0915(7)
H5 H 0.3021 0.0151 0.1430
H6 H 0.1659 -0.0224 0.0249
C8 C 0.1980(10) 0.1673(9) 0.1538(7)
H7 H 0.0831 0.0906 0.1517
H8 H 0.1864 0.2403 0.1100
C9 C 0.3050(10) 0.2754(9) 0.2798(7)
C10 C 0.8802(10) 0.3384(10) 0.1065(8)
H9 H 0.9298 0.3361 0.0450
H10 H 0.8854 0.2558 0.1423
C11 C 0.9856(10) 0.5112(10) 0.1969(7)
H11 H 1.1071 0.5436 0.2190
H12 H 0.9705 0.5921 0.1633
C12 C 0.9321(10) 0.5149(8) 0.3043(7)
Pr1A Pr 0.27389(5) 0.51921(4) -0.48253(3)
Pr1A_2 Pr 0.27389(5) 0.51921(4) 0.51747(3)
Pr1_2 Pr 0.72611(5) 0.48079(4) 0.48253(3)
Pr1A_3 Pr 1.27389(5) 0.51921(4) 0.51747(3)
O5A O 0.5853(8) 0.6345(7) -0.5691(6)
O6A O 0.7606(7) 0.6527(6) -0.3290(5)
O7_2 O 0.4483(6) 0.2856(6) -0.6764(5)
O8_2 O 0.7877(7) 0.5070(7) -0.7022(5)
O9A O 0.9748(7) 0.4793(7) -0.3958(5)
O12 O 1.0164(8) -0.0700(7) -0.6584(6)
O13 O 1.3130(8) -0.0526(8) -0.6531(7)
loop_
_geom_bond_atom_site_label_1
_geom_bond_atom_site_label_2
_geom_bond_site_symmetry_1
_geom_bond_site_symmetry_2
Pr1 O4 1_555 1_555
O1 C1 1_555 1_555
O2 C2 1_555 1_555
O3 C3 1_555 1_555
O4 C6 1_555 1_555
O5 C6 1_555 1_555
O6 C9 1_555 1_555
O7 C9 1_555 1_555
O8 C12 1_555 1_555
O9 C12 1_555 1_555
O10 Pr1 1_555 1_555
O11 Pr1 1_555 1_555
N1 C1 1_555 1_555
N2 C2 1_555 1_555
N3 C1 1_555 1_555
C2 N1 1_555 1_555
C3 N2 1_555 1_555
C4 N1 1_555 1_555
H1 C4 1_555 1_555
H2 C4 1_555 1_555
C5 C4 1_555 1_555
H3 C5 1_555 1_555
H4 C5 1_555 1_555
C6 C5 1_555 1_555
C7 N2 1_555 1_555
H5 C7 1_555 1_555
H6 C7 1_555 1_555
C8 C7 1_555 1_555
H7 C8 1_555 1_555
H8 C8 1_555 1_555
C9 C8 1_555 1_555
C10 N3 1_555 1_555
H9 C10 1_555 1_555
H10 C10 1_555 1_555
C11 C10 1_555 1_555
H11 C11 1_555 1_555
H12 C11 1_555 1_555
C12 C11 1_555 1_555
Pr1A O5 1_555 1_555
Pr1A_2 O6 1_555 1_555
Pr1_2 O7 1_555 1_555
Pr1A_3 O9 1_555 1_555
O5A Pr1 1_555 1_555
O6A Pr1 1_555 1_555
O7_2 Pr1 1_555 1_555
O8_2 Pr1 1_555 1_555
O9A Pr1 1_555 1_555
O8 Pr1_2 1_555 1_555
N3 C3 1_555 1_555

#END
