
#######################################################################
#
#                 Cambridge Crystallographic Data Centre
#                                CCDC 
#
#######################################################################
#
# If this CIF has been generated from an entry in the Cambridge 
# Structural Database, then it will include bibliographic, chemical, 
# crystal, experimental, refinement or atomic coordinate data resulting 
# from the CCDC's data processing and validation procedures.
#
#######################################################################

data_VIRCEF
_chemical_name_common            
catena-((mu!5$-3,3',3''-(2,4,6-Trioxo-1,3,5-triazacyclohexane-1,3,5-triyl)tris(propionato))-cerium(iii))
_chemical_formula_moiety         '(C12 H12 Ce1 N3 O9)n'
_chemical_name_systematic        
catena-((\m~5~-N,N',N''-tris(2-Carboxylatoethyl)isocyanurato)-cerium)
_symmetry_cell_setting           triclinic
_symmetry_space_group_name_H-M   'P -1'
_symmetry_Int_Tables_number      2
_space_group_name_Hall           '-P 1'
loop_
_symmetry_equiv_pos_site_id
_symmetry_equiv_pos_as_xyz
1 x,y,z
2 -x,-y,-z
_cell_length_a                   8.655(2)
_cell_length_b                   9.159(2)
_cell_length_c                   10.603(3)
_cell_angle_alpha                98.560(4)
_cell_angle_beta                 98.183(6)
_cell_angle_gamma                117.337(5)
_cell_volume                     716.776
_exptl_crystal_colour            colorless
_exptl_crystal_description       'rectangular parallelepiped'
_cell_formula_units_Z            2
loop_
_atom_site_label
_atom_site_type_symbol
_atom_site_fract_x
_atom_site_fract_y
_atom_site_fract_z
Ce1 Ce 0.26588(13) 0.15641(10) -0.03105(9)
O1 O 0.214(2) -0.3245(15) -0.5635(13)
O2 O 0.354(2) 0.1976(16) -0.6212(14)
O3 O 0.1048(19) 0.0289(15) -0.2874(12)
O4 O 0.089(2) -0.0745(17) -0.9273(14)
O5 O -0.098(2) -0.2981(16) -0.8715(14)
O6 O 0.6530(19) 0.5921(15) -0.1320(13)
O7 O 0.469(2) 0.3229(18) -0.1450(13)
O8 O 0.3207(19) -0.0661(16) -0.1246(13)
O9 O 0.463(2) -0.2115(17) -0.1156(14)
N1 N 0.281(2) -0.0694(17) -0.5990(14)
N2 N 0.246(2) 0.1226(16) -0.4462(13)
N3 N 0.161(2) -0.1543(16) -0.4224(14)
C1 C 0.216(3) -0.193(2) -0.5308(17)
C2 C 0.292(2) 0.089(2) -0.5620(18)
C3 C 0.166(3) 0.0030(19) -0.3782(18)
C4 C 0.354(3) -0.098(3) -0.713(2)
H1 H 0.4381 -0.1373 -0.6877
H2 H 0.4189 0.0083 -0.7367
C5 C 0.204(3) -0.231(2) -0.8349(17)
H3 H 0.2596 -0.2379 -0.9072
H4 H 0.1540 -0.3413 -0.8143
C6 C 0.055(3) -0.200(2) -0.8805(17)
C7 C 0.276(3) 0.294(2) -0.401(2)
H5 H 0.2041 0.2921 -0.3381
H6 H 0.2306 0.3256 -0.4758
C8 C 0.466(3) 0.431(2) -0.3389(17)
H7 H 0.5442 0.4080 -0.3857
H8 H 0.4779 0.5383 -0.3518
C9 C 0.534(3) 0.453(2) -0.1959(17)
C10 C 0.069(2) -0.293(2) -0.3565(18)
H9 H -0.0196 -0.3939 -0.4225
H10 H 0.0073 -0.2595 -0.2989
C11 C 0.196(3) -0.333(2) -0.2783(18)
H11 H 0.1273 -0.4281 -0.2430
H12 H 0.2565 -0.3667 -0.3365
C12 C 0.332(3) -0.190(3) -0.169(2)
Ce1_2 Ce 0.26588(13) 0.15641(10) -1.03105(9)
Ce1A Ce -0.26588(13) -0.15641(10) -0.96895(9)
Ce1A_2 Ce 0.73412(13) 0.84359(10) 0.03105(9)
Ce1A_3 Ce 0.73412(13) -0.15641(10) 0.03105(9)
O4_2 O 0.089(2) -0.0745(17) 0.0727(14)
O4A O -0.089(2) 0.0745(17) -0.0727(14)
O5A O 0.098(2) 0.2981(16) -0.1285(14)
O6A O 0.3470(19) 0.4079(15) 0.1320(13)
O9A O 0.537(2) 0.2115(17) 0.1156(14)
loop_
_geom_bond_atom_site_label_1
_geom_bond_atom_site_label_2
_geom_bond_site_symmetry_1
_geom_bond_site_symmetry_2
Ce1 O3 1_555 1_555
O1 C1 1_555 1_555
O2 C2 1_555 1_555
O3 C3 1_555 1_555
O4 C6 1_555 1_555
O5 C6 1_555 1_555
O6 C9 1_555 1_555
O7 Ce1 1_555 1_555
O8 Ce1 1_555 1_555
O9 C12 1_555 1_555
N1 C1 1_555 1_555
N2 C2 1_555 1_555
N3 C1 1_555 1_555
C2 N1 1_555 1_555
C3 N2 1_555 1_555
C4 N1 1_555 1_555
H1 C4 1_555 1_555
H2 C4 1_555 1_555
C5 C4 1_555 1_555
H3 C5 1_555 1_555
H4 C5 1_555 1_555
C6 C5 1_555 1_555
C7 N2 1_555 1_555
H5 C7 1_555 1_555
H6 C7 1_555 1_555
C8 C7 1_555 1_555
H7 C8 1_555 1_555
H8 C8 1_555 1_555
C9 O7 1_555 1_555
C10 N3 1_555 1_555
H9 C10 1_555 1_555
H10 C10 1_555 1_555
C11 C10 1_555 1_555
H11 C11 1_555 1_555
H12 C11 1_555 1_555
C12 O8 1_555 1_555
Ce1_2 O4 1_555 1_555
Ce1A O4 1_555 1_555
Ce1A_2 O6 1_555 1_555
Ce1A_3 O9 1_555 1_555
O4_2 Ce1 1_555 1_555
O4A Ce1 1_555 1_555
O5A Ce1 1_555 1_555
O6A Ce1 1_555 1_555
O9A Ce1 1_555 1_555
O5 Ce1A 1_555 1_555
N3 C3 1_555 1_555
C8 C9 1_555 1_555
C11 C12 1_555 1_555

#END
