
#######################################################################
#
#                 Cambridge Crystallographic Data Centre
#                                CCDC 
#
#######################################################################
#
# If this CIF has been generated from an entry in the Cambridge 
# Structural Database, then it will include bibliographic, chemical, 
# crystal, experimental, refinement or atomic coordinate data resulting 
# from the CCDC's data processing and validation procedures.
#
#######################################################################

data_QOZSIJ
_chemical_formula_moiety         '(C35 H21 N3 O4 Zn1)n,4n(C3 H7 N1 O1)'
_chemical_name_systematic        
"catena-[(\m~4~-5'-(4,2':6',4''-Terpyridin-4'-yl)-1,1':3',1''-terphenyl-4,4''-dicarboxylato)-zinc(ii) N,N-dimethylformamide solvate]"
_symmetry_cell_setting           monoclinic
_symmetry_space_group_name_H-M   'C 2/c'
_symmetry_Int_Tables_number      15
_space_group_name_Hall           '-C 2yc'
loop_
_symmetry_equiv_pos_site_id
_symmetry_equiv_pos_as_xyz
1 x,y,z
2 -x,y,1/2-z
3 1/2+x,1/2+y,z
4 1/2-x,1/2+y,1/2-z
5 -x,-y,-z
6 x,-y,1/2+z
7 1/2-x,1/2-y,-z
8 1/2+x,1/2-y,1/2+z
_cell_length_a                   18.020(5)
_cell_length_b                   27.937(7)
_cell_length_c                   23.201(6)
_cell_angle_alpha                90
_cell_angle_beta                 108.317(5)
_cell_angle_gamma                90
_cell_volume                     11088.2
_cell_formula_units_Z            8
_exptl_crystal_preparation       Luminescent
loop_
_atom_site_label
_atom_site_type_symbol
_atom_site_fract_x
_atom_site_fract_y
_atom_site_fract_z
C1 C 0.81400(16) 0.31617(10) 0.52526(13)
C2 C 0.71345(15) 0.30639(10) 0.43606(12)
C3 C 0.66041(16) 0.32873(10) 0.46062(13)
H1 H 0.6077 0.3309 0.4384
C4 C 0.76557(16) 0.34166(10) 0.55086(12)
H2 H 0.7855 0.3547 0.5896
C5 C 0.68792(16) 0.34728(10) 0.51801(13)
C6 C 0.5955(2) 0.59719(14) 0.61182(17)
Zn1 Zn 0.152523(18) 0.240048(12) 0.658553(15)
O1 O 0.24988(12) 0.27758(9) 0.67161(11)
C7 C 0.33748(19) 0.29892(13) 0.55284(15)
H3 H 0.3039 0.2805 0.5222
C8 C 0.40051(19) 0.32128(12) 0.54298(16)
H4 H 0.4089 0.3183 0.5056
C9 C 0.52984(18) 0.42205(12) 0.59024(15)
H5 H 0.4958 0.4380 0.6066
C10 C 0.64375(17) 0.42186(11) 0.55864(13)
H6 H 0.6870 0.4376 0.5540
C11 C 0.6669(2) 0.57284(14) 0.6250(2)
H7 H 0.7139 0.5891 0.6409
O2 O 0.20170(14) 0.26232(10) 0.57485(12)
N1 N 0.78846(12) 0.29928(8) 0.46871(10)
O3 O 0.65994(15) 0.67230(10) 0.63909(12)
O4 O 0.53155(16) 0.66939(10) 0.62975(14)
C12 C 1.02040(18) 0.27348(12) 0.55835(14)
H8 H 1.0516 0.2616 0.5364
C13 C 0.94549(17) 0.28670(12) 0.52739(13)
H9 H 0.9269 0.2839 0.4853
C14 C 0.93016(17) 0.30969(11) 0.62089(13)
H10 H 0.9012 0.3229 0.6438
C15 C 1.00507(18) 0.29559(11) 0.64815(13)
H11 H 1.0257 0.2992 0.6900
C16 C 0.3732(2) 0.33011(14) 0.65258(16)
H12 H 0.3639 0.3336 0.6896
C17 C 0.63304(16) 0.37413(10) 0.54431(13)
C18 C 0.5278(2) 0.57454(14) 0.59017(18)
H13 H 0.4809 0.5911 0.5827
C19 C 0.74111(18) 0.26052(12) 0.35267(13)
H14 H 0.7861 0.2483 0.3807
N2 N 1.05099(13) 0.27682(8) 0.61879(10)
C20 C 0.2535(2) 0.27923(12) 0.61777(18)
C21 C 0.32359(18) 0.30354(12) 0.60789(15)
C22 C 0.45137(18) 0.34812(12) 0.58842(16)
C23 C 0.4383(2) 0.35243(14) 0.64344(17)
H15 H 0.4726 0.3701 0.6745
C24 C 0.51789(17) 0.37377(11) 0.57667(15)
C25 C 0.59088(18) 0.44727(11) 0.58016(14)
C26 C 0.56973(17) 0.35049(11) 0.55199(14)
H16 H 0.5613 0.3185 0.5406
C27 C 0.5960(2) 0.49921(12) 0.59101(15)
C28 C 0.6660(2) 0.52284(14) 0.6137(2)
H17 H 0.7128 0.5061 0.6216
C29 C 0.5281(2) 0.52633(14) 0.57890(18)
H18 H 0.4803 0.5110 0.5623
C30 C 0.69160(15) 0.29022(10) 0.37185(12)
C31 C 0.58744(19) 0.65135(14) 0.62546(17)
C32 C 0.89714(16) 0.30430(10) 0.55856(12)
N3 N 0.66027(13) 0.26540(9) 0.25002(10)
C33 C 0.72352(18) 0.24943(12) 0.29287(14)
H19 H 0.7576 0.2295 0.2812
C34 C 0.62369(16) 0.30489(12) 0.32797(13)
H20 H 0.5869 0.3232 0.3387
C35 C 0.61137(16) 0.29220(12) 0.26867(14)
H21 H 0.5660 0.3030 0.2397
Zn1_2 Zn 1.152523(18) 0.240048(12) 0.658553(15)
Zn1B Zn 0.652523(18) 0.740048(12) 0.658553(15)
Zn1G Zn 0.652523(18) 0.259952(12) 0.158553(15)
O3B O 0.15994(15) 0.17230(10) 0.63909(12)
N2_2 N 0.05099(13) 0.27682(8) 0.61879(10)
N3G N 0.16027(13) 0.23460(9) 0.75002(10)
loop_
_geom_bond_atom_site_label_1
_geom_bond_atom_site_label_2
_geom_bond_site_symmetry_1
_geom_bond_site_symmetry_2
C1 C4 1_555 1_555
C2 C3 1_555 1_555
C3 H1 1_555 1_555
C4 H2 1_555 1_555
C5 C3 1_555 1_555
C6 C11 1_555 1_555
Zn1 O1 1_555 1_555
O1 C20 1_555 1_555
C7 H3 1_555 1_555
C8 C7 1_555 1_555
H4 C8 1_555 1_555
C9 H5 1_555 1_555
C10 H6 1_555 1_555
C11 H7 1_555 1_555
O2 Zn1 1_555 1_555
N1 C1 1_555 1_555
O3 C31 1_555 1_555
O4 C31 1_555 1_555
C12 H8 1_555 1_555
C13 C12 1_555 1_555
H9 C13 1_555 1_555
C14 H10 1_555 1_555
C15 C14 1_555 1_555
H11 C15 1_555 1_555
C16 H12 1_555 1_555
C17 C5 1_555 1_555
C18 C6 1_555 1_555
H13 C18 1_555 1_555
C19 H14 1_555 1_555
N2 C12 1_555 1_555
C20 O2 1_555 1_555
C21 C7 1_555 1_555
C22 C8 1_555 1_555
C23 C16 1_555 1_555
H15 C23 1_555 1_555
C24 C9 1_555 1_555
C25 C9 1_555 1_555
C26 C17 1_555 1_555
H16 C26 1_555 1_555
C27 C25 1_555 1_555
C28 C11 1_555 1_555
H17 C28 1_555 1_555
C29 C18 1_555 1_555
H18 C29 1_555 1_555
C30 C2 1_555 1_555
C31 C6 1_555 1_555
C32 C1 1_555 1_555
N3 C33 1_555 1_555
C33 C19 1_555 1_555
H19 C33 1_555 1_555
C34 C30 1_555 1_555
H20 C34 1_555 1_555
C35 N3 1_555 1_555
H21 C35 1_555 1_555
Zn1_2 N2 1_555 1_555
Zn1B O3 1_555 1_555
Zn1G N3 1_555 1_555
O3B Zn1 1_555 1_555
N2_2 Zn1 1_555 1_555
N3G Zn1 1_555 1_555
C2 N1 1_555 1_555
C4 C5 1_555 1_555
C10 C17 1_555 1_555
C10 C25 1_555 1_555
C13 C32 1_555 1_555
C14 C32 1_555 1_555
C15 N2 1_555 1_555
C16 C21 1_555 1_555
C19 C30 1_555 1_555
C20 C21 1_555 1_555
C22 C23 1_555 1_555
C22 C24 1_555 1_555
C24 C26 1_555 1_555
C27 C28 1_555 1_555
C27 C29 1_555 1_555
C34 C35 1_555 1_555

#END
