
#######################################################################
#
#                 Cambridge Crystallographic Data Centre
#                                CCDC 
#
#######################################################################
#
# If this CIF has been generated from an entry in the Cambridge 
# Structural Database, then it will include bibliographic, chemical, 
# crystal, experimental, refinement or atomic coordinate data resulting 
# from the CCDC's data processing and validation procedures.
#
#######################################################################

data_FECYOD
_chemical_formula_moiety         '(C48 H24 O26 Zn8)n,0.25n(O1 Zn1)'
_chemical_name_systematic        
'catena-(bis(\m~4~-Oxo)-hexakis(\m~4~-benzene-1,4-dicarboxylato)-octa-zinc oxo-zinc unknown clathrate)'
_symmetry_cell_setting           rhombohedral
_symmetry_space_group_name_H-M   'R -3 m'
_symmetry_Int_Tables_number      166
_space_group_name_Hall           '-R 3 2"'
loop_
_symmetry_equiv_pos_site_id
_symmetry_equiv_pos_as_xyz
1 x,y,z
2 -y,x-y,z
3 -x+y,-x,z
4 y,x,-z
5 x-y,-y,-z
6 -x,-x+y,-z
7 2/3+x,1/3+y,1/3+z
8 2/3-y,1/3+x-y,1/3+z
9 2/3-x+y,1/3-x,1/3+z
10 2/3+y,1/3+x,1/3-z
11 2/3+x-y,1/3-y,1/3-z
12 2/3-x,1/3-x+y,1/3-z
13 1/3+x,2/3+y,2/3+z
14 1/3-y,2/3+x-y,2/3+z
15 1/3-x+y,2/3-x,2/3+z
16 1/3+y,2/3+x,2/3-z
17 1/3+x-y,2/3-y,2/3-z
18 1/3-x,2/3-x+y,2/3-z
19 -x,-y,-z
20 y,-x+y,-z
21 x-y,x,-z
22 -y,-x,z
23 -x+y,y,z
24 x,x-y,z
25 1/3-x,2/3-y,2/3-z
26 1/3+y,2/3-x+y,2/3-z
27 1/3+x-y,2/3+x,2/3-z
28 1/3-y,2/3-x,2/3+z
29 1/3-x+y,2/3+y,2/3+z
30 1/3+x,2/3+x-y,2/3+z
31 2/3-x,1/3-y,1/3-z
32 2/3+y,1/3-x+y,1/3-z
33 2/3+x-y,1/3+x,1/3-z
34 2/3-y,1/3-x,1/3+z
35 2/3-x+y,1/3+y,1/3+z
36 2/3+x,1/3+x-y,1/3+z
_cell_length_a                   18.4010(10)
_cell_length_b                   18.4010(10)
_cell_length_c                   44.057(3)
_cell_angle_alpha                90
_cell_angle_beta                 90
_cell_angle_gamma                120
_cell_volume                     12919
_exptl_crystal_colour            colorless
_exptl_crystal_description       cubic
_cell_formula_units_Z            6
loop_
_atom_site_label
_atom_site_type_symbol
_atom_site_fract_x
_atom_site_fract_y
_atom_site_fract_z
Zn1 Zn 0.38975(4) 0.61025(4) -0.00048(2)
Zn2 Zn 0.3333 0.6667 0.06086(4)
Zn3 Zn 0.11572(5) 0.05786(5) -0.13736(3)
Zn4 Zn -0.0001 0.0000 -0.19544(4)
O1 O 0.3333 0.6667 0.0149(2)
O2 O -0.0001 0.0000 -0.1520(3)
O3 O 0.1117(2) 0.0559(2) -0.21337(17)
O4 O 0.3171(4) 0.5140(4) -0.02657(14)
O5 O 0.1405(6) 0.1541(5) -0.1145(2)
O6 O 0.1923(3) 0.0962(3) -0.17192(19)
O7 O 0.4358(3) 0.5642(3) 0.02825(18)
O8 O 0.4254(12) 0.6337(11) 0.0667(3)
C1 C 0.1797(4) 0.0899(4) -0.1999(2)
C2 C 0.2414(4) 0.4829(7) -0.0336(2)
C3 C 0.2522(7) 0.3709(8) -0.0615(3)
H1 H 0.3087 0.3957 -0.0564
C4 C 0.2122(7) 0.2968(8) -0.0784(3)
H2 H 0.2425 0.2707 -0.0838
C5 C 0.2034(4) 0.4067(9) -0.0524(3)
C6 C 0.4472(8) 0.5884(8) 0.0556(3)
C7 C 0.0907(6) 0.1815(13) -0.1062(5)
C8 C 0.1306(5) 0.2613(11) -0.0872(4)
C9 C 0.4826(8) 0.5455(8) 0.07553(19)
C10 C 0.4956(9) 0.5669(7) 0.1061(2)
H3 H 0.4824 0.6059 0.1139
C11 C 0.5284(10) 0.5300(10) 0.12509(18)
H4 H 0.5371 0.5443 0.1455
C12 C 0.2569(15) 0.1186(15) -0.21983(17)
C13 C 0.249(2) 0.1317(19) -0.25040(19)
H5 H 0.1973 0.1204 -0.2585
C14 C 0.5023(16) 0.4945(15) 0.06389(14)
H6 H 0.4962 0.4846 0.0431
O9 O 0.3333 0.6667 0.1100(8)
Zn1B Zn 0.22050(6) 0.61025(4) -0.00048(2)
Zn1A Zn 0.38975(4) 0.77950(6) -0.00048(2)
Zn3B Zn -0.05786(7) -0.11572(5) -0.13736(3)
Zn3A Zn -0.05786(5) 0.05786(7) -0.13736(3)
O3A O -0.0559(2) 0.0558(3) -0.21337(17)
O3B O -0.0558(3) -0.1117(2) -0.21337(17)
O4U O 0.4860(4) 0.6829(4) -0.02657(14)
O4V O 0.1969(6) 0.5140(4) -0.02657(14)
O5W O 0.1405(6) -0.0136(8) -0.1145(2)
O5V O 0.0136(8) 0.1541(5) -0.1145(2)
O8A O 0.3663(11) 0.7917(16) 0.0667(3)
O8B O 0.2083(16) 0.5746(12) 0.0667(3)
O8U O 0.3663(11) 0.5746(12) 0.0667(3)
O8V O 0.2083(16) 0.6337(11) 0.0667(3)
O8W O 0.4254(12) 0.7917(16) 0.0667(3)
C3V C 0.1187(11) 0.3709(8) -0.0615(3)
C4V C 0.0846(11) 0.2968(8) -0.0784(3)
C6U C 0.4116(8) 0.5528(8) 0.0556(3)
C9U C 0.4545(8) 0.5174(8) 0.07553(19)
C10U C 0.4331(7) 0.5044(9) 0.1061(2)
C11U C 0.4700(10) 0.4716(10) 0.12509(18)
C11N C 0.3349(14) 0.1383(10) -0.20824(18)
C11BA C 0.3349(14) 0.1967(10) -0.20824(18)
C12W C 0.2569(15) 0.1383(21) -0.21983(17)
C12G C 0.5481(15) 0.4716(21) 0.11350(17)
C12HA C 0.5284(21) 0.4519(15) 0.11350(17)
C13W C 0.249(2) 0.1173(28) -0.25040(19)
C13G C 0.5350(19) 0.4506(28) 0.08293(19)
C13HA C 0.5494(28) 0.4650(19) 0.08293(19)
H5W H 0.1973 0.0769 -0.2585
C14N C 0.3255(22) 0.1644(16) -0.26944(14)
H6U H 0.5154 0.5038 0.0431
Zn5 Zn 0.3333 0.6667 0.1667
O10 O 0.2674(7) 0.5348(14) 0.1477(8)
O10A O 0.4652(14) 0.7326(16) 0.1477(8)
O10B O 0.2674(16) 0.7326(7) 0.1477(8)
O10I O 0.2015(14) 0.6007(7) 0.1856(8)
O10J O 0.3993(16) 0.7985(14) 0.1856(8)
O10K O 0.3993(7) 0.6007(16) 0.1856(8)
H7? H 0.3091 0.6909 0.1162
loop_
_geom_bond_atom_site_label_1
_geom_bond_atom_site_label_2
_geom_bond_site_symmetry_1
_geom_bond_site_symmetry_2
Zn1 O1 1_555 1_555
Zn2 O1 1_555 1_555
Zn3 O2 1_555 1_555
Zn4 O2 1_555 1_555
O1 Zn1B 1_555 1_555
O2 Zn3B 1_555 1_555
O3 Zn4 1_555 1_555
O4 Zn1 1_555 1_555
O5 Zn3 1_555 1_555
O6 Zn3 1_555 1_555
O7 Zn1 1_555 1_555
O8 Zn2 1_555 1_555
C1 O3 1_555 1_555
C2 O4 1_555 1_555
C3 H1 1_555 1_555
C4 C3 1_555 1_555
H2 C4 1_555 1_555
C5 C2 1_555 1_555
C6 O7 1_555 1_555
C7 O5 1_555 1_555
C8 C4 1_555 1_555
C9 C6 1_555 1_555
C10 C9 1_555 1_555
H3 C10 1_555 1_555
C11 C10 1_555 1_555
H4 C11 1_555 1_555
C12 C1 1_555 1_555
C13 C12 1_555 1_555
H5 C13 1_555 1_555
C14 C9 1_555 1_555
H6 C14 1_555 1_555
O9 Zn2 1_555 1_555
Zn5 O10 1_555 1_555
Zn1B O4V 1_555 1_555
Zn1A O1 1_555 1_555
Zn3A O2 1_555 1_555
O3A Zn4 1_555 1_555
O3B Zn4 1_555 1_555
O4U Zn1 1_555 1_555
O4V C2 1_555 1_555
O5W Zn3 1_555 1_555
O5V C7 1_555 1_555
O8A Zn2 1_555 1_555
O8B Zn2 1_555 1_555
O8U Zn2 1_555 1_555
O8V Zn2 1_555 1_555
O8W Zn2 1_555 1_555
C3V C5 1_555 1_555
C4V C8 1_555 1_555
C6U O7 1_555 1_555
C9U C6 1_555 1_555
C10U C9 1_555 1_555
C11U C10 1_555 1_555
C11N C12 1_555 1_555
C11BA C12 1_555 1_555
C12W C1 1_555 1_555
C12G C11 1_555 1_555
C12HA C11 1_555 1_555
C13W C12 1_555 1_555
C13G C14 1_555 1_555
C13HA C14 1_555 1_555
H5W C13 1_555 1_555
C14N C13 1_555 1_555
H6U C14 1_555 1_555
O10A Zn5 1_555 1_555
O10B Zn5 1_555 1_555
O10I Zn5 1_555 1_555
O10J Zn5 1_555 1_555
O10K Zn5 1_555 1_555
O6 C1 1_555 1_555
O8 C6 1_555 1_555
O8 O8U 1_555 1_555
O8 C6U 1_555 1_555
C3 C5 1_555 1_555
C6 O8U 1_555 1_555
C6 C6U 1_555 1_555
C7 C8 1_555 1_555
C9 C6U 1_555 1_555
C9 C9U 1_555 1_555
C10 C9U 1_555 1_555
C10 C10U 1_555 1_555
C11 C10U 1_555 1_555
C11 C11U 1_555 1_555
C12 C12W 1_555 1_555
C13 C12W 1_555 1_555
C13 C13W 1_555 1_555
H5 C13W 1_555 1_555
H5 H5W 1_555 1_555
C14 C9U 1_555 1_555
H6 H6U 1_555 1_555
Zn3A O5V 1_555 1_555
O8A O8W 1_555 1_555
O8B O8V 1_555 1_555
O8U C6U 1_555 1_555
C3V C4V 1_555 1_555
C6U C9U 1_555 1_555
C9U C10U 1_555 1_555
C10U C11U 1_555 1_555
C11U C12G 1_555 1_555
C11U C12HA 1_555 1_555
C11N C11BA 1_555 1_555
C11N C12W 1_555 1_555
C11BA C12W 1_555 1_555
C12W C13W 1_555 1_555
C12G C12HA 1_555 1_555
C12G C13G 1_555 1_555
C12G C13HA 1_555 1_555
C12HA C13G 1_555 1_555
C12HA C13HA 1_555 1_555
C13W H5W 1_555 1_555
C13W C14N 1_555 1_555
C13G C13HA 1_555 1_555

#END
