
#######################################################################
#
#                 Cambridge Crystallographic Data Centre
#                                CCDC 
#
#######################################################################
#
# If this CIF has been generated from an entry in the Cambridge 
# Structural Database, then it will include bibliographic, chemical, 
# crystal, experimental, refinement or atomic coordinate data resulting 
# from the CCDC's data processing and validation procedures.
#
#######################################################################

data_FECZAQ
_chemical_formula_moiety         '(C33 H25 N1 O15 Zn4)n'
_chemical_name_systematic        
"catena-(bis(\m~4~-Benzene-1,4-dicarboxylato)-(\m~4~-biphenyl-4,4'-dicarboxylato)-(\m~4~-oxo)-aqua-dimethylformamide-tetra-zinc unknown clathrate)"
_symmetry_cell_setting           orthorhombic
_symmetry_space_group_name_H-M   'P n n m'
_symmetry_Int_Tables_number      58
_space_group_name_Hall           '-P 2 2n'
loop_
_symmetry_equiv_pos_site_id
_symmetry_equiv_pos_as_xyz
1 x,y,z
2 -x,-y,z
3 1/2-x,1/2+y,1/2-z
4 1/2+x,1/2-y,1/2-z
5 -x,-y,-z
6 x,y,-z
7 1/2+x,1/2-y,1/2+z
8 1/2-x,1/2+y,1/2+z
_cell_length_a                   18.3770(6)
_cell_length_b                   17.3043(4)
_cell_length_c                   17.9565(5)
_cell_angle_alpha                90
_cell_angle_beta                 90
_cell_angle_gamma                90
_cell_volume                     5710.19
_exptl_crystal_colour            colorless
_exptl_crystal_description       prism
_cell_formula_units_Z            4
loop_
_atom_site_label
_atom_site_type_symbol
_atom_site_fract_x
_atom_site_fract_y
_atom_site_fract_z
Zn1 Zn 0.39337(4) 0.32393(4) 0.0000
Zn2 Zn 0.21553(4) 0.32091(4) 0.0000
Zn3 Zn 0.31234(3) 0.19160(3) -0.08628(3)
O1 O 0.30912(19) 0.2580(2) 0.0000
O2 O 0.4561(2) 0.3038(2) -0.0862(2)
O3 O 0.3798(3) 0.4347(3) 0.0000
O4 O 0.7042(2) 0.1819(2) -0.3805(3)
O5 O 0.4072(2) 0.1992(2) -0.1386(2)
O6 O 0.2595(3) 0.4306(3) 0.0000
O7 O 0.7400(2) 0.2954(2) -0.3368(2)
O8 O 0.3076(2) 1.08125(19) -0.0614(2)
O9 O 0.1149(4) 0.3766(4) 0.0000
H1 H 0.127(8) 0.408(4) 0.0422(6)
O10 O 0.1635(4) 0.2108(4) 0.0000
C1 C 0.3176(4) 0.5522(4) 0.0000
C2 C 0.3065(3) 1.0476(4) 0.0000
C3 C 0.3189(4) 0.4651(3) 0.0000
C4 C 0.6987(3) 0.2380(3) -0.3370(3)
C5 C 0.3731(5) 0.6742(5) -0.0174(7)
H2 H 0.4146 0.7017 -0.0308
C6 C 0.3753(5) 0.5940(5) 0.0153(13)
H3 H 0.4191 0.5691 0.0249
C7 C 0.3098(4) 0.7138(4) 0.0000
C8 C 0.6377(3) 0.2389(3) -0.2821(3)
C9 C 0.5195(3) 0.2443(3) -0.1844(3)
C10 C 0.4557(3) 0.2496(3) -0.1320(3)
C11 C 0.5303(4) 0.1813(3) -0.2287(4)
H4 H 0.4977 0.1402 -0.2268
C12 C 0.5700(4) 0.3036(4) -0.1860(4)
H5 H 0.5651 0.3453 -0.1537
C13 C 0.6278(4) 0.3012(4) -0.2353(4)
H6 H 0.6605 0.3422 -0.2369
C14 C 0.5894(4) 0.1779(3) -0.2767(4)
H7 H 0.5966 0.1340 -0.3056
C15 C 0.3073(3) 0.96095(19) 0.0000
C16 C 0.2878(5) 0.9201(3) 0.0636(2)
H8 H 0.2745 0.9465 0.1066
C17 C 0.2883(5) 0.8398(3) 0.0629(5)
H9 H 0.2750 0.8126 0.1055
C18 C 0.3082(3) 0.80030(19) 0.0002(6)
C19 C 0.3276(5) 0.8412(3) -0.0650(5)
H10 H 0.3407 0.8146 -0.1080
C20 C 0.3272(5) 0.9215(3) 0.0643(2)
H11 H 0.3402 0.9488 0.1069
C21 C 0.2531(6) 0.5898(5) -0.0208(6)
H12 H 0.2123 0.5614 -0.0345
C22 C 0.2507(7) 0.6722(5) -0.0208(7)
H13 H 0.2083 0.6975 -0.0351
N1 N 0.0659(10) 0.1305(10) 0.0000
C23 C 0.1069(10) 0.2005(12) 0.0000
H14 H 0.0786 0.2451 0.0000
C24 C 0.1077(13) 0.0671(15) 0.0346(13)
H15 H 0.1583 0.0806 0.0360
H16 H 0.1015 0.0207 0.0059
H17 H 0.0904 0.0586 0.0844
C25 C -0.0183(14) 0.123(2) 0.0000
Zn2C Zn 0.71553(4) 0.17909(4) -0.5000
Zn2C_2 Zn 0.71553(4) 0.17909(4) 0.5000
Zn3E Zn 0.31234(3) 0.19160(3) 0.08628(3)
Zn3C Zn 0.81234(3) 0.30840(3) -0.41372(3)
Zn3_2 Zn 0.31234(3) 1.19160(3) -0.08628(3)
Zn3E_2 Zn 0.31234(3) 1.19160(3) 0.08628(3)
Zn3F Zn 0.81234(3) 0.30840(3) 0.41372(3)
O2E O 0.4561(2) 0.3038(2) 0.0862(2)
O4E O 0.7042(2) 0.1819(2) 0.3805(3)
O4C O 0.2042(2) 0.3181(2) -0.1195(3)
O4F O 0.2042(2) 0.3181(2) 0.1195(3)
O5E O 0.4072(2) 0.1992(2) 0.1386(2)
O7E O 0.7400(2) 0.2954(2) 0.3368(2)
O7C O 0.2400(2) 0.2046(2) -0.1632(2)
O7F O 0.2400(2) 0.2046(2) 0.1632(2)
O8E O 0.3076(2) 1.08125(19) 0.0614(2)
O8_2 O 0.3076(2) 0.08125(19) -0.0614(2)
O8E_2 O 0.3076(2) 0.08125(19) 0.0614(2)
H1E H 0.127(8) 0.408(4) -0.0422(6)
C4E C 0.6987(3) 0.2380(3) 0.3370(3)
C5E C 0.3731(5) 0.6742(5) 0.0174(7)
H2E H 0.4146 0.7017 0.0308
C6E C 0.3753(5) 0.5940(5) -0.0153(13)
H3E H 0.4191 0.5691 -0.0249
C8E C 0.6377(3) 0.2389(3) 0.2821(3)
C9E C 0.5195(3) 0.2443(3) 0.1844(3)
C10E C 0.4557(3) 0.2496(3) 0.1320(3)
C11E C 0.5303(4) 0.1813(3) 0.2287(4)
H4E H 0.4977 0.1402 0.2268
C12E C 0.5700(4) 0.3036(4) 0.1860(4)
H5E H 0.5651 0.3453 0.1537
C13E C 0.6278(4) 0.3012(4) 0.2353(4)
H6E H 0.6605 0.3422 0.2369
C14E C 0.5894(4) 0.1779(3) 0.2767(4)
H7E H 0.5966 0.1340 0.3056
C16E C 0.2878(5) 0.9201(3) -0.0636(2)
H8E H 0.2745 0.9465 -0.1066
C17E C 0.2883(5) 0.8398(3) -0.0629(5)
H9E H 0.2750 0.8126 -0.1055
C19E C 0.3276(5) 0.8412(3) 0.0650(5)
H10E H 0.3407 0.8146 0.1080
C20E C 0.3272(5) 0.9215(3) -0.0643(2)
H11E H 0.3402 0.9488 -0.1069
C21E C 0.2531(6) 0.5898(5) 0.0208(6)
H12E H 0.2123 0.5614 0.0345
C22E C 0.2507(7) 0.6722(5) 0.0208(7)
H13E H 0.2083 0.6975 0.0351
C24E C 0.1077(13) 0.0671(15) -0.0346(13)
H15E H 0.1583 0.0806 -0.0360
H16E H 0.1015 0.0207 -0.0059
H17E H 0.0904 0.0586 -0.0844
H18? H -0.0389 0.1597 0.0337
H19? H -0.0315 0.0714 0.0156
H20? H -0.0365 0.1318 -0.0493
loop_
_geom_bond_atom_site_label_1
_geom_bond_atom_site_label_2
_geom_bond_site_symmetry_1
_geom_bond_site_symmetry_2
Zn1 O1 1_555 1_555
Zn2 O1 1_555 1_555
Zn3 O1 1_555 1_555
O1 Zn3E 1_555 1_555
O2 Zn1 1_555 1_555
O3 Zn1 1_555 1_555
O4 C4 1_555 1_555
O5 Zn3 1_555 1_555
O6 Zn2 1_555 1_555
O7 C4 1_555 1_555
O8 C2 1_555 1_555
O9 Zn2 1_555 1_555
H1 O9 1_555 1_555
O10 Zn2 1_555 1_555
C1 C3 1_555 1_555
C2 C15 1_555 1_555
C3 O3 1_555 1_555
C4 C8 1_555 1_555
C5 H2 1_555 1_555
H2 C5E 1_555 1_555
C6 C1 1_555 1_555
H3 C6 1_555 1_555
C7 C5 1_555 1_555
C8 C13 1_555 1_555
C9 C10 1_555 1_555
C10 O2 1_555 1_555
C11 C9 1_555 1_555
H4 C11 1_555 1_555
C12 C9 1_555 1_555
H5 C12 1_555 1_555
C13 C12 1_555 1_555
H6 C13 1_555 1_555
C14 C8 1_555 1_555
H7 C14 1_555 1_555
C15 C16 1_555 1_555
C16 H8 1_555 1_555
H8 C20 1_555 1_555
C17 C16 1_555 1_555
H9 C17 1_555 1_555
C18 C7 1_555 1_555
C19 C18 1_555 1_555
H10 C19 1_555 1_555
C20 C15 1_555 1_555
H11 C20 1_555 1_555
C21 C1 1_555 1_555
H12 C21 1_555 1_555
C22 C7 1_555 1_555
H13 C22 1_555 1_555
N1 C23 1_555 1_555
C23 O10 1_555 1_555
H14 C23 1_555 1_555
C24 N1 1_555 1_555
H15 C24 1_555 1_555
H16 C24 1_555 1_555
H17 C24 1_555 1_555
C25 N1 1_555 1_555
Zn2C O4 1_555 1_555
Zn2C_2 O4E 1_555 1_555
Zn3E O5E 1_555 1_555
Zn3C O7 1_555 1_555
Zn3_2 O8 1_555 1_555
Zn3E_2 O8E 1_555 1_555
Zn3F O7E 1_555 1_555
O2E Zn1 1_555 1_555
O4E C4E 1_555 1_555
O4C Zn2 1_555 1_555
O4F Zn2 1_555 1_555
O5E C10E 1_555 1_555
O7E C4E 1_555 1_555
O7C Zn3 1_555 1_555
O7F Zn3E 1_555 1_555
O8E C2 1_555 1_555
O8_2 Zn3 1_555 1_555
O8E_2 Zn3E 1_555 1_555
H1E O9 1_555 1_555
C4E C8E 1_555 1_555
C5E C5 1_555 1_555
H2E C5 1_555 1_555
C6E C1 1_555 1_555
H3E C6 1_555 1_555
C8E C13E 1_555 1_555
C9E C10E 1_555 1_555
C10E O2E 1_555 1_555
C11E C9E 1_555 1_555
H4E C11E 1_555 1_555
C12E C9E 1_555 1_555
H5E C12E 1_555 1_555
C13E C12E 1_555 1_555
H6E C13E 1_555 1_555
C14E C8E 1_555 1_555
H7E C14E 1_555 1_555
C16E C15 1_555 1_555
H8E C16E 1_555 1_555
C17E C18 1_555 1_555
H9E C19 1_555 1_555
C19E C16 1_555 1_555
H10E C19E 1_555 1_555
C20E C15 1_555 1_555
H11E C20E 1_555 1_555
C21E C1 1_555 1_555
H12E C21E 1_555 1_555
C22E C7 1_555 1_555
H13E C22E 1_555 1_555
C24E N1 1_555 1_555
H15E C24E 1_555 1_555
H16E C24 1_555 1_555
H17E C24E 1_555 1_555
O5 C10 1_555 1_555
O6 C3 1_555 1_555
C5 C6 1_555 1_555
C5 C6E 1_555 1_555
C6 C5E 1_555 1_555
C6 C6E 1_555 1_555
H3 C6E 1_555 1_555
C7 C5E 1_555 1_555
C11 C14 1_555 1_555
C16 C20 1_555 1_555
C17 C18 1_555 1_555
C17 C20 1_555 1_555
C17 C19E 1_555 1_555
H9 C19E 1_555 1_555
C18 C19E 1_555 1_555
C19 C16E 1_555 1_555
C19 C17E 1_555 1_555
C19 C20E 1_555 1_555
C20 C19E 1_555 1_555
C21 C22 1_555 1_555
C21 C21E 1_555 1_555
C21 C22E 1_555 1_555
C22 C21E 1_555 1_555
C22 C22E 1_555 1_555
C24 C24E 1_555 1_555
H16 C24E 1_555 1_555
H16 H16E 1_555 1_555
C5E H2E 1_555 1_555
C5E C6E 1_555 1_555
C6E H3E 1_555 1_555
C11E C14E 1_555 1_555
C16E C17E 1_555 1_555
C16E C20E 1_555 1_555
H8E C20E 1_555 1_555
C17E H9E 1_555 1_555
C17E C20E 1_555 1_555
C21E C22E 1_555 1_555
C24E H16E 1_555 1_555

#END
