
#######################################################################
#
#                 Cambridge Crystallographic Data Centre
#                                CCDC 
#
#######################################################################
#
# If this CIF has been generated from an entry in the Cambridge 
# Structural Database, then it will include bibliographic, chemical, 
# crystal, experimental, refinement or atomic coordinate data resulting 
# from the CCDC's data processing and validation procedures.
#
#######################################################################

data_LEVLEF
_chemical_formula_moiety         
'(C44 H36 Mg4 O26)n,3.25n(H2 O1),6.5n(C3 H7 N1 O1)'
_chemical_name_systematic        
'catena-[(\m~8~-Pyrene-1,3,6,8-tetracarboxylato)-(\m~4~-pyrene-1,3,6,8-tetracarboxylato)-bis(\m~2~-aqua)-(\m~2~-dioxane)-hexaaqua-tetra-magnesium dimethylformamide solvate hydrate]'
_symmetry_cell_setting           cubic
_symmetry_space_group_name_H-M   'I m -3 m'
_symmetry_Int_Tables_number      229
_space_group_name_Hall           '-I 4 2 3'
loop_
_symmetry_equiv_pos_site_id
_symmetry_equiv_pos_as_xyz
1 x,y,z
2 -x,-y,z
3 -x,y,-z
4 x,-y,-z
5 z,x,y
6 z,-x,-y
7 -z,-x,y
8 -z,x,-y
9 y,z,x
10 -y,z,-x
11 y,-z,-x
12 -y,-z,x
13 y,x,-z
14 -y,-x,-z
15 y,-x,z
16 -y,x,z
17 x,z,-y
18 -x,z,y
19 -x,-z,-y
20 x,-z,y
21 z,y,-x
22 z,-y,x
23 -z,y,x
24 -z,-y,-x
25 1/2+x,1/2+y,1/2+z
26 1/2-x,1/2-y,1/2+z
27 1/2-x,1/2+y,1/2-z
28 1/2+x,1/2-y,1/2-z
29 1/2+z,1/2+x,1/2+y
30 1/2+z,1/2-x,1/2-y
31 1/2-z,1/2-x,1/2+y
32 1/2-z,1/2+x,1/2-y
33 1/2+y,1/2+z,1/2+x
34 1/2-y,1/2+z,1/2-x
35 1/2+y,1/2-z,1/2-x
36 1/2-y,1/2-z,1/2+x
37 1/2+y,1/2+x,1/2-z
38 1/2-y,1/2-x,1/2-z
39 1/2+y,1/2-x,1/2+z
40 1/2-y,1/2+x,1/2+z
41 1/2+x,1/2+z,1/2-y
42 1/2-x,1/2+z,1/2+y
43 1/2-x,1/2-z,1/2-y
44 1/2+x,1/2-z,1/2+y
45 1/2+z,1/2+y,1/2-x
46 1/2+z,1/2-y,1/2+x
47 1/2-z,1/2+y,1/2+x
48 1/2-z,1/2-y,1/2-x
49 -x,-y,-z
50 x,y,-z
51 x,-y,z
52 -x,y,z
53 -z,-x,-y
54 -z,x,y
55 z,x,-y
56 z,-x,y
57 -y,-z,-x
58 y,-z,x
59 -y,z,x
60 y,z,-x
61 -y,-x,z
62 y,x,z
63 -y,x,-z
64 y,-x,-z
65 -x,-z,y
66 x,-z,-y
67 x,z,y
68 -x,z,-y
69 -z,-y,x
70 -z,y,-x
71 z,-y,-x
72 z,y,x
73 1/2-x,1/2-y,1/2-z
74 1/2+x,1/2+y,1/2-z
75 1/2+x,1/2-y,1/2+z
76 1/2-x,1/2+y,1/2+z
77 1/2-z,1/2-x,1/2-y
78 1/2-z,1/2+x,1/2+y
79 1/2+z,1/2+x,1/2-y
80 1/2+z,1/2-x,1/2+y
81 1/2-y,1/2-z,1/2-x
82 1/2+y,1/2-z,1/2+x
83 1/2-y,1/2+z,1/2+x
84 1/2+y,1/2+z,1/2-x
85 1/2-y,1/2-x,1/2+z
86 1/2+y,1/2+x,1/2+z
87 1/2-y,1/2+x,1/2-z
88 1/2+y,1/2-x,1/2-z
89 1/2-x,1/2-z,1/2+y
90 1/2+x,1/2-z,1/2-y
91 1/2+x,1/2+z,1/2+y
92 1/2-x,1/2+z,1/2-y
93 1/2-z,1/2-y,1/2+x
94 1/2-z,1/2+y,1/2-x
95 1/2+z,1/2-y,1/2-x
96 1/2+z,1/2+y,1/2+x
_cell_length_a                   35.19380(10)
_cell_length_b                   35.19380(10)
_cell_length_c                   35.19380(10)
_cell_angle_alpha                90
_cell_angle_beta                 90
_cell_angle_gamma                90
_cell_volume                     43591.2
_exptl_crystal_colour            yellow
_exptl_crystal_description       block
_cell_formula_units_Z            24
loop_
_atom_site_label
_atom_site_type_symbol
_atom_site_fract_x
_atom_site_fract_y
_atom_site_fract_z
Mg1 Mg 0.3307(4) 0.1153(4) 0.1153(4)
O1 O 0.3040(9) 0.0793(9) 0.079(3)
Mg2 Mg 0.40625(12) 0.16325(12) 0.16325(17)
O2 O 0.3483(3) 0.1555(3) 0.1555(4)
O3 O 0.3983(6) 0.2224(4) 0.1618(5)
O4 O 0.46080(18) 0.17148(18) 0.1715(2)
C1 C 0.4821(3) 0.2017(3) 0.1516(2)
H1 H 0.4738 0.2014 0.1247
H2 H 0.4738 0.2263 0.1624
C4 C 0.3973(2) 0.0728(2) 0.14550(19)
C5 C 0.4192(2) 0.0351(2) 0.14680(16)
C6 C 0.4595(3) 0.03568(16) 0.14890(16)
C7 C 0.4812(3) 0.07015(17) 0.14830(18)
H7 H 0.4681 0.0938 0.1479
C8 C 0.4001(3) 0.0000 0.1456(2)
H8 H 0.3732 0.0000 0.1439
C9 C 0.4802(3) 0.0000 0.14860(18)
C10 C 0.28696(18) 0.18910(18) 0.1028(2)
C11 C 0.26169(18) 0.21267(15) 0.08036(18)
C12 C 0.26311(17) 0.21289(16) 0.04131(17)
C13 C 0.28760(16) 0.18851(15) 0.01881(18)
H9 H 0.3044 0.1718 0.0317
C14 C 0.23655(19) 0.23655(19) 0.02089(19)
C15 C 0.2387(2) 0.23870(17) 0.09970(17)
H10 H 0.2408 0.2408 0.1266
O8 O 0.36586(14) 0.07022(13) 0.12735(13)
O9 O 0.40852(14) 0.09982(16) 0.16550(16)
O10 O 0.29203(11) 0.15468(12) 0.09572(11)
O11 O 0.30448(16) 0.20669(15) 0.13244(16)
Mg1Q Mg 0.6693(4) 0.1153(4) 0.1153(4)
Mg1A Mg 0.6693(4) -0.1153(4) 0.1153(4)
Mg1S Mg 0.3307(4) -0.1153(4) 0.1153(4)
Mg1P Mg 0.3307(4) 0.1153(4) -0.1153(4)
Mg1L Mg 0.1153(4) 0.3307(4) -0.1153(4)
Mg1D Mg 0.1153(4) 0.3307(4) 0.1153(4)
O1YA O 0.6960(9) 0.0793(9) 0.079(3)
Mg2Q Mg 0.59375(12) 0.16325(17) 0.16325(12)
Mg2A Mg 0.59375(12) -0.16325(12) 0.16325(17)
Mg2S Mg 0.40625(12) -0.16325(17) 0.16325(12)
O2Q O 0.6517(3) 0.1555(4) 0.1555(3)
O3NB O 0.3983(6) 0.1618(5) 0.2224(4)
O3YA O 0.6017(6) 0.2224(4) 0.1618(5)
O3Q O 0.6017(6) 0.1618(5) 0.2224(4)
O4YA O 0.53920(18) 0.17148(18) 0.1715(2)
C1YA C 0.5179(3) 0.2017(3) 0.1516(2)
C1Q C 0.5179(3) 0.1516(2) 0.2017(3)
C1NB C 0.4821(3) 0.1516(2) 0.2017(3)
H1Q H 0.5262 0.1247 0.2014
H1NB H 0.4738 0.1247 0.2014
H1YA H 0.5262 0.2014 0.1247
H2Q H 0.5262 0.1624 0.2263
H2NB H 0.4738 0.1624 0.2263
H2YA H 0.5262 0.2263 0.1624
C4YA C 0.6027(2) 0.0728(2) 0.14550(19)
C4A C 0.6027(2) -0.0728(2) 0.14550(19)
C4XA C 0.3973(2) -0.0728(2) 0.14550(19)
C5YA C 0.5808(2) 0.0351(2) 0.14680(16)
C5A C 0.5808(2) -0.0351(2) 0.14680(16)
C5XA C 0.4192(2) -0.0351(2) 0.14680(16)
C6YA C 0.5405(3) 0.03568(16) 0.14890(16)
C6A C 0.5405(3) -0.03568(16) 0.14890(16)
C6XA C 0.4595(3) -0.03568(16) 0.14890(16)
C7YA C 0.5188(3) 0.07015(17) 0.14830(18)
C7A C 0.5188(3) -0.07015(17) 0.14830(18)
C7XA C 0.4812(3) -0.07015(17) 0.14830(18)
H7XA H 0.4681 -0.0938 0.1479
H7A H 0.5319 -0.0938 0.1479
H7YA H 0.5319 0.0938 0.1479
C8A C 0.5999(3) 0.0000 0.1456(2)
H8A H 0.6268 0.0000 0.1439
C9A C 0.5198(3) 0.0000 0.14860(18)
C10WA C 0.28696(18) 0.18910(18) -0.1028(2)
C10L C 0.18910(18) 0.28696(18) -0.1028(2)
C10IB C 0.18910(18) 0.28696(18) 0.1028(2)
C11WA C 0.26169(18) 0.21267(15) -0.08036(18)
C11L C 0.21267(15) 0.26169(18) -0.08036(18)
C11IB C 0.21267(15) 0.26169(18) 0.08036(18)
C12WA C 0.26311(17) 0.21289(16) -0.04131(17)
C12L C 0.21289(16) 0.26311(17) -0.04131(17)
C12IB C 0.21289(16) 0.26311(17) 0.04131(17)
C13WA C 0.28760(16) 0.18851(15) -0.01881(18)
C13L C 0.18851(15) 0.28760(16) -0.01881(18)
C13IB C 0.18851(15) 0.28760(16) 0.01881(18)
H9IB H 0.1718 0.3044 0.0317
H9L H 0.1718 0.3044 -0.0317
H9WA H 0.3044 0.1718 -0.0317
C14L C 0.23655(19) 0.23655(19) -0.02089(19)
C15L C 0.23870(17) 0.2387(2) -0.09970(17)
H10L H 0.2408 0.2408 -0.1266
O8YA O 0.63414(14) 0.07022(13) 0.12735(13)
O8A O 0.63414(14) -0.07022(13) 0.12735(13)
O8XA O 0.36586(14) -0.07022(13) 0.12735(13)
O8NB O 0.36586(14) 0.12735(13) 0.07022(13)
O8Q O 0.63414(14) 0.12735(13) 0.07022(13)
O9YA O 0.59148(14) 0.09982(16) 0.16550(16)
O9A O 0.59148(14) -0.09982(16) 0.16550(16)
O9XA O 0.40852(14) -0.09982(16) 0.16550(16)
O9NB O 0.40852(14) 0.16550(16) 0.09982(16)
O9Q O 0.59148(14) 0.16550(16) 0.09982(16)
O10WA O 0.29203(11) 0.15468(12) -0.09572(11)
O10L O 0.15468(12) 0.29203(11) -0.09572(11)
O10IB O 0.15468(12) 0.29203(11) 0.09572(11)
O10NB O 0.29203(11) 0.09572(11) 0.15468(12)
O10YA O 0.70797(11) 0.15468(12) 0.09572(11)
O10Q O 0.70797(11) 0.09572(11) 0.15468(12)
O11WA O 0.30448(16) 0.20669(15) -0.13244(16)
O11L O 0.20669(15) 0.30448(16) -0.13244(16)
O11IB O 0.20669(15) 0.30448(16) 0.13244(16)
Mg3? Mg 0.3266(4) 0.1094(4) 0.1094(4)
O5? O 0.3040(9) 0.0722(9) 0.072(3)
Mg4? Mg 0.32717(18) 0.18075(12) 0.18075(12)
O6? O 0.3602(3) 0.1454(3) 0.1454(5)
O7? O 0.20958(19) 0.20958(19) 0.2878(4)
C2? C 0.2039(4) 0.2039(4) 0.2468(4)
H3? H 0.1777 0.2093 0.2411
H4? H 0.2908 0.3222 0.2589
C3? C 0.2500 0.2139(3) 0.2861(3)
H5? H 0.2056 0.2390 0.3110
H6? H 0.2428 0.1815 0.2737
O12? O 0.3636(5) 0.2276(6) 0.1647(6)
loop_
_geom_bond_atom_site_label_1
_geom_bond_atom_site_label_2
_geom_bond_site_symmetry_1
_geom_bond_site_symmetry_2
Mg1 O1 1_555 1_555
Mg2 O2 1_555 1_555
O2 Mg1 1_555 1_555
O3 Mg2 1_555 1_555
O4 Mg2 1_555 1_555
C1 O4 1_555 1_555
H1 C1 1_555 1_555
H2 C1 1_555 1_555
C4 C5 1_555 1_555
C5 C6 1_555 1_555
C6 C7 1_555 1_555
C7 H7 1_555 1_555
C8 C5 1_555 1_555
H8 C8 1_555 1_555
C9 C6 1_555 1_555
C10 C11 1_555 1_555
C11 C12 1_555 1_555
C12 C13 1_555 1_555
C13 H9 1_555 1_555
C14 C12 1_555 1_555
C15 C11 1_555 1_555
H10 C15 1_555 1_555
O8 Mg1 1_555 1_555
O9 Mg2 1_555 1_555
O10 Mg1 1_555 1_555
O11 C10 1_555 1_555
Mg1Q O1YA 1_555 1_555
Mg1A O8A 1_555 1_555
Mg1S O8XA 1_555 1_555
Mg1P O10WA 1_555 1_555
Mg1L O10L 1_555 1_555
Mg1D O10IB 1_555 1_555
Mg2Q O2Q 1_555 1_555
Mg2A O9A 1_555 1_555
Mg2S O9XA 1_555 1_555
O2Q Mg1Q 1_555 1_555
O3NB Mg2 1_555 1_555
O3YA Mg2Q 1_555 1_555
O3Q Mg2Q 1_555 1_555
O4YA Mg2Q 1_555 1_555
C1YA C1 1_555 1_555
C1Q O4YA 1_555 1_555
C1NB O4 1_555 1_555
H1Q C1Q 1_555 1_555
H1NB C1NB 1_555 1_555
H1YA C1YA 1_555 1_555
H2Q C1Q 1_555 1_555
H2NB C1NB 1_555 1_555
H2YA C1YA 1_555 1_555
C4YA C5YA 1_555 1_555
C4A C5A 1_555 1_555
C4XA C5XA 1_555 1_555
C5YA C6YA 1_555 1_555
C5A C6A 1_555 1_555
C5XA C8 1_555 1_555
C6YA C7YA 1_555 1_555
C6A C7A 1_555 1_555
C6XA C9 1_555 1_555
C7YA C7 1_555 1_555
C7A C7XA 1_555 1_555
C7XA C6XA 1_555 1_555
H7XA C7XA 1_555 1_555
H7A C7A 1_555 1_555
H7YA C7YA 1_555 1_555
C8A C5YA 1_555 1_555
H8A C8A 1_555 1_555
C9A C9 1_555 1_555
C10WA C11WA 1_555 1_555
C10L C11L 1_555 1_555
C10IB C11IB 1_555 1_555
C11WA C12WA 1_555 1_555
C11L C12L 1_555 1_555
C11IB C15 1_555 1_555
C12WA C13WA 1_555 1_555
C12L C13L 1_555 1_555
C12IB C14 1_555 1_555
C13WA C13 1_555 1_555
C13L C13IB 1_555 1_555
C13IB C12IB 1_555 1_555
H9IB C13IB 1_555 1_555
H9L C13L 1_555 1_555
H9WA C13WA 1_555 1_555
C14L C14 1_555 1_555
C15L C11WA 1_555 1_555
H10L C15L 1_555 1_555
O8YA Mg1Q 1_555 1_555
O8A C4A 1_555 1_555
O8XA C4XA 1_555 1_555
O8NB Mg1 1_555 1_555
O8Q Mg1Q 1_555 1_555
O9YA Mg2Q 1_555 1_555
O9A C4A 1_555 1_555
O9XA C4XA 1_555 1_555
O9NB Mg2 1_555 1_555
O9Q Mg2Q 1_555 1_555
O10WA C10WA 1_555 1_555
O10L C10L 1_555 1_555
O10IB C10IB 1_555 1_555
O10NB Mg1 1_555 1_555
O10YA Mg1Q 1_555 1_555
O10Q Mg1Q 1_555 1_555
O11WA C10WA 1_555 1_555
O11L C10L 1_555 1_555
O11IB C10IB 1_555 1_555
C4 O8 1_555 1_555
C4 O9 1_555 1_555
C10 O10 1_555 1_555
O4YA C1YA 1_555 1_555
C1Q C1NB 1_555 1_555
C4YA O8YA 1_555 1_555
C4YA O9YA 1_555 1_555
C5A C8A 1_555 1_555
C5XA C6XA 1_555 1_555
C6YA C9A 1_555 1_555
C6A C9A 1_555 1_555
C11L C15L 1_555 1_555
C11IB C12IB 1_555 1_555
C12WA C14L 1_555 1_555
C12L C14L 1_555 1_555

#END
