
#######################################################################
#
#                 Cambridge Crystallographic Data Centre
#                                CCDC 
#
#######################################################################
#
# If this CIF has been generated from an entry in the Cambridge 
# Structural Database, then it will include bibliographic, chemical, 
# crystal, experimental, refinement or atomic coordinate data resulting 
# from the CCDC's data processing and validation procedures.
#
#######################################################################

data_DOGJUF
_chemical_formula_moiety         '(C20 H16 Cu1 N4 O6 S2)n,n(H2 O1)'
_chemical_name_systematic        
"catena-[(\m~2~-4,4'-Bipyridine-N,N')-bis(2-pyridinesulfonato-N,O)-copper(ii) monohydrate clathrate]"
_symmetry_cell_setting           monoclinic
_symmetry_space_group_name_H-M   'P 2/n'
_symmetry_Int_Tables_number      13
_space_group_name_Hall           '-P 2yac'
loop_
_symmetry_equiv_pos_site_id
_symmetry_equiv_pos_as_xyz
1 x,y,z
2 1/2-x,y,1/2-z
3 -x,-y,-z
4 1/2+x,-y,1/2+z
_cell_length_a                   10.839(8)
_cell_length_b                   11.142(8)
_cell_length_c                   10.899(8)
_cell_angle_alpha                90
_cell_angle_beta                 102.925(8)
_cell_angle_gamma                90
_cell_volume                     1282.9
_exptl_crystal_colour            blue
_exptl_crystal_description       block
_cell_formula_units_Z            2
loop_
_atom_site_label
_atom_site_type_symbol
_atom_site_fract_x
_atom_site_fract_y
_atom_site_fract_z
Cu1 Cu -0.2500 -0.34686(7) -0.2500
S1 S -0.33044(14) -0.32277(15) -0.54969(14)
O1 O -0.3892(4) -0.3341(4) -0.4431(4)
O2 O -0.3522(6) -0.2094(6) -0.6125(6)
O3 O -0.3553(6) -0.4231(6) -0.6334(5)
N1 N -0.1246(4) -0.3473(4) -0.3623(4)
N2 N -0.2500 -0.5301(5) -0.2500
N3 N -0.2500 -1.1631(5) -0.2500
C1 C -0.1653(6) -0.3305(5) -0.4861(5)
C2 C -0.0851(8) -0.3253(9) -0.5664(7)
H1 H -0.1154 -0.3111 -0.6519
C3 C 0.0463(8) -0.3422(11) -0.5148(9)
H2 H 0.1030 -0.3422 -0.5675
C4 C 0.0884(7) -0.3581(11) -0.3916(8)
H3 H 0.1746 -0.3664 -0.3570
C5 C 0.0013(6) -0.3619(7) -0.3155(6)
H4 H 0.0304 -0.3749 -0.2296
C6 C -0.1691(5) -0.5919(4) -0.1615(5)
H5 H -0.1129 -0.5497 -0.0995
C7 C -0.1660(5) -0.7157(5) -0.1587(6)
H6 H -0.1080 -0.7556 -0.0961
C8 C -0.2500 -0.7806(6) -0.2500
C9 C -0.2500 -0.9124(6) -0.2500
C10 C -0.1378(6) -0.9757(5) -0.2074(7)
H7 H -0.0616 -0.9355 -0.1787
C11 C -0.1424(6) -1.1003(5) -0.2086(7)
H8 H -0.0676 -1.1425 -0.1794
C7A C -0.3340(5) -0.7157(5) -0.3413(6)
C6A C -0.3309(5) -0.5919(4) -0.3385(5)
H5A H -0.3871 -0.5497 -0.4005
H6A H -0.3920 -0.7556 -0.4039
C11A C -0.3576(6) -1.1003(5) -0.2914(7)
C10A C -0.3622(6) -0.9757(5) -0.2926(7)
H7A H -0.4384 -0.9355 -0.3213
H8A H -0.4324 -1.1425 -0.3206
S1A S -0.16956(14) -0.32277(15) 0.04969(14)
O1A O -0.1108(4) -0.3341(4) -0.0569(4)
O2A O -0.1478(6) -0.2094(6) 0.1125(6)
O3A O -0.1447(6) -0.4231(6) 0.1334(5)
N1A N -0.3754(4) -0.3473(4) -0.1377(4)
C1A C -0.3347(6) -0.3305(5) -0.0139(5)
C2A C -0.4149(8) -0.3253(9) 0.0664(7)
H1A H -0.3846 -0.3111 0.1519
C3A C -0.5463(8) -0.3422(11) 0.0148(9)
H2A H -0.6030 -0.3422 0.0675
C4A C -0.5884(7) -0.3581(11) -0.1084(8)
H3A H -0.6746 -0.3664 -0.1430
C5A C -0.5013(6) -0.3619(7) -0.1845(6)
H4A H -0.5304 -0.3749 -0.2704
N3_2 N -0.2500 -0.1631(5) -0.2500
Cu1_2 Cu -0.2500 -1.34686(7) -0.2500
O4 O 0.203(3) -1.056(3) -0.117(3)
H9 H 0.2772 -1.0840 -0.1023
H10 H 0.1870 -0.9856 -0.1479
loop_
_geom_bond_atom_site_label_1
_geom_bond_atom_site_label_2
_geom_bond_site_symmetry_1
_geom_bond_site_symmetry_2
Cu1 O1 1_555 1_555
S1 O1 1_555 1_555
O2 S1 1_555 1_555
O3 S1 1_555 1_555
N1 Cu1 1_555 1_555
N2 Cu1 1_555 1_555
N3 C11 1_555 1_555
C1 S1 1_555 1_555
C2 C1 1_555 1_555
H1 C2 1_555 1_555
C3 C2 1_555 1_555
H2 C3 1_555 1_555
C4 C3 1_555 1_555
H3 C4 1_555 1_555
C5 N1 1_555 1_555
H4 C5 1_555 1_555
C6 N2 1_555 1_555
H5 C6 1_555 1_555
C7 C6 1_555 1_555
H6 C7 1_555 1_555
C8 C7 1_555 1_555
C9 C8 1_555 1_555
C10 C9 1_555 1_555
H7 C10 1_555 1_555
C11 C10 1_555 1_555
H8 C11 1_555 1_555
O4 H9 1_555 1_555
H10 O4 1_555 1_555
C7A C8 1_555 1_555
C6A N2 1_555 1_555
H5A C6A 1_555 1_555
H6A C7A 1_555 1_555
C11A N3 1_555 1_555
C10A C9 1_555 1_555
H7A C10A 1_555 1_555
H8A C11A 1_555 1_555
S1A O1A 1_555 1_555
O1A Cu1 1_555 1_555
O2A S1A 1_555 1_555
O3A S1A 1_555 1_555
N1A Cu1 1_555 1_555
C1A S1A 1_555 1_555
C2A C1A 1_555 1_555
H1A C2A 1_555 1_555
C3A C2A 1_555 1_555
H2A C3A 1_555 1_555
C4A C3A 1_555 1_555
H3A C4A 1_555 1_555
C5A N1A 1_555 1_555
H4A C5A 1_555 1_555
N3_2 Cu1 1_555 1_555
Cu1_2 N3 1_555 1_555
N1 C1 1_555 1_555
C4 C5 1_555 1_555
C7A C6A 1_555 1_555
C11A C10A 1_555 1_555
N1A C1A 1_555 1_555
C4A C5A 1_555 1_555

#END
