
#######################################################################
#
#                 Cambridge Crystallographic Data Centre
#                                CCDC 
#
#######################################################################
#
# If this CIF has been generated from an entry in the Cambridge 
# Structural Database, then it will include bibliographic, chemical, 
# crystal, experimental, refinement or atomic coordinate data resulting 
# from the CCDC's data processing and validation procedures.
#
#######################################################################

data_KASPOL
_chemical_formula_moiety         '(C8 H10 Cu1 O6 P2)n,2n(H2 O1)'
_chemical_name_systematic        
'catena-((\m~4~-Dimethyl benzene-1,4-diphosphonato)-copper dihydrate)'
_symmetry_cell_setting           monoclinic
_symmetry_space_group_name_H-M   'C 2/c'
_symmetry_Int_Tables_number      15
_space_group_name_Hall           '-C 2yc'
loop_
_symmetry_equiv_pos_site_id
_symmetry_equiv_pos_as_xyz
1 x,y,z
2 -x,y,1/2-z
3 1/2+x,1/2+y,z
4 1/2-x,1/2+y,1/2-z
5 -x,-y,-z
6 x,-y,1/2+z
7 1/2-x,1/2-y,-z
8 1/2+x,1/2-y,1/2+z
_cell_length_a                   18.8682(6)
_cell_length_b                   7.0236(2)
_cell_length_c                   9.8589(3)
_cell_angle_alpha                90
_cell_angle_beta                 90.884(3)
_cell_angle_gamma                90
_cell_volume                     1306.37
_exptl_crystal_colour            'blue green'
_exptl_crystal_description       block
_cell_formula_units_Z            4
loop_
_atom_site_label
_atom_site_type_symbol
_atom_site_fract_x
_atom_site_fract_y
_atom_site_fract_z
_atom_site_U_iso_or_equiv
_atom_site_thermal_displace_type
Cu1 Cu 0.0000 1.06378(18) -0.2500 0.0207 Uani
P1 P 0.10442(7) 1.0175(2) 0.00691(14) 0.0235 Uani
O1 O 0.0526(2) 1.1147(7) -0.0855(4) 0.0287 Uani
O2 O 0.1218(3) 0.8198(7) -0.0603(5) 0.0376 Uani
O3 O 0.0855(2) 0.9932(7) 0.1530(4) 0.0287 Uani
C1 C 0.1869(3) 1.1497(9) 0.0052(5) 0.0210 Uani
C2 C 0.2180(3) 1.2178(9) 0.1238(5) 0.0226 Uani
H1 H 0.1965 1.1965 0.2067 0.0270 Uiso
C3 C 0.2187(3) 1.1824(9) -0.1184(6) 0.0234 Uani
H2 H 0.1975 1.1372 -0.1979 0.0280 Uiso
C4 C 0.1530(8) 0.6758(18) 0.0142(12) 0.0941 Uani
H3 H 0.2020 0.7057 0.0308 0.1410 Uiso
H4 H 0.1495 0.5585 -0.0354 0.1410 Uiso
H5 H 0.1293 0.6629 0.0991 0.1410 Uiso
Cu1D Cu 0.0000 0.93622(18) 0.2500 0.0207 Uani
Cu1F Cu 0.5000 1.43622(18) 0.2500 0.0207 Uani
Cu1B Cu 0.5000 1.56378(18) -0.2500 0.0207 Uani
P1F P 0.39558(7) 1.4825(2) -0.00691(14) 0.0235 Uani
O1F O 0.4474(2) 1.3853(7) 0.0855(4) 0.0287 Uani
O1A O -0.0526(2) 1.1147(7) -0.4145(4) 0.0287 Uani
O2F O 0.3782(3) 1.6802(7) 0.0603(5) 0.0376 Uani
O3F O 0.4145(2) 1.5068(7) -0.1530(4) 0.0287 Uani
O3D O -0.0855(2) 1.0068(7) -0.1530(4) 0.0287 Uani
O3E O 0.0855(2) 1.0068(7) -0.3470(4) 0.0287 Uani
C1F C 0.3131(3) 1.3503(9) -0.0052(5) 0.0210 Uani
C2F C 0.2820(3) 1.2822(9) -0.1238(5) 0.0226 Uani
H1F H 0.3035 1.3035 -0.2067 0.0270 Uiso
C3F C 0.2813(3) 1.3176(9) 0.1184(6) 0.0234 Uani
H2F H 0.3025 1.3628 0.1979 0.0280 Uiso
C4F C 0.3470(8) 1.8242(18) -0.0142(12) 0.0941 Uani
H3F H 0.2980 1.7943 -0.0308 0.1410 Uiso
H4F H 0.3505 1.9415 0.0354 0.1410 Uiso
H5F H 0.3707 1.8371 -0.0991 0.1410 Uiso
O4? O 0.002(6) 0.548(8) -0.203(8) 0.5700 Uiso
loop_
_atom_site_aniso_label
_atom_site_aniso_U_11
_atom_site_aniso_U_22
_atom_site_aniso_U_33
_atom_site_aniso_U_23
_atom_site_aniso_U_13
_atom_site_aniso_U_12
Cu1 0.0086(6) 0.0397(8) 0.0138(6) 0.000 0.0014(4) 0.000
P1 0.0129(7) 0.0402(9) 0.0174(8) 0.0009(6) 0.0008(5) -0.0090(6)
O1 0.0163(19) 0.051(3) 0.0188(19) -0.0026(19) -0.0005(14) -0.0071(18)
O2 0.045(3) 0.036(3) 0.032(2) 0.001(2) 0.004(2) -0.009(2)
O3 0.0122(18) 0.055(3) 0.019(2) 0.0030(18) -0.0008(15) -0.0087(18)
C1 0.012(2) 0.030(3) 0.021(3) 0.002(2) 0.000(2) -0.005(2)
C2 0.018(3) 0.035(3) 0.015(3) 0.000(2) 0.005(2) -0.005(2)
C3 0.018 0.035 0.017 -0.001 -0.002 -0.007
C4 0.124(11) 0.080(8) 0.078(8) 0.009(6) -0.007(7) 0.030(8)
Cu1D 0.0086 0.0397 0.0138 0 0.0014 0
Cu1F 0.0086 0.0397 0.0138 0 0.0014 0
Cu1B 0.0086 0.0397 0.0138 0 0.0014 0
P1F 0.0129 0.0402 0.0174 0.0009 0.0008 -0.009
O1F 0.0163 0.051 0.0188 -0.0026 -0.0005 -0.0071
O1A 0.0163 0.051 0.0188 0.0026 -0.0005 0.0071
O2F 0.045 0.036 0.032 0.001 0.004 -0.009
O3F 0.0122 0.055 0.019 0.003 -0.0008 -0.0087
O3D 0.0122 0.055 0.019 0.003 -0.0008 -0.0087
O3E 0.0122 0.055 0.019 -0.003 -0.0008 0.0087
C1F 0.012 0.03 0.021 0.002 0 -0.005
C2F 0.018 0.035 0.015 0 0.005 -0.005
C3F 0.018(3) 0.035(3) 0.017(3) -0.001(2) -0.002(2) -0.007(2)
C4F 0.124 0.08 0.078 0.009 -0.007 0.03
loop_
_geom_bond_atom_site_label_1
_geom_bond_atom_site_label_2
_geom_bond_site_symmetry_1
_geom_bond_site_symmetry_2
Cu1 O1 1_555 1_555
P1 O1 1_555 1_555
O2 P1 1_555 1_555
O3 P1 1_555 1_555
C1 P1 1_555 1_555
C2 C1 1_555 1_555
H1 C2 1_555 1_555
C3 C1 1_555 1_555
H2 C3 1_555 1_555
C4 O2 1_555 1_555
H3 C4 1_555 1_555
H4 C4 1_555 1_555
H5 C4 1_555 1_555
Cu1D O3 1_555 1_555
Cu1F O1F 1_555 1_555
Cu1B O3F 1_555 1_555
P1F O1F 1_555 1_555
O1A Cu1 1_555 1_555
O2F P1F 1_555 1_555
O3F P1F 1_555 1_555
O3D Cu1 1_555 1_555
O3E Cu1 1_555 1_555
C1F P1F 1_555 1_555
C2F C3 1_555 1_555
H1F C2F 1_555 1_555
C3F C2 1_555 1_555
H2F C3F 1_555 1_555
C4F O2F 1_555 1_555
H3F C4F 1_555 1_555
H4F C4F 1_555 1_555
H5F C4F 1_555 1_555
C1F C2F 1_555 1_555
C1F C3F 1_555 1_555

#END
