
#######################################################################
#
#                 Cambridge Crystallographic Data Centre
#                                CCDC 
#
#######################################################################
#
# If this CIF has been generated from an entry in the Cambridge 
# Structural Database, then it will include bibliographic, chemical, 
# crystal, experimental, refinement or atomic coordinate data resulting 
# from the CCDC's data processing and validation procedures.
#
#######################################################################

data_GEBPEK
_chemical_name_common            SNU-70
_chemical_formula_moiety         
'(C30 H18 O13 Zn4)n,13n(C5 H11 N1 O1),2n(H2 O1)'
_chemical_name_systematic        
'catena-((\m~4~-oxo)-tris(\m~4~-4-(2-carboxylatovinyl)benzoato)-tetra-zinc(ii) N,N-diethylformamide solvate dihydrate)'
_symmetry_cell_setting           cubic
_symmetry_space_group_name_H-M   'F m -3 m'
_symmetry_Int_Tables_number      225
_space_group_name_Hall           '-F 4 2 3'
loop_
_symmetry_equiv_pos_site_id
_symmetry_equiv_pos_as_xyz
1 x,y,z
2 x,-y,-z
3 -x,-y,z
4 -x,y,-z
5 -y,x,z
6 y,x,-z
7 y,-x,z
8 -y,-x,-z
9 y,z,x
10 -y,-z,x
11 y,-z,-x
12 -y,z,-x
13 -z,y,x
14 -z,-y,-x
15 z,-y,x
16 z,y,-x
17 z,x,y
18 -z,x,-y
19 -z,-x,y
20 z,-x,-y
21 -x,-z,-y
22 -x,z,y
23 x,-z,y
24 x,z,-y
25 x,1/2+y,1/2+z
26 x,1/2-y,1/2-z
27 -x,1/2-y,1/2+z
28 -x,1/2+y,1/2-z
29 -y,1/2+x,1/2+z
30 y,1/2+x,1/2-z
31 y,1/2-x,1/2+z
32 -y,1/2-x,1/2-z
33 y,1/2+z,1/2+x
34 -y,1/2-z,1/2+x
35 y,1/2-z,1/2-x
36 -y,1/2+z,1/2-x
37 -z,1/2+y,1/2+x
38 -z,1/2-y,1/2-x
39 z,1/2-y,1/2+x
40 z,1/2+y,1/2-x
41 z,1/2+x,1/2+y
42 -z,1/2+x,1/2-y
43 -z,1/2-x,1/2+y
44 z,1/2-x,1/2-y
45 -x,1/2-z,1/2-y
46 -x,1/2+z,1/2+y
47 x,1/2-z,1/2+y
48 x,1/2+z,1/2-y
49 1/2+x,y,1/2+z
50 1/2+x,-y,1/2-z
51 1/2-x,-y,1/2+z
52 1/2-x,y,1/2-z
53 1/2-y,x,1/2+z
54 1/2+y,x,1/2-z
55 1/2+y,-x,1/2+z
56 1/2-y,-x,1/2-z
57 1/2+y,z,1/2+x
58 1/2-y,-z,1/2+x
59 1/2+y,-z,1/2-x
60 1/2-y,z,1/2-x
61 1/2-z,y,1/2+x
62 1/2-z,-y,1/2-x
63 1/2+z,-y,1/2+x
64 1/2+z,y,1/2-x
65 1/2+z,x,1/2+y
66 1/2-z,x,1/2-y
67 1/2-z,-x,1/2+y
68 1/2+z,-x,1/2-y
69 1/2-x,-z,1/2-y
70 1/2-x,z,1/2+y
71 1/2+x,-z,1/2+y
72 1/2+x,z,1/2-y
73 1/2+x,1/2+y,z
74 1/2+x,1/2-y,-z
75 1/2-x,1/2-y,z
76 1/2-x,1/2+y,-z
77 1/2-y,1/2+x,z
78 1/2+y,1/2+x,-z
79 1/2+y,1/2-x,z
80 1/2-y,1/2-x,-z
81 1/2+y,1/2+z,x
82 1/2-y,1/2-z,x
83 1/2+y,1/2-z,-x
84 1/2-y,1/2+z,-x
85 1/2-z,1/2+y,x
86 1/2-z,1/2-y,-x
87 1/2+z,1/2-y,x
88 1/2+z,1/2+y,-x
89 1/2+z,1/2+x,y
90 1/2-z,1/2+x,-y
91 1/2-z,1/2-x,y
92 1/2+z,1/2-x,-y
93 1/2-x,1/2-z,-y
94 1/2-x,1/2+z,y
95 1/2+x,1/2-z,y
96 1/2+x,1/2+z,-y
97 -x,-y,-z
98 -x,y,z
99 x,y,-z
100 x,-y,z
101 y,-x,-z
102 -y,-x,z
103 -y,x,-z
104 y,x,z
105 -y,-z,-x
106 y,z,-x
107 -y,z,x
108 y,-z,x
109 z,-y,-x
110 z,y,x
111 -z,y,-x
112 -z,-y,x
113 -z,-x,-y
114 z,-x,y
115 z,x,-y
116 -z,x,y
117 x,z,y
118 x,-z,-y
119 -x,z,-y
120 -x,-z,y
121 -x,1/2-y,1/2-z
122 -x,1/2+y,1/2+z
123 x,1/2+y,1/2-z
124 x,1/2-y,1/2+z
125 y,1/2-x,1/2-z
126 -y,1/2-x,1/2+z
127 -y,1/2+x,1/2-z
128 y,1/2+x,1/2+z
129 -y,1/2-z,1/2-x
130 y,1/2+z,1/2-x
131 -y,1/2+z,1/2+x
132 y,1/2-z,1/2+x
133 z,1/2-y,1/2-x
134 z,1/2+y,1/2+x
135 -z,1/2+y,1/2-x
136 -z,1/2-y,1/2+x
137 -z,1/2-x,1/2-y
138 z,1/2-x,1/2+y
139 z,1/2+x,1/2-y
140 -z,1/2+x,1/2+y
141 x,1/2+z,1/2+y
142 x,1/2-z,1/2-y
143 -x,1/2+z,1/2-y
144 -x,1/2-z,1/2+y
145 1/2-x,-y,1/2-z
146 1/2-x,y,1/2+z
147 1/2+x,y,1/2-z
148 1/2+x,-y,1/2+z
149 1/2+y,-x,1/2-z
150 1/2-y,-x,1/2+z
151 1/2-y,x,1/2-z
152 1/2+y,x,1/2+z
153 1/2-y,-z,1/2-x
154 1/2+y,z,1/2-x
155 1/2-y,z,1/2+x
156 1/2+y,-z,1/2+x
157 1/2+z,-y,1/2-x
158 1/2+z,y,1/2+x
159 1/2-z,y,1/2-x
160 1/2-z,-y,1/2+x
161 1/2-z,-x,1/2-y
162 1/2+z,-x,1/2+y
163 1/2+z,x,1/2-y
164 1/2-z,x,1/2+y
165 1/2+x,z,1/2+y
166 1/2+x,-z,1/2-y
167 1/2-x,z,1/2-y
168 1/2-x,-z,1/2+y
169 1/2-x,1/2-y,-z
170 1/2-x,1/2+y,z
171 1/2+x,1/2+y,-z
172 1/2+x,1/2-y,z
173 1/2+y,1/2-x,-z
174 1/2-y,1/2-x,z
175 1/2-y,1/2+x,-z
176 1/2+y,1/2+x,z
177 1/2-y,1/2-z,-x
178 1/2+y,1/2+z,-x
179 1/2-y,1/2+z,x
180 1/2+y,1/2-z,x
181 1/2+z,1/2-y,-x
182 1/2+z,1/2+y,x
183 1/2-z,1/2+y,-x
184 1/2-z,1/2-y,x
185 1/2-z,1/2-x,-y
186 1/2+z,1/2-x,y
187 1/2+z,1/2+x,-y
188 1/2-z,1/2+x,y
189 1/2+x,1/2+z,y
190 1/2+x,1/2-z,-y
191 1/2-x,1/2+z,-y
192 1/2-x,1/2-z,y
_cell_length_a                   30.234(4)
_cell_length_b                   30.234(4)
_cell_length_c                   30.234(4)
_cell_angle_alpha                90
_cell_angle_beta                 90
_cell_angle_gamma                90
_cell_volume                     27636.7
_exptl_crystal_colour            'pale yellow'
_exptl_crystal_description       cubic
_cell_formula_units_Z            8
loop_
_atom_site_label
_atom_site_type_symbol
_atom_site_fract_x
_atom_site_fract_y
_atom_site_fract_z
_atom_site_U_iso_or_equiv
_atom_site_thermal_displace_type
C1 C 0.2243 0.2756 0.0691 0.1900 Uiso
H1 H 0.2073 0.2927 0.0882 0.2250 Uiso
C2 C 0.2500 0.2500 0.0821 0.1460 Uiso
C3 C 0.2500 0.2500 0.1359 0.1600 Uiso
O1 O 0.2500 0.2500 0.2500 0.2100 Uani
C4 C 0.2200 0.2798 0.0159 0.5200 Uiso
H2 H 0.1900 0.3100 0.0159 0.6270 Uiso
C5 C 0.2500 0.2500 0.0000 0.6600 Uiso
Zn1 Zn 0.21312(11) 0.28688(11) 0.21312(11) 0.1260 Uiso
O2 O 0.2221(5) 0.2779(5) 0.1478(6) 0.2040 Uani
C1VB C 0.2757 0.2244 0.0691 0.1900 Uiso
C1E C 0.2756 0.2243 -0.0691 0.1900 Uiso
C1AC C 0.2244 0.2757 -0.0691 0.1900 Uiso
C1QA C 0.0691 0.2757 0.2244 0.1900 Uiso
C1P C 0.0691 0.2243 0.2756 0.1900 Uiso
C1KA C -0.0691 0.2244 0.2757 0.1900 Uiso
C1L C -0.0691 0.2756 0.2243 0.1900 Uiso
C1CC C 0.2244 0.4309 0.2243 0.1900 Uiso
C1HA C 0.2756 0.4309 0.2757 0.1900 Uiso
C1OC C 0.2757 0.5691 0.2756 0.1900 Uiso
C1UA C 0.2243 0.5691 0.2244 0.1900 Uiso
H1VB H 0.2927 0.2073 0.0882 0.2250 Uiso
H1E H 0.2927 0.2073 -0.0882 0.2250 Uiso
H1AC H 0.2073 0.2927 -0.0882 0.2250 Uiso
H1QA H 0.0882 0.2927 0.2073 0.2250 Uiso
H1P H 0.0882 0.2073 0.2927 0.2250 Uiso
H1KA H -0.0882 0.2073 0.2927 0.2250 Uiso
H1L H -0.0882 0.2927 0.2073 0.2250 Uiso
H1CC H 0.2073 0.4118 0.2073 0.2250 Uiso
H1HA H 0.2927 0.4118 0.2927 0.2250 Uiso
H1OC H 0.2927 0.5882 0.2927 0.2250 Uiso
H1UA H 0.2073 0.5882 0.2073 0.2250 Uiso
C2E C 0.2500 0.2500 -0.0821 0.1460 Uiso
C2P C 0.0821 0.2500 0.2500 0.1460 Uiso
C2L C -0.0821 0.2500 0.2500 0.1460 Uiso
C2HA C 0.2500 0.4179 0.2500 0.1460 Uiso
C2UA C 0.2500 0.5821 0.2500 0.1460 Uiso
C3E C 0.2500 0.2500 -0.1359 0.1600 Uiso
C3P C 0.1359 0.2500 0.2500 0.1600 Uiso
C3L C -0.1359 0.2500 0.2500 0.1600 Uiso
C3HA C 0.2500 0.3641 0.2500 0.1600 Uiso
C3UA C 0.2500 0.6359 0.2500 0.1600 Uiso
C4VB C 0.2800 0.2202 0.0159 0.5200 Uiso
C4E C 0.2798 0.2200 -0.0159 0.5200 Uiso
C4AC C 0.2202 0.2800 -0.0159 0.5200 Uiso
C4QA C 0.0159 0.2800 0.2202 0.5200 Uiso
C4P C 0.0159 0.2200 0.2798 0.5200 Uiso
C4KA C -0.0159 0.2202 0.2800 0.5200 Uiso
C4L C -0.0159 0.2798 0.2200 0.5200 Uiso
C4CC C 0.2202 0.4841 0.2200 0.5200 Uiso
C4HA C 0.2798 0.4841 0.2800 0.5200 Uiso
C4OC C 0.2800 0.5159 0.2798 0.5200 Uiso
C4UA C 0.2200 0.5159 0.2202 0.5200 Uiso
H2E H 0.3100 0.1900 -0.0159 0.6270 Uiso
H2VB H 0.3100 0.1900 0.0159 0.6270 Uiso
H2AC H 0.1900 0.3100 -0.0159 0.6270 Uiso
H2QA H 0.0159 0.3100 0.1900 0.6270 Uiso
H2KA H -0.0159 0.1900 0.3100 0.6270 Uiso
H2P H 0.0159 0.1900 0.3100 0.6270 Uiso
H2L H -0.0159 0.3100 0.1900 0.6270 Uiso
H2CC H 0.1900 0.4841 0.1900 0.6270 Uiso
H2OC H 0.3100 0.5159 0.3100 0.6270 Uiso
H2HA H 0.3100 0.4841 0.3100 0.6270 Uiso
H2UA H 0.1900 0.5159 0.1900 0.6270 Uiso
C5L C 0.0000 0.2500 0.2500 0.6600 Uiso
C5HA C 0.2500 0.5000 0.2500 0.6600 Uiso
Zn1H Zn 0.28688(11) 0.21312(11) 0.21312(11) 0.1260 Uiso
Zn1P Zn 0.21312(11) 0.21312(11) 0.28688(11) 0.1260 Uiso
Zn1HA Zn 0.28688(11) 0.28688(11) 0.28688(11) 0.1260 Uiso
Zn1E Zn 0.28688(11) 0.21312(11) -0.21312(11) 0.1260 Uiso
Zn1O Zn 0.21312(11) 0.28688(11) -0.21312(11) 0.1260 Uiso
Zn1U Zn -0.21312(11) 0.21312(11) 0.28688(11) 0.1260 Uiso
Zn1L Zn -0.21312(11) 0.28688(11) 0.21312(11) 0.1260 Uiso
Zn1CA Zn 0.28688(11) 0.71312(11) 0.28688(11) 0.1260 Uiso
Zn1N Zn 0.21312(11) 0.71312(11) 0.21312(11) 0.1260 Uiso
O2E O 0.2779(5) 0.2221(5) -0.1478(6) 0.2040 Uani
O2AC O 0.2221(5) 0.2779(5) -0.1478(6) 0.2040 Uani
O2VB O 0.2779(5) 0.2221(5) 0.1478(6) 0.2040 Uani
O2QA O 0.1478(6) 0.2779(5) 0.2221(5) 0.2040 Uani
O2KA O -0.1478(6) 0.2221(5) 0.2779(5) 0.2040 Uani
O2L O -0.1478(6) 0.2779(5) 0.2221(5) 0.2040 Uani
O2P O 0.1478(6) 0.2221(5) 0.2779(5) 0.2040 Uani
O2CC O 0.2221(5) 0.3522(6) 0.2221(5) 0.2040 Uani
O2OC O 0.2779(5) 0.6478(6) 0.2779(5) 0.2040 Uani
O2UA O 0.2221(5) 0.6478(6) 0.2221(5) 0.2040 Uani
O2HA O 0.2779(5) 0.3522(6) 0.2779(5) 0.2040 Uani
O2H O 0.2779(5) 0.1478(6) 0.2221(5) 0.2040 Uani
O2MB O 0.3522(6) 0.2221(5) 0.2221(5) 0.2040 Uani
O2GB O 0.2221(5) 0.1478(6) 0.2779(5) 0.2040 Uani
O2Y O 0.2221(5) 0.2221(5) 0.3522(6) 0.2040 Uani
O2YA O 0.2779(5) 0.2779(5) 0.3522(6) 0.2040 Uani
O2LC O 0.3522(6) 0.2779(5) 0.2779(5) 0.2040 Uani
loop_
_atom_site_aniso_label
_atom_site_aniso_U_11
_atom_site_aniso_U_22
_atom_site_aniso_U_33
_atom_site_aniso_U_23
_atom_site_aniso_U_13
_atom_site_aniso_U_12
O1 0.21(4) 0.21(4) 0.21(4) 0.000 0.000 0.000
O2 0.181(16) 0.181(16) 0.25(3) 0.045(14) -0.045(14) 0.03(2)
O2E 0.181 0.181 0.25 0.045 -0.045 0.03
O2AC 0.181 0.181 0.25 -0.045 0.045 0.03
O2VB 0.181 0.181 0.25 -0.045 0.045 0.03
O2QA 0.25 0.181 0.181 0.03 -0.045 0.045
O2KA 0.25 0.181 0.181 0.03 -0.045 0.045
O2L 0.25 0.181 0.181 0.03 0.045 -0.045
O2P 0.25 0.181 0.181 0.03 0.045 -0.045
O2CC 0.181 0.25 0.181 0.045 -0.03 0.045
O2OC 0.181 0.25 0.181 0.045 -0.03 0.045
O2UA 0.181 0.25 0.181 -0.045 -0.03 -0.045
O2HA 0.181 0.25 0.181 -0.045 -0.03 -0.045
O2H 0.181 0.25 0.181 -0.045 0.03 0.045
O2MB 0.25 0.181 0.181 -0.03 0.045 0.045
O2GB 0.181 0.25 0.181 0.045 0.03 -0.045
O2Y 0.181 0.181 0.25 0.045 0.045 -0.03
O2YA 0.181 0.181 0.25 -0.045 -0.045 -0.03
O2LC 0.25 0.181 0.181 -0.03 -0.045 -0.045
loop_
_geom_bond_atom_site_label_1
_geom_bond_atom_site_label_2
_geom_bond_site_symmetry_1
_geom_bond_site_symmetry_2
C1 H1 1_555 1_555
C2 C1 1_555 1_555
C3 C2 1_555 1_555
O1 Zn1 1_555 1_555
C4 C1 1_555 1_555
H2 C4 1_555 1_555
C5 C4 1_555 1_555
Zn1 O2 1_555 1_555
O2 C3 1_555 1_555
C1VB C2 1_555 1_555
C1E H1E 1_555 1_555
C1AC H1AC 1_555 1_555
C1QA H1QA 1_555 1_555
C1P H1P 1_555 1_555
C1KA H1KA 1_555 1_555
C1L H1L 1_555 1_555
C1CC H1CC 1_555 1_555
C1HA H1HA 1_555 1_555
C1OC H1OC 1_555 1_555
C1UA H1UA 1_555 1_555
H1VB C1VB 1_555 1_555
C2E C1E 1_555 1_555
C2P C1QA 1_555 1_555
C2L C1KA 1_555 1_555
C2HA C1CC 1_555 1_555
C2UA C1OC 1_555 1_555
C3E C2E 1_555 1_555
C3P C2P 1_555 1_555
C3L C2L 1_555 1_555
C3HA C2HA 1_555 1_555
C3UA C2UA 1_555 1_555
C4VB C5 1_555 1_555
C4E C5 1_555 1_555
C4AC C4 1_555 1_555
C4QA C1QA 1_555 1_555
C4P C1P 1_555 1_555
C4KA C1KA 1_555 1_555
C4L C1L 1_555 1_555
C4CC C1CC 1_555 1_555
C4HA C1HA 1_555 1_555
C4OC C1OC 1_555 1_555
C4UA C1UA 1_555 1_555
H2E C4E 1_555 1_555
H2VB C4VB 1_555 1_555
H2AC C4AC 1_555 1_555
H2QA C4QA 1_555 1_555
H2KA C4KA 1_555 1_555
H2P C4P 1_555 1_555
H2L C4L 1_555 1_555
H2CC C4CC 1_555 1_555
H2OC C4OC 1_555 1_555
H2HA C4HA 1_555 1_555
H2UA C4UA 1_555 1_555
C5L C4QA 1_555 1_555
C5HA C4CC 1_555 1_555
Zn1H O1 1_555 1_555
Zn1P O1 1_555 1_555
Zn1HA O1 1_555 1_555
Zn1E O2E 1_555 1_555
Zn1O O2AC 1_555 1_555
Zn1U O2KA 1_555 1_555
Zn1L O2L 1_555 1_555
Zn1CA O2OC 1_555 1_555
Zn1N O2UA 1_555 1_555
O2E C3E 1_555 1_555
O2AC C3E 1_555 1_555
O2VB C3 1_555 1_555
O2QA Zn1 1_555 1_555
O2KA C3L 1_555 1_555
O2L C3L 1_555 1_555
O2P C3P 1_555 1_555
O2CC Zn1 1_555 1_555
O2OC C3UA 1_555 1_555
O2UA C3UA 1_555 1_555
O2HA C3HA 1_555 1_555
O2H Zn1H 1_555 1_555
O2MB Zn1H 1_555 1_555
O2GB Zn1P 1_555 1_555
O2Y Zn1P 1_555 1_555
O2YA Zn1HA 1_555 1_555
O2LC Zn1HA 1_555 1_555
C5 C4AC 1_555 1_555
C1VB C4VB 1_555 1_555
C1E C4E 1_555 1_555
C1AC C2E 1_555 1_555
C1AC C4AC 1_555 1_555
C1P C2P 1_555 1_555
C1L C2L 1_555 1_555
C1HA C2HA 1_555 1_555
C1UA C2UA 1_555 1_555
C3P O2QA 1_555 1_555
C3HA O2CC 1_555 1_555
C4VB C4E 1_555 1_555
C4QA C4L 1_555 1_555
C4P C4KA 1_555 1_555
C4P C5L 1_555 1_555
C4KA C5L 1_555 1_555
C4L C5L 1_555 1_555
C4CC C4UA 1_555 1_555
C4HA C4OC 1_555 1_555
C4HA C5HA 1_555 1_555
C4OC C5HA 1_555 1_555
C4UA C5HA 1_555 1_555
Zn1H O2VB 1_555 1_555
Zn1P O2P 1_555 1_555
Zn1HA O2HA 1_555 1_555

#END
