
#######################################################################
#
#                 Cambridge Crystallographic Data Centre
#                                CCDC 
#
#######################################################################
#
# If this CIF has been generated from an entry in the Cambridge 
# Structural Database, then it will include bibliographic, chemical, 
# crystal, experimental, refinement or atomic coordinate data resulting 
# from the CCDC's data processing and validation procedures.
#
#######################################################################

data_GEBPAG
_chemical_name_common            SNU-71
_chemical_formula_moiety         '(C30 H24 O13 Zn4)n,6n(C5 H11 N1 O1),n(H2 O1)'
_chemical_name_systematic        
'catena-((\m~4~-oxo)-tris(\m~4~-4-(2-carboxylatoethyl)benzoato)-tetra-zinc(ii) N,N-diethylformamide solvate monohydrate)'
_symmetry_cell_setting           cubic
_symmetry_space_group_name_H-M   'I -4 3 m'
_symmetry_Int_Tables_number      217
_space_group_name_Hall           'I -4 2 3'
loop_
_symmetry_equiv_pos_site_id
_symmetry_equiv_pos_as_xyz
1 x,y,z
2 x,-y,-z
3 -x,-y,z
4 -x,y,-z
5 y,-x,-z
6 -y,-x,z
7 -y,x,-z
8 y,x,z
9 y,z,x
10 -y,-z,x
11 y,-z,-x
12 -y,z,-x
13 z,-y,-x
14 z,y,x
15 -z,y,-x
16 -z,-y,x
17 z,x,y
18 -z,x,-y
19 -z,-x,y
20 z,-x,-y
21 x,z,y
22 x,-z,-y
23 -x,z,-y
24 -x,-z,y
25 1/2+x,1/2+y,1/2+z
26 1/2+x,1/2-y,1/2-z
27 1/2-x,1/2-y,1/2+z
28 1/2-x,1/2+y,1/2-z
29 1/2+y,1/2-x,1/2-z
30 1/2-y,1/2-x,1/2+z
31 1/2-y,1/2+x,1/2-z
32 1/2+y,1/2+x,1/2+z
33 1/2+y,1/2+z,1/2+x
34 1/2-y,1/2-z,1/2+x
35 1/2+y,1/2-z,1/2-x
36 1/2-y,1/2+z,1/2-x
37 1/2+z,1/2-y,1/2-x
38 1/2+z,1/2+y,1/2+x
39 1/2-z,1/2+y,1/2-x
40 1/2-z,1/2-y,1/2+x
41 1/2+z,1/2+x,1/2+y
42 1/2-z,1/2+x,1/2-y
43 1/2-z,1/2-x,1/2+y
44 1/2+z,1/2-x,1/2-y
45 1/2+x,1/2+z,1/2+y
46 1/2+x,1/2-z,1/2-y
47 1/2-x,1/2+z,1/2-y
48 1/2-x,1/2-z,1/2+y
_cell_length_a                   15.0311(14)
_cell_length_b                   15.0311(14)
_cell_length_c                   15.0311(14)
_cell_angle_alpha                90
_cell_angle_beta                 90
_cell_angle_gamma                90
_cell_volume                     3396.04
_exptl_crystal_colour            'pale yellow'
_exptl_crystal_description       cubic
_cell_formula_units_Z            2
loop_
_atom_site_label
_atom_site_type_symbol
_atom_site_fract_x
_atom_site_fract_y
_atom_site_fract_z
C1 C 0.7612 0.0000 0.0000
C2 C 0.6638 0.0000 0.0000
C3 C 0.6219 0.0525 0.0525
H1 H 0.6224 0.0991 0.0991
C4 C 0.5242 0.0422 0.0422
H2 H 0.5001 0.0894 0.0894
C5 C 0.5000 0.0000 0.0000
Zn1 Zn 0.92552(7) 0.07448(7) 0.07448(7)
O1 O 1.0000 0.0000 0.0000
O2 O 0.7980(6) 0.0513(5) 0.0513(5)
C1D C 1.0000 0.2388 0.0000
C1B C 0.2388 0.0000 0.0000
C1F C 1.0000 0.7612 0.0000
C1J C 1.0000 0.0000 0.2388
C1H C 1.0000 0.0000 0.7612
C2B C 0.3362 0.0000 0.0000
C2D C 1.0000 0.3362 0.0000
C2F C 1.0000 0.6638 0.0000
C2J C 1.0000 0.0000 0.3362
C2H C 1.0000 0.0000 0.6638
C3A C 0.6219 -0.0525 -0.0525
C3C C 0.3781 0.0525 -0.0525
C3B C 0.3781 -0.0525 0.0525
C3E C 0.9475 0.3781 0.0525
C3D C 1.0525 0.3781 -0.0525
C3G C 1.0525 0.6219 0.0525
C3F C 0.9475 0.6219 -0.0525
C3J C 1.0525 -0.0525 0.3781
C3K C 0.9475 0.0525 0.3781
C3I C 0.9475 -0.0525 0.6219
C3H C 1.0525 0.0525 0.6219
H1A H 0.6224 -0.0991 -0.0991
H1C H 0.3776 0.0991 -0.0991
H1B H 0.3776 -0.0991 0.0991
H1E H 0.9009 0.3776 0.0991
H1D H 1.0991 0.3776 -0.0991
H1G H 1.0991 0.6224 0.0991
H1F H 0.9009 0.6224 -0.0991
H1J H 1.0991 -0.0991 0.3776
H1K H 0.9009 0.0991 0.3776
H1I H 0.9009 -0.0991 0.6224
H1H H 1.0991 0.0991 0.6224
C4B C 0.4758 -0.0422 0.0422
C4C C 0.4758 0.0422 -0.0422
C4A C 0.5242 -0.0422 -0.0422
C4E C 0.9578 0.4758 0.0422
C4D C 1.0422 0.4758 -0.0422
C4G C 1.0422 0.5242 0.0422
C4F C 0.9578 0.5242 -0.0422
C4J C 1.0422 -0.0422 0.4758
C4K C 0.9578 0.0422 0.4758
C4I C 0.9578 -0.0422 0.5242
C4H C 1.0422 0.0422 0.5242
H2C H 0.4999 0.0894 -0.0894
H2B H 0.4999 -0.0894 0.0894
H2A H 0.5001 -0.0894 -0.0894
H2E H 0.9106 0.4999 0.0894
H2D H 1.0894 0.4999 -0.0894
H2G H 1.0894 0.5001 0.0894
H2F H 0.9106 0.5001 -0.0894
H2J H 1.0894 -0.0894 0.4999
H2K H 0.9106 0.0894 0.4999
H2I H 0.9106 -0.0894 0.5001
H2H H 1.0894 0.0894 0.5001
C5D C 1.0000 0.5000 0.0000
C5H C 1.0000 0.0000 0.5000
Zn1A Zn 0.92552(7) -0.07448(7) -0.07448(7)
Zn1B Zn 1.07448(7) -0.07448(7) 0.07448(7)
Zn1C Zn 1.07448(7) 0.07448(7) -0.07448(7)
Zn1C_2 Zn 0.07448(7) 0.07448(7) -0.07448(7)
Zn1B_2 Zn 0.07448(7) -0.07448(7) 0.07448(7)
Zn1B_3 Zn 1.07448(7) 0.92552(7) 0.07448(7)
Zn1A_2 Zn 0.92552(7) 0.92552(7) -0.07448(7)
Zn1A_3 Zn 0.92552(7) -0.07448(7) 0.92552(7)
Zn1C_3 Zn 1.07448(7) 0.07448(7) 0.92552(7)
O2A O 0.7980(6) -0.0513(5) -0.0513(5)
O2E O 0.9487(5) 0.2020(6) 0.0513(5)
O2K O 0.9487(5) 0.0513(5) 0.2020(6)
O2D O 1.0513(5) 0.2020(6) -0.0513(5)
O2C O 0.2020(6) 0.0513(5) -0.0513(5)
O2B O 0.2020(6) -0.0513(5) 0.0513(5)
O2G O 1.0513(5) 0.7980(6) 0.0513(5)
O2F O 0.9487(5) 0.7980(6) -0.0513(5)
O2C_2 O 1.2020(6) 0.0513(5) -0.0513(5)
O2H O 1.0513(5) 0.0513(5) -0.2020(6)
O2F_2 O 0.9487(5) -0.2020(6) -0.0513(5)
O2I O 0.9487(5) -0.0513(5) -0.2020(6)
O2B_2 O 1.2020(6) -0.0513(5) 0.0513(5)
O2G_2 O 1.0513(5) -0.2020(6) 0.0513(5)
O2J O 1.0513(5) -0.0513(5) 0.2020(6)
O2I_2 O 0.9487(5) -0.0513(5) 0.7980(6)
O2H_2 O 1.0513(5) 0.0513(5) 0.7980(6)
loop_
_geom_bond_atom_site_label_1
_geom_bond_atom_site_label_2
_geom_bond_site_symmetry_1
_geom_bond_site_symmetry_2
C1 C2 1_555 1_555
C2 C3 1_555 1_555
C3 H1 1_555 1_555
C4 C3 1_555 1_555
H2 C4 1_555 1_555
C5 C4 1_555 1_555
Zn1 O1 1_555 1_555
O1 Zn1A 1_555 1_555
O2 C1 1_555 1_555
C1D C2D 1_555 1_555
C1B C2B 1_555 1_555
C1F C2F 1_555 1_555
C1J C2J 1_555 1_555
C1H C2H 1_555 1_555
C2B C3C 1_555 1_555
C2D C3E 1_555 1_555
C2F C3G 1_555 1_555
C2J C3J 1_555 1_555
C2H C3I 1_555 1_555
C3A C2 1_555 1_555
C3C H1C 1_555 1_555
C3B C2B 1_555 1_555
C3E H1E 1_555 1_555
C3D C2D 1_555 1_555
C3G H1G 1_555 1_555
C3F C2F 1_555 1_555
C3J H1J 1_555 1_555
C3K C2J 1_555 1_555
C3I H1I 1_555 1_555
C3H C2H 1_555 1_555
H1A C3A 1_555 1_555
H1B C3B 1_555 1_555
H1D C3D 1_555 1_555
H1F C3F 1_555 1_555
H1K C3K 1_555 1_555
H1H C3H 1_555 1_555
C4B C4 1_555 1_555
C4C C4 1_555 1_555
C4A C5 1_555 1_555
C4E C3E 1_555 1_555
C4D C3D 1_555 1_555
C4G C3G 1_555 1_555
C4F C3F 1_555 1_555
C4J C3J 1_555 1_555
C4K C3K 1_555 1_555
C4I C3I 1_555 1_555
C4H C3H 1_555 1_555
H2C C4C 1_555 1_555
H2B C4B 1_555 1_555
H2A C4A 1_555 1_555
H2E C4E 1_555 1_555
H2D C4D 1_555 1_555
H2G C4G 1_555 1_555
H2F C4F 1_555 1_555
H2J C4J 1_555 1_555
H2K C4K 1_555 1_555
H2I C4I 1_555 1_555
H2H C4H 1_555 1_555
C5D C4E 1_555 1_555
C5H C4J 1_555 1_555
Zn1A O2A 1_555 1_555
Zn1B O1 1_555 1_555
Zn1C O1 1_555 1_555
Zn1C_2 O2C 1_555 1_555
Zn1B_2 O2B 1_555 1_555
Zn1B_3 O2G 1_555 1_555
Zn1A_2 O2F 1_555 1_555
Zn1A_3 O2I_2 1_555 1_555
Zn1C_3 O2H_2 1_555 1_555
O2A C1 1_555 1_555
O2E Zn1 1_555 1_555
O2K Zn1 1_555 1_555
O2D C1D 1_555 1_555
O2C C1B 1_555 1_555
O2B C1B 1_555 1_555
O2G C1F 1_555 1_555
O2F C1F 1_555 1_555
O2C_2 Zn1C 1_555 1_555
O2H Zn1C 1_555 1_555
O2F_2 Zn1A 1_555 1_555
O2I Zn1A 1_555 1_555
O2B_2 Zn1B 1_555 1_555
O2G_2 Zn1B 1_555 1_555
O2J C1J 1_555 1_555
O2I_2 C1H 1_555 1_555
O2H_2 C1H 1_555 1_555
C5 C4B 1_555 1_555
C5 C4C 1_555 1_555
Zn1 O2 1_555 1_555
C1D O2E 1_555 1_555
C1J O2K 1_555 1_555
C3A C4A 1_555 1_555
C3C C4C 1_555 1_555
C3B C4B 1_555 1_555
C4B C4A 1_555 1_555
C4C C4A 1_555 1_555
C4E C4G 1_555 1_555
C4E C4F 1_555 1_555
C4D C4G 1_555 1_555
C4D C4F 1_555 1_555
C4D C5D 1_555 1_555
C4G C5D 1_555 1_555
C4F C5D 1_555 1_555
C4J C4I 1_555 1_555
C4J C4H 1_555 1_555
C4K C4I 1_555 1_555
C4K C4H 1_555 1_555
C4K C5H 1_555 1_555
C4I C5H 1_555 1_555
C4H C5H 1_555 1_555
Zn1B O2J 1_555 1_555
Zn1C O2D 1_555 1_555

#END
