
#######################################################################
#
#                 Cambridge Crystallographic Data Centre
#                                CCDC 
#
#######################################################################
#
# If this CIF has been generated from an entry in the Cambridge 
# Structural Database, then it will include bibliographic, chemical, 
# crystal, experimental, refinement or atomic coordinate data resulting 
# from the CCDC's data processing and validation procedures.
#
#######################################################################

data_DOKDEN
_chemical_formula_moiety         '(C16 H13 Cu1 N1 O4)n,n(H2 O1)'
_chemical_name_systematic        
'catena-((\m~5~-bis(4-carboxylatobenzyl)amine)-copper(ii) monohydrate)'
_symmetry_cell_setting           rhombohedral
_symmetry_space_group_name_H-M   'R -3'
_symmetry_Int_Tables_number      148
_space_group_name_Hall           '-R 3'
loop_
_symmetry_equiv_pos_site_id
_symmetry_equiv_pos_as_xyz
1 x,y,z
2 -y,x-y,z
3 -x+y,-x,z
4 2/3+x,1/3+y,1/3+z
5 2/3-y,1/3+x-y,1/3+z
6 2/3-x+y,1/3-x,1/3+z
7 1/3+x,2/3+y,2/3+z
8 1/3-y,2/3+x-y,2/3+z
9 1/3-x+y,2/3-x,2/3+z
10 -x,-y,-z
11 y,-x+y,-z
12 x-y,x,-z
13 1/3-x,2/3-y,2/3-z
14 1/3+y,2/3-x+y,2/3-z
15 1/3+x-y,2/3+x,2/3-z
16 2/3-x,1/3-y,1/3-z
17 2/3+y,1/3-x+y,1/3-z
18 2/3+x-y,1/3+x,1/3-z
_cell_length_a                   41.28(2)
_cell_length_b                   41.28(2)
_cell_length_c                   9.864(4)
_cell_angle_alpha                90
_cell_angle_beta                 90
_cell_angle_gamma                120.0
_cell_volume                     14556.7
_exptl_crystal_colour            blue
_exptl_crystal_description       prism
_cell_formula_units_Z            18
loop_
_atom_site_label
_atom_site_type_symbol
_atom_site_fract_x
_atom_site_fract_y
_atom_site_fract_z
Cu1 Cu 0.30967(3) 0.13461(2) -0.39425(10)
O1 O 0.3417(2) 0.1598(2) -0.5494(5)
O2 O 0.3806(2) 0.2147(2) -0.4514(6)
O3 O 0.4515(2) 0.4400(1) -0.9977(6)
O4 O 0.5061(2) 0.4544(2) -1.0932(6)
N1 N 0.3951(2) 0.2517(2) -1.1665(6)
C1 C 0.3680(2) 0.1932(2) -0.5518(8)
C2 C 0.3849(2) 0.2087(2) -0.6878(7)
C3 C 0.4052(3) 0.2465(3) -0.7101(9)
C4 C 0.4191(3) 0.2608(3) -0.8369(10)
C5 C 0.4126(2) 0.2372(2) -0.9439(8)
C6 C 0.3936(2) 0.1995(2) -0.9197(8)
C7 C 0.3794(2) 0.1853(2) -0.7917(7)
C8 C 0.4264(2) 0.2534(3) -1.0842(8)
C9 C 0.4096(3) 0.2813(2) -1.2715(8)
C10 C 0.4269(3) 0.3208(2) -1.2128(9)
C11 C 0.4046(3) 0.3305(3) -1.1414(13)
C12 C 0.4196(3) 0.3675(3) -1.0866(12)
C13 C 0.4569(2) 0.3923(2) -1.1085(9)
C14 C 0.4786(3) 0.3811(2) -1.1779(10)
C15 C 0.4639(3) 0.3452(3) -1.2302(10)
C16 C 0.4733(3) 0.4321(2) -1.0613(9)
H1 H 0.4108 0.2630 -0.6351
H2 H 0.4316 0.2871 -0.8506
H3 H 0.3899 0.1824 -0.9906
H4 H 0.3651 0.1590 -0.7777
H5 H 0.4456 0.2788 -1.0758
H6 H 0.4359 0.2396 -1.1292
H7 H 0.374(2) 0.255(2) -1.108(7)
H8 H 0.4291 0.2801 -1.3178
H9 H 0.3901 0.2765 -1.3335
H10 H 0.3794 0.3125 -1.1217
H11 H 0.4039 0.3745 -1.0400
H12 H 0.5041 0.3988 -1.1965
H13 H 0.4797 0.3378 -1.2737
Cu1O Cu 0.35700(3) 0.19872(2) -0.27242(10)
Cu1M Cu 0.46794(2) 0.49161(4) -0.93908(10)
Cu1D Cu 0.53206(2) 0.50839(4) -1.06092(10)
Cu1O_2 Cu 0.35700(3) 0.19872(2) -1.27242(10)
O2O O 0.2861(2) 0.1186(2) -0.2153(6)
O3N O 0.3448(2) 0.1182(2) -0.3356(6)
O4H O 0.2816(3) 0.1606(2) -0.4265(6)
N1O N 0.2716(2) 0.0816(2) -0.5002(6)
H7O H 0.293(2) 0.078(2) -0.559(7)
O5 O 0.3304(7) 0.2559(7) -1.023(2)
loop_
_geom_bond_atom_site_label_1
_geom_bond_atom_site_label_2
_geom_bond_site_symmetry_1
_geom_bond_site_symmetry_2
Cu1 O1 1_555 1_555
O1 C1 1_555 1_555
O2 C1 1_555 1_555
O3 C16 1_555 1_555
O4 C16 1_555 1_555
N1 C8 1_555 1_555
C1 C2 1_555 1_555
C2 C3 1_555 1_555
C3 C4 1_555 1_555
C4 C5 1_555 1_555
C5 C6 1_555 1_555
C6 C7 1_555 1_555
C7 C2 1_555 1_555
C8 C5 1_555 1_555
C9 N1 1_555 1_555
C10 C9 1_555 1_555
C11 C10 1_555 1_555
C12 C11 1_555 1_555
C13 C12 1_555 1_555
C14 C13 1_555 1_555
C15 C10 1_555 1_555
C16 C13 1_555 1_555
H1 C3 1_555 1_555
H2 C4 1_555 1_555
H3 C6 1_555 1_555
H4 C7 1_555 1_555
H5 C8 1_555 1_555
H6 C8 1_555 1_555
H7 N1 1_555 1_555
H8 C9 1_555 1_555
H9 C9 1_555 1_555
H10 C11 1_555 1_555
H11 C12 1_555 1_555
H12 C14 1_555 1_555
H13 C15 1_555 1_555
Cu1O Cu1 1_555 1_555
Cu1M O3 1_555 1_555
Cu1D O4 1_555 1_555
Cu1O_2 N1 1_555 1_555
O2O Cu1 1_555 1_555
O3N Cu1 1_555 1_555
O4H Cu1 1_555 1_555
N1O Cu1 1_555 1_555
H7O N1O 1_555 1_555
O2 Cu1O 1_555 1_555
C14 C15 1_555 1_555
Cu1M Cu1D 1_555 1_555

#END
