
#######################################################################
#
#                 Cambridge Crystallographic Data Centre
#                                CCDC 
#
#######################################################################
#
# If this CIF has been generated from an entry in the Cambridge 
# Structural Database, then it will include bibliographic, chemical, 
# crystal, experimental, refinement or atomic coordinate data resulting 
# from the CCDC's data processing and validation procedures.
#
#######################################################################

data_PATKUS
_chemical_formula_moiety         '(C14 H14 N4 O8 Pb1)n,3n(H2 O1)'
_chemical_name_systematic        
'catena-[(\m~2~-5-Carboxy-2-ethyl-1H-imidazole-4-carboxylato)-(\m~2~-4-carboxy-2-ethyl-1H-imidazole-5-carboxylato)-lead(ii) trihydrate]'
_symmetry_cell_setting           monoclinic
_symmetry_space_group_name_H-M   'P 21/n'
_symmetry_Int_Tables_number      14
_space_group_name_Hall           '-P 2yn'
loop_
_symmetry_equiv_pos_site_id
_symmetry_equiv_pos_as_xyz
1 x,y,z
2 1/2-x,1/2+y,1/2-z
3 -x,-y,-z
4 1/2+x,1/2-y,1/2+z
_cell_length_a                   9.7166(13)
_cell_length_b                   22.424(3)
_cell_length_c                   9.9817(13)
_cell_angle_alpha                90
_cell_angle_beta                 108.127(2)
_cell_angle_gamma                90
_cell_volume                     2066.92
_exptl_crystal_colour            colorless
_exptl_crystal_description       block
_cell_formula_units_Z            4
loop_
_atom_site_label
_atom_site_type_symbol
_atom_site_fract_x
_atom_site_fract_y
_atom_site_fract_z
Pb1 Pb 0.897006(14) 0.086460(6) 0.495211(15)
O1 O 0.7872(2) 0.08604(11) 0.6931(2)
O2 O 0.5996(3) 0.08578(12) 0.7730(3)
O3 O 0.3288(3) 0.07118(14) 0.6783(3)
H1 H 0.4140 0.0814 0.7067
O4 O 0.1701(2) 0.05007(15) 0.4720(3)
O5 O 0.8793(3) 0.12972(12) 0.2556(3)
O6 O 0.8018(3) 0.19944(15) 0.0928(3)
H2 H 0.7562 0.2307 0.0847
O7 O 0.6546(3) 0.29432(14) 0.0572(3)
O8 O 0.5565(2) 0.34939(11) 0.1885(2)
N1 N 0.6123(3) 0.07451(13) 0.4155(3)
N2 N 0.3760(3) 0.06371(13) 0.3343(3)
H9 H 0.2908 0.0588 0.2754
N3 N 0.7863(3) 0.19304(13) 0.4479(3)
N4 N 0.6596(3) 0.27623(12) 0.4165(3)
H10 H 0.6108 0.3058 0.4332
C1 C 0.6539(3) 0.08319(15) 0.6741(4)
C2 C 0.5554(3) 0.07616(15) 0.5271(4)
C3 C 0.4083(3) 0.06991(16) 0.4761(4)
C4 C 0.2902(4) 0.06373(18) 0.5444(4)
C5 C 0.5017(4) 0.06660(17) 0.3014(4)
C6 C 0.5094(4) 0.0614(2) 0.1553(4)
H11 H 0.6102 0.0580 0.1594
H12 H 0.4607 0.0250 0.1134
C7 C 0.4433(6) 0.1125(3) 0.0633(5)
H13 H 0.3524 0.1224 0.0767
H14 H 0.4276 0.1018 -0.0335
H15 H 0.5071 0.1462 0.0871
C8 C 0.8202(4) 0.17729(19) 0.2164(4)
C9 C 0.7642(3) 0.21357(15) 0.3141(4)
C10 C 0.6855(3) 0.26550(16) 0.2903(3)
C11 C 0.6279(4) 0.30658(16) 0.1720(4)
C12 C 0.7223(3) 0.23334(15) 0.5089(3)
C13 C 0.7146(5) 0.22985(18) 0.6567(4)
H16 H 0.6187 0.2162 0.6526
H17 H 0.7833 0.2000 0.7077
C14 C 0.7433(8) 0.2835(3) 0.7343(5)
H18 H 0.8452 0.2918 0.7616
H19 H 0.7135 0.2795 0.8170
H20 H 0.6907 0.3155 0.6770
Pb1_2 Pb -0.102994(14) 0.086460(6) 0.495211(15)
Pb1C Pb 0.397006(14) 0.413540(6) -0.004789(15)
O4_2 O 1.1701(2) 0.05007(15) 0.4720(3)
O8C O 1.0565(2) 0.15061(11) 0.6885(2)
O9 O 0.4687(2) 0.36514(11) 0.4544(2)
H3 H 0.4341(8) 0.3669(7) 0.5212(5)
H4 H 0.4338(17) 0.3871(4) 0.3848(6)
O10 O 0.1099(3) 0.04224(15) 0.1351(3)
H5 H 0.1711(4) 0.0487(10) 0.0931(8)
H6 H 0.0300(5) 0.0598(5) 0.1039(16)
O11 O 1.0989(4) 0.01167(19) 0.7451(4)
H7 H 1.0807(10) -0.0022(6) 0.6638(5)
H8 H 1.0312(6) 0.0137(12) 0.7799(7)
H21? H 1.1482(7) -0.0231(4) 0.9061(12)
H22? H 1.2649(8) -0.0639(3) 0.9633(19)
O12? O 1.2206(6) -0.0330(3) 0.9742(7)
loop_
_geom_bond_atom_site_label_1
_geom_bond_atom_site_label_2
_geom_bond_site_symmetry_1
_geom_bond_site_symmetry_2
Pb1 O1 1_555 1_555
O1 C1 1_555 1_555
O2 C1 1_555 1_555
O3 H1 1_555 1_555
O4 C4 1_555 1_555
O5 Pb1 1_555 1_555
O6 H2 1_555 1_555
O7 C11 1_555 1_555
O8 C11 1_555 1_555
O9 H3 1_555 1_555
H4 O9 1_555 1_555
O10 H5 1_555 1_555
H6 O10 1_555 1_555
O11 H7 1_555 1_555
H8 O11 1_555 1_555
N1 Pb1 1_555 1_555
N2 H9 1_555 1_555
N3 Pb1 1_555 1_555
N4 H10 1_555 1_555
C1 C2 1_555 1_555
C2 N1 1_555 1_555
C3 N2 1_555 1_555
C4 O3 1_555 1_555
C5 N1 1_555 1_555
C6 C5 1_555 1_555
H11 C6 1_555 1_555
H12 C6 1_555 1_555
C7 C6 1_555 1_555
H13 C7 1_555 1_555
H14 C7 1_555 1_555
H15 C7 1_555 1_555
C8 O5 1_555 1_555
C9 N3 1_555 1_555
C10 N4 1_555 1_555
C11 C10 1_555 1_555
C12 N3 1_555 1_555
C13 C12 1_555 1_555
H16 C13 1_555 1_555
H17 C13 1_555 1_555
C14 C13 1_555 1_555
H18 C14 1_555 1_555
H19 C14 1_555 1_555
H20 C14 1_555 1_555
Pb1_2 O4 1_555 1_555
Pb1C O8 1_555 1_555
O4_2 Pb1 1_555 1_555
O8C Pb1 1_555 1_555
O6 C8 1_555 1_555
N2 C5 1_555 1_555
N4 C12 1_555 1_555
C2 C3 1_555 1_555
C3 C4 1_555 1_555
C8 C9 1_555 1_555
C9 C10 1_555 1_555

#END
