
#######################################################################
#
#                 Cambridge Crystallographic Data Centre
#                                CCDC 
#
#######################################################################
#
# If this CIF has been generated from an entry in the Cambridge 
# Structural Database, then it will include bibliographic, chemical, 
# crystal, experimental, refinement or atomic coordinate data resulting 
# from the CCDC's data processing and validation procedures.
#
#######################################################################

data_PATKOM
_chemical_formula_moiety         '(C10 H8 N4 O9 Pb1)n'
_chemical_name_systematic        
catena-[(\m~2~-4-Carboxy-1H-imidazole-5-carboxylato-N^3^,O:O')-aqua-(5-carboxy-1H-imidazole-4-carboxylato-N^3^,O)-lead(ii)]
_symmetry_cell_setting           monoclinic
_symmetry_space_group_name_H-M   'P 21/n'
_symmetry_Int_Tables_number      14
_space_group_name_Hall           '-P 2yn'
loop_
_symmetry_equiv_pos_site_id
_symmetry_equiv_pos_as_xyz
1 x,y,z
2 1/2-x,1/2+y,1/2-z
3 -x,-y,-z
4 1/2+x,1/2-y,1/2+z
_cell_length_a                   6.8893(7)
_cell_length_b                   13.4831(14)
_cell_length_c                   14.5221(17)
_cell_angle_alpha                90
_cell_angle_beta                 103.568(1)
_cell_angle_gamma                90
_cell_volume                     1311.3
_exptl_crystal_colour            colorless
_exptl_crystal_description       block
_cell_formula_units_Z            4
loop_
_atom_site_label
_atom_site_type_symbol
_atom_site_fract_x
_atom_site_fract_y
_atom_site_fract_z
_atom_site_U_iso_or_equiv
_atom_site_thermal_displace_type
Pb1 Pb 0.11436(4) 0.907429(18) 0.64540(2) 0.0234 Uani
O1 O 0.1457(8) 0.9609(4) 0.8229(3) 0.0286 Uani
O2 O 0.1519(8) 0.9137(3) 0.9707(4) 0.0325 Uani
O3 O -0.0709(9) 0.6172(4) 1.0145(4) 0.0408 Uani
O4 O 0.0667(9) 0.7652(4) 1.0539(4) 0.0392 Uani
H1 H 0.0954 0.8146 1.0269 0.0590 Uiso
O5 O -0.0951(7) 0.9080(3) 0.4657(4) 0.0284 Uani
O6 O -0.1071(8) 0.8439(4) 0.3241(3) 0.0306 Uani
H2 H -0.0842 0.7905 0.3017 0.0460 Uiso
O7 O -0.0386(8) 0.6830(4) 0.2574(3) 0.0314 Uani
O8 O 0.1238(8) 0.5423(4) 0.3086(4) 0.0409 Uani
O9 O -0.2364(7) 0.9639(4) 0.6431(3) 0.0269 Uani
H3 H -0.330(7) 0.943(6) 0.600(3) 0.0410 Uiso
H4 H -0.254(9) 0.961(6) 0.6985(17) 0.0410 Uiso
N1 N -0.0195(8) 0.7850(4) 0.7500(4) 0.0240 Uani
N2 N -0.1070(9) 0.6558(4) 0.8223(4) 0.0256 Uani
H5 H -0.1529 0.5981 0.8311 0.0310 Uiso
N3 N 0.0830(8) 0.7400(4) 0.5581(4) 0.0222 Uani
N4 N 0.1625(9) 0.6002(4) 0.4983(4) 0.0240 Uani
H6 H 0.2079 0.5411 0.4953 0.0290 Uiso
C1 C 0.1100(10) 0.8989(5) 0.8814(6) 0.0278 Uani
C2 C 0.0247(10) 0.8030(5) 0.8448(5) 0.0243 Uani
C3 C -0.0307(10) 0.7222(5) 0.8910(5) 0.0246 Uani
C4 C -0.0138(10) 0.6985(6) 0.9908(5) 0.0275 Uani
C5 C -0.0994(11) 0.6941(5) 0.7387(5) 0.0248 Uani
H7 H -0.1434 0.6622 0.6808 0.0300 Uiso
C6 C -0.0624(9) 0.8382(5) 0.4153(5) 0.0213 Uani
C7 C 0.0260(10) 0.7441(5) 0.4599(5) 0.0196 Uani
C8 C 0.0760(9) 0.6596(5) 0.4235(5) 0.0206 Uani
C9 C 0.0556(10) 0.6228(6) 0.3234(5) 0.0279 Uani
C10 C 0.1627(11) 0.6523(5) 0.5777(5) 0.0264 Uani
H8 H 0.2132 0.6286 0.6388 0.0320 Uiso
Pb1C Pb -0.38564(4) 0.592571(18) 0.14540(2) 0.0234 Uani
O7C O 0.4614(8) 0.8170(4) 0.7574(3) 0.0314 Uani
loop_
_atom_site_aniso_label
_atom_site_aniso_U_11
_atom_site_aniso_U_22
_atom_site_aniso_U_33
_atom_site_aniso_U_23
_atom_site_aniso_U_13
_atom_site_aniso_U_12
Pb1 0.03257(16) 0.01526(16) 0.02246(19) 0.00047(11) 0.00637(12) 0.00006(12)
O1 0.049(3) 0.015(3) 0.024(3) -0.001(2) 0.013(2) -0.007(2)
O2 0.045(3) 0.029(3) 0.024(3) -0.011(2) 0.009(3) -0.007(3)
O3 0.053(3) 0.031(4) 0.041(4) 0.013(2) 0.016(3) -0.002(3)
O4 0.050(3) 0.041(4) 0.027(3) 0.003(2) 0.010(3) -0.014(3)
O5 0.040(3) 0.013(3) 0.031(3) -0.001(2) 0.006(3) 0.002(2)
O6 0.042(3) 0.027(3) 0.021(3) 0.010(2) 0.004(3) 0.002(3)
O7 0.045(3) 0.032(3) 0.020(3) 0.000(2) 0.013(3) -0.002(2)
O8 0.060(3) 0.032(3) 0.038(4) -0.016(3) 0.026(3) 0.008(3)
O9 0.032(2) 0.026(3) 0.022(3) 0.001(2) 0.005(2) 0.001(2)
N1 0.028(3) 0.019(3) 0.025(4) 0.005(3) 0.006(3) 0.001(3)
N2 0.035(3) 0.012(3) 0.032(4) 0.005(2) 0.012(3) -0.005(3)
N3 0.032(3) 0.019(3) 0.018(3) -0.001(2) 0.011(3) 0.001(3)
N4 0.034(3) 0.012(3) 0.027(4) -0.004(2) 0.009(3) 0.004(3)
C1 0.023(3) 0.019(4) 0.043(5) -0.005(3) 0.011(4) 0.004(3)
C2 0.020(3) 0.018(4) 0.036(5) -0.005(3) 0.009(3) -0.001(3)
C3 0.027(3) 0.020(4) 0.030(4) 0.004(3) 0.013(3) -0.002(3)
C4 0.022(3) 0.030(5) 0.029(4) 0.009(3) 0.003(3) 0.004(3)
C5 0.037(4) 0.016(4) 0.019(4) -0.003(3) 0.002(3) -0.004(3)
C6 0.021(3) 0.014(4) 0.028(4) 0.002(3) 0.004(3) -0.004(3)
C7 0.021(3) 0.012(3) 0.025(4) 0.003(3) 0.004(3) -0.002(3)
C8 0.021(3) 0.015(4) 0.025(4) 0.002(3) 0.004(3) 0.000(3)
C9 0.025(3) 0.031(5) 0.030(5) -0.003(3) 0.011(4) -0.006(3)
C10 0.039(4) 0.020(4) 0.022(4) -0.001(3) 0.011(3) 0.005(4)
Pb1C 0.03257 0.01526 0.02246 -0.00047 0.00637 -6e-05
O7C 0.045 0.032 0.02 0 0.013 0.002
loop_
_geom_bond_atom_site_label_1
_geom_bond_atom_site_label_2
_geom_bond_site_symmetry_1
_geom_bond_site_symmetry_2
Pb1 O1 1_555 1_555
O1 C1 1_555 1_555
O2 C1 1_555 1_555
O3 C4 1_555 1_555
O4 H1 1_555 1_555
O5 Pb1 1_555 1_555
O6 H2 1_555 1_555
O7 C9 1_555 1_555
O8 C9 1_555 1_555
O9 Pb1 1_555 1_555
H3 O9 1_555 1_555
H4 O9 1_555 1_555
N1 Pb1 1_555 1_555
N2 H5 1_555 1_555
N3 Pb1 1_555 1_555
N4 H6 1_555 1_555
C1 C2 1_555 1_555
C2 N1 1_555 1_555
C3 N2 1_555 1_555
C4 O4 1_555 1_555
C5 N1 1_555 1_555
H7 C5 1_555 1_555
C6 O5 1_555 1_555
C7 N3 1_555 1_555
C8 N4 1_555 1_555
C9 C8 1_555 1_555
C10 N3 1_555 1_555
H8 C10 1_555 1_555
Pb1C O7 1_555 1_555
O7C Pb1 1_555 1_555
O6 C6 1_555 1_555
N2 C5 1_555 1_555
N4 C10 1_555 1_555
C2 C3 1_555 1_555
C3 C4 1_555 1_555
C6 C7 1_555 1_555
C7 C8 1_555 1_555

#END
