
#######################################################################
#
#                 Cambridge Crystallographic Data Centre
#                                CCDC 
#
#######################################################################
#
# If this CIF has been generated from an entry in the Cambridge 
# Structural Database, then it will include bibliographic, chemical, 
# crystal, experimental, refinement or atomic coordinate data resulting 
# from the CCDC's data processing and validation procedures.
#
#######################################################################

data_YELYIY02
_chemical_formula_moiety         '(C5 H4 Cd1 N2 O5)n'
_chemical_name_systematic        
catena-[(\m~3~-1H-Imidazole-4,5-dicarboxylato)-aqua-cadmium(ii)]
_symmetry_cell_setting           orthorhombic
_symmetry_space_group_name_H-M   'P b c a'
_symmetry_Int_Tables_number      61
_space_group_name_Hall           '-P 2ac 2ab'
loop_
_symmetry_equiv_pos_site_id
_symmetry_equiv_pos_as_xyz
1 x,y,z
2 1/2-x,-y,1/2+z
3 -x,1/2+y,1/2-z
4 1/2+x,1/2-y,-z
5 -x,-y,-z
6 1/2+x,y,1/2-z
7 x,1/2-y,1/2+z
8 1/2-x,1/2+y,z
_cell_length_a                   7.1721(12)
_cell_length_b                   13.702(2)
_cell_length_c                   14.774(3)
_cell_angle_alpha                90
_cell_angle_beta                 90
_cell_angle_gamma                90
_cell_volume                     1451.87
_exptl_crystal_colour            colorless
_exptl_crystal_description       block
_cell_formula_units_Z            8
loop_
_atom_site_label
_atom_site_type_symbol
_atom_site_fract_x
_atom_site_fract_y
_atom_site_fract_z
_atom_site_U_iso_or_equiv
_atom_site_thermal_displace_type
Cd1 Cd 0.08055(3) 0.863187(13) 0.085600(12) 0.0181 Uani
O1 O 0.2233(3) 0.78195(13) 0.20450(13) 0.0305 Uani
O2 O 0.3111(3) 0.78926(13) 0.34778(12) 0.0224 Uani
O3 O 0.3307(3) 0.94418(13) 0.47728(12) 0.0243 Uani
O4 O 0.2117(3) 1.09381(13) 0.47650(13) 0.0252 Uani
O5 O 0.0547(3) 0.73259(16) -0.00478(17) 0.0422 Uani
H1 H -0.010(5) 0.6840(17) 0.010(2) 0.0630 Uiso
H2 H 0.138(4) 0.723(2) -0.044(2) 0.0630 Uiso
N1 N 0.1465(3) 0.97419(15) 0.19480(14) 0.0202 Uani
N2 N 0.1492(3) 1.09023(15) 0.29618(15) 0.0220 Uani
H3 H 0.1384 1.1473 0.3199 0.0260 Uiso
C1 C 0.2452(4) 0.82761(18) 0.27654(16) 0.0184 Uani
C2 C 0.1954(3) 0.93371(18) 0.27647(16) 0.0170 Uani
C3 C 0.1971(3) 1.00625(18) 0.34165(17) 0.0180 Uani
C4 C 0.2497(4) 1.01300(18) 0.43910(17) 0.0189 Uani
C5 C 0.1222(4) 1.06835(19) 0.20905(18) 0.0234 Uani
H4 H 0.0905 1.1134 0.1645 0.0280 Uiso
Cd1E Cd 0.58055(3) 0.863187(13) 0.414400(12) 0.0181 Uani
Cd1A Cd 0.41945(3) 1.136813(13) 0.585600(12) 0.0181 Uani
O2E O -0.1889(3) 0.78926(13) 0.15222(12) 0.0224 Uani
O3E O -0.1693(3) 0.94418(13) 0.02272(12) 0.0243 Uani
O4A O 0.2883(3) 0.90619(13) -0.02350(13) 0.0252 Uani
loop_
_atom_site_aniso_label
_atom_site_aniso_U_11
_atom_site_aniso_U_22
_atom_site_aniso_U_33
_atom_site_aniso_U_23
_atom_site_aniso_U_13
_atom_site_aniso_U_12
Cd1 0.02441(14) 0.01767(13) 0.01221(13) -0.00073(7) -0.00055(7) 0.00031(7)
O1 0.0528(14) 0.0191(10) 0.0196(10) -0.0055(8) -0.0113(9) 0.0096(9)
O2 0.0329(11) 0.0163(9) 0.0179(10) 0.0019(7) -0.0067(8) 0.0010(8)
O3 0.0326(11) 0.0243(10) 0.0159(9) 0.0000(8) -0.0015(8) 0.0081(8)
O4 0.0329(11) 0.0203(10) 0.0223(10) -0.0067(8) -0.0058(8) 0.0067(8)
O5 0.0435(14) 0.0327(13) 0.0505(15) -0.0223(11) 0.0263(11) -0.0159(10)
N1 0.0297(13) 0.0169(11) 0.0139(11) 0.0011(9) -0.0050(9) -0.0003(9)
N2 0.0323(13) 0.0119(10) 0.0218(12) -0.0030(9) -0.0066(10) 0.0015(10)
C1 0.0203(13) 0.0167(12) 0.0183(14) -0.0003(10) 0.0008(11) -0.0016(11)
C2 0.0201(13) 0.0161(12) 0.0147(13) -0.0008(10) -0.0021(10) -0.0002(10)
C3 0.0207(13) 0.0136(12) 0.0197(13) 0.0013(10) -0.0010(11) -0.0001(10)
C4 0.0203(13) 0.0199(13) 0.0166(13) -0.0007(10) 0.0005(11) -0.0015(11)
C5 0.0317(16) 0.0167(13) 0.0217(14) 0.0034(11) -0.0088(12) -0.0014(11)
Cd1E 0.02441 0.01767 0.01221 0.00073 0.00055 0.00031
Cd1A 0.02441 0.01767 0.01221 0.00073 0.00055 0.00031
O2E 0.0329 0.0163 0.0179 -0.0019 0.0067 0.001
O3E 0.0326 0.0243 0.0159 0 0.0015 0.0081
O4A 0.0329 0.0203 0.0223 0.0067 0.0058 0.0067
loop_
_geom_bond_atom_site_label_1
_geom_bond_atom_site_label_2
_geom_bond_site_symmetry_1
_geom_bond_site_symmetry_2
Cd1 O1 1_555 1_555
O1 C1 1_555 1_555
O2 C1 1_555 1_555
O3 C4 1_555 1_555
O4 C4 1_555 1_555
O5 Cd1 1_555 1_555
H1 O5 1_555 1_555
H2 O5 1_555 1_555
N1 Cd1 1_555 1_555
N2 H3 1_555 1_555
C1 C2 1_555 1_555
C2 N1 1_555 1_555
C3 N2 1_555 1_555
C4 C3 1_555 1_555
C5 N1 1_555 1_555
H4 C5 1_555 1_555
Cd1E O2 1_555 1_555
Cd1A O4 1_555 1_555
O2E Cd1 1_555 1_555
O3E Cd1 1_555 1_555
O4A Cd1 1_555 1_555
O3 Cd1E 1_555 1_555
N2 C5 1_555 1_555
C2 C3 1_555 1_555

#END
