
#######################################################################
#
#                 Cambridge Crystallographic Data Centre
#                                CCDC 
#
#######################################################################
#
# If this CIF has been generated from an entry in the Cambridge 
# Structural Database, then it will include bibliographic, chemical, 
# crystal, experimental, refinement or atomic coordinate data resulting 
# from the CCDC's data processing and validation procedures.
#
#######################################################################

data_ECIWUJ
_chemical_formula_moiety         '(C26 H16 N2 O8 Zn2)n'
_chemical_name_systematic        
catena-(bis(\m~4~-Benzene-1,4-dicarboxylato)-(\m~2~-4,4'-bipyridine)-di-zinc)
_symmetry_cell_setting           triclinic
_symmetry_space_group_name_H-M   'P -1'
_symmetry_Int_Tables_number      2
_space_group_name_Hall           '-P 1'
loop_
_symmetry_equiv_pos_site_id
_symmetry_equiv_pos_as_xyz
1 x,y,z
2 -x,-y,-z
_cell_length_a                   7.7911(18)
_cell_length_b                   9.2984(18)
_cell_length_c                   10.6284(19)
_cell_angle_alpha                65.320(7)
_cell_angle_beta                 86.199(7)
_cell_angle_gamma                78.145(7)
_cell_volume                     684.551
_exptl_crystal_colour            colorless
_exptl_crystal_description       block
_cell_formula_units_Z            1
loop_
_atom_site_label
_atom_site_type_symbol
_atom_site_fract_x
_atom_site_fract_y
_atom_site_fract_z
Zn1 Zn 0.63512(4) 0.56325(4) 0.54411(3)
O1 O 0.6724(3) 0.7331(3) 0.3513(2)
O2 O 0.4717(3) 0.6266(3) 0.2992(2)
O3 O 0.4158(3) 0.7158(2) 0.5540(2)
O4 O 0.2103(3) 0.6162(2) 0.4910(2)
N1 N 0.7845(3) 0.5658(3) 0.6929(3)
C1 C 0.5617(4) 0.7328(4) 0.2709(3)
C2 C 0.5324(4) 0.8708(4) 0.1296(3)
C3 C 0.6242(5) 0.9950(4) 0.0901(3)
C4 C 0.4083(5) 0.8763(4) 0.0387(4)
C5 C 0.2602(4) 0.7203(3) 0.5206(3)
C6 C -0.0423(4) 0.8876(4) 0.4572(3)
H1 H -0.0702 0.8115 0.4278
C7 C 0.1675(4) 0.9777(4) 0.5531(3)
H2 H 0.2818 0.9623 0.5886
C8 C 0.7397(18) 0.6677(16) 0.7510(14)
H3 H 0.6452 0.7565 0.7116
C9 C 0.825(2) 0.6497(16) 0.8668(15)
H4 H 0.7952 0.7308 0.9011
C10 C 0.9550(5) 0.5149(5) 0.9351(4)
C11 C 1.0259(5) 0.4406(5) 0.8522(4)
C12 C 0.9378(5) 0.4686(5) 0.7337(4)
H5 H 0.701(5) 0.996(4) 0.158(4)
H6 H 0.984(5) 0.408(5) 0.678(4)
H7 H 0.347(5) 0.793(5) 0.072(4)
H8 H 1.123(7) 0.379(6) 0.875(5)
C13 C 0.1252(4) 0.8644(4) 0.5112(3)
Zn1A Zn 0.36488(4) 1.43675(4) -0.54411(3)
Zn1A_2 Zn 0.36488(4) 0.43675(4) 0.45589(3)
Zn1_2 Zn 0.63512(4) 1.56325(4) -0.45589(3)
Zn1A_3 Zn -0.63512(4) 1.43675(4) 0.45589(3)
Zn1_3 Zn -0.36488(4) 1.56325(4) 0.54411(3)
Zn1A_4 Zn 1.36488(4) 0.43675(4) 1.45589(3)
O1A O 0.3276(3) 1.2669(3) -0.3513(2)
O2A O 0.5283(3) 1.3734(3) -0.2992(2)
O2A_2 O 0.5283(3) 0.3734(3) 0.7008(2)
O2_2 O 0.4717(3) 1.6266(3) -0.7008(2)
O3A O -0.4158(3) 1.2842(2) 0.4460(2)
O3A_2 O 0.5842(3) 1.2842(2) -0.5540(2)
O4A O -0.2103(3) 1.3838(2) 0.5090(2)
O4A_2 O 0.7897(3) 0.3838(2) 0.5090(2)
O4_2 O 0.2103(3) 1.6162(2) -0.5090(2)
N1A N 1.2155(3) 0.4342(3) 1.3071(3)
N1A_2 N 0.2155(3) 1.4342(3) -0.6929(3)
C1A C 0.4383(4) 1.2672(4) -0.2709(3)
C2A C 0.4676(4) 1.1292(4) -0.1296(3)
C3A C 0.3758(5) 1.0050(4) -0.0901(3)
C4A C 0.5917(5) 1.1237(4) -0.0387(4)
C5A C -0.2602(4) 1.2797(3) 0.4794(3)
C6A C 0.0423(4) 1.1124(4) 0.5428(3)
H1A H 0.0702 1.1885 0.5722
C7A C -0.1675(4) 1.0223(4) 0.4469(3)
H2A H -0.2818 1.0377 0.4114
C8A C 1.2603(18) 0.3323(16) 1.2490(14)
H3A H 1.3548 0.2435 1.2884
C9A C 1.175(2) 0.3503(16) 1.1332(15)
H4A H 1.2048 0.2692 1.0989
C10A C 1.0450(5) 0.4851(5) 1.0649(4)
C11A C 0.9741(5) 0.5594(5) 1.1478(4)
C12A C 1.0622(5) 0.5314(5) 1.2663(4)
H5A H 0.299(5) 1.004(4) -0.158(4)
H6A H 1.016(5) 0.592(5) 1.322(4)
H7A H 0.653(5) 1.207(5) -0.072(4)
H8A H 0.877(7) 0.621(6) 1.125(5)
C13A C -0.1252(4) 1.1356(4) 0.4888(3)
C14? C 0.688(2) 0.608(3) 0.7965(18)
H9? H 0.5673 0.6556 0.7806
C15? C 0.7675(18) 0.581(3) 0.9181(17)
H10? H 0.7025 0.6044 0.9884
loop_
_geom_bond_atom_site_label_1
_geom_bond_atom_site_label_2
_geom_bond_site_symmetry_1
_geom_bond_site_symmetry_2
Zn1 O1 1_555 1_555
O1 C1 1_555 1_555
O2 C1 1_555 1_555
O3 Zn1 1_555 1_555
O4 C5 1_555 1_555
N1 Zn1 1_555 1_555
C1 C2 1_555 1_555
C2 C3 1_555 1_555
C3 H5 1_555 1_555
C4 C2 1_555 1_555
C5 O3 1_555 1_555
C6 H1 1_555 1_555
C7 H2 1_555 1_555
C8 N1 1_555 1_555
H3 C8 1_555 1_555
C9 C8 1_555 1_555
H4 C9 1_555 1_555
C10 C9 1_555 1_555
C11 C10 1_555 1_555
C12 N1 1_555 1_555
H6 C12 1_555 1_555
H7 C4 1_555 1_555
H8 C11 1_555 1_555
C13 C5 1_555 1_555
Zn1A O1A 1_555 1_555
Zn1A_2 O2 1_555 1_555
Zn1_2 O2A 1_555 1_555
Zn1A_3 O3A 1_555 1_555
Zn1_3 O4A 1_555 1_555
Zn1A_4 N1A 1_555 1_555
O1A C1A 1_555 1_555
O2A C1A 1_555 1_555
O2A_2 Zn1 1_555 1_555
O2_2 Zn1A 1_555 1_555
O3A C5A 1_555 1_555
O3A_2 Zn1A 1_555 1_555
O4A C5A 1_555 1_555
O4A_2 Zn1 1_555 1_555
O4_2 Zn1A 1_555 1_555
N1A C8A 1_555 1_555
N1A_2 Zn1A 1_555 1_555
C1A C2A 1_555 1_555
C2A C3A 1_555 1_555
C3A C4 1_555 1_555
C4A C3 1_555 1_555
C5A C13A 1_555 1_555
C6A C7 1_555 1_555
H1A C6A 1_555 1_555
C7A C6 1_555 1_555
H2A C7A 1_555 1_555
C8A H3A 1_555 1_555
C9A C8A 1_555 1_555
H4A C9A 1_555 1_555
C10A C10 1_555 1_555
C11A C10A 1_555 1_555
C12A N1A 1_555 1_555
H5A C3A 1_555 1_555
H6A C12A 1_555 1_555
H7A C4A 1_555 1_555
H8A C11A 1_555 1_555
C13A C6A 1_555 1_555
O4 Zn1A_2 1_555 1_555
C6 C13 1_555 1_555
C7 C13 1_555 1_555
C11 C12 1_555 1_555
C2A C4A 1_555 1_555
C7A C13A 1_555 1_555
C9A C10A 1_555 1_555
C11A C12A 1_555 1_555

#END
