
#######################################################################
#
#                 Cambridge Crystallographic Data Centre
#                                CCDC 
#
#######################################################################
#
# If this CIF has been generated from an entry in the Cambridge 
# Structural Database, then it will include bibliographic, chemical, 
# crystal, experimental, refinement or atomic coordinate data resulting 
# from the CCDC's data processing and validation procedures.
#
#######################################################################

data_EDADIX
_chemical_formula_moiety         '(C26 H16 N2 O8 Zn2)n,2n(C3 H7 N1 O1),n(H2 O1)'
_chemical_name_systematic        
"catena-(bis(\m~4~-1,4-Benzenedicarboxylato)-(\m~2~-4,4'-bipyridiine)-di-zinc dimethylformamide solvate monohydrate)"
_symmetry_cell_setting           triclinic
_symmetry_space_group_name_H-M   'P -1'
_symmetry_Int_Tables_number      2
_space_group_name_Hall           '-P 1'
loop_
_symmetry_equiv_pos_site_id
_symmetry_equiv_pos_as_xyz
1 x,y,z
2 -x,-y,-z
_cell_length_a                   10.880(3)
_cell_length_b                   10.918(3)
_cell_length_c                   14.122(4)
_cell_angle_alpha                89.335(16)
_cell_angle_beta                 89.171(17)
_cell_angle_gamma                78.380(16)
_cell_volume                     1642.9
_exptl_crystal_colour            colorless
_exptl_crystal_description       block
_cell_formula_units_Z            2
loop_
_atom_site_label
_atom_site_type_symbol
_atom_site_fract_x
_atom_site_fract_y
_atom_site_fract_z
Zn1 Zn 0.27301(6) -0.33722(7) 0.19774(4)
Zn2 Zn 0.26930(6) -0.34033(7) 0.40742(4)
O1 O 0.2915(5) -0.5232(4) 0.2215(3)
O2 O 0.2913(5) -0.5281(5) 0.3784(3)
O3 O 0.2497(5) -1.1541(5) 0.3746(3)
O4 O 0.2510(5) -1.1504(4) 0.2184(3)
O5 O 0.4567(4) -0.3499(5) 0.2254(3)
O6 O 0.4544(4) -0.3532(5) 0.3857(3)
O7 O 1.0853(4) -0.3288(5) 0.3869(3)
O8 O 1.0890(4) -0.3241(5) 0.2265(3)
N1 N 0.2678(5) -0.3344(5) -0.4468(3)
N2 N 0.2741(5) -0.3369(5) 0.0538(3)
C1 C 0.2870(6) -0.5778(6) 0.2996(5)
C2 C 0.2752(6) -0.7121(6) 0.2991(4)
C4 C 0.233(4) -0.770(2) 0.3745(13)
H2 H 0.2114 -0.7247 0.4313
C6 C 0.222(4) -0.896(2) 0.3716(12)
H4 H 0.1872 -0.9325 0.4246
C7 C 0.2578(7) -0.9632(6) 0.2960(5)
C9 C 0.291(3) -0.908(2) 0.2145(14)
H6 H 0.3071 -0.9547 0.1579
C11 C 0.300(3) -0.786(2) 0.2148(13)
H8 H 0.3238 -0.7483 0.1582
C12 C 0.2528(6) -1.1002(6) 0.2964(5)
C13 C 0.5073(6) -0.3498(6) 0.3044(4)
C14 C 0.6439(6) -0.3472(6) 0.3058(4)
C15 C 0.7093(6) -0.3598(6) 0.3900(4)
H9 H 0.6666 -0.3708 0.4477
C16 C 0.8374(6) -0.3566(6) 0.3913(4)
H10 H 0.8825 -0.3686 0.4489
C17 C 0.8977(6) -0.3353(6) 0.3058(4)
C18 C 0.8325(6) -0.3203(6) 0.2185(4)
H11 H 0.8745 -0.3070 0.1610
C19 C 0.7053(6) -0.3255(6) 0.2194(4)
H12 H 0.6596 -0.3145 0.1620
C20 C 1.0346(6) -0.3308(6) 0.3059(4)
C21 C 0.1607(6) -0.3217(7) -0.3966(4)
H13 H 0.0840 -0.3135 -0.4296
C22 C 0.1570(7) -0.3200(7) -0.2997(4)
H14 H 0.0788 -0.3093 -0.2668
C23 C 0.2691(6) -0.3343(6) -0.2492(4)
C24 C 0.3796(6) -0.3464(7) -0.3016(4)
H15 H 0.4582 -0.3560 -0.2709
C25 C 0.3733(7) -0.3442(7) -0.4003(4)
H16 H 0.4491 -0.3500 -0.4357
C26 C 0.2691(7) -0.3335(7) -0.1444(4)
C27 C 0.1744(13) -0.2551(15) -0.0901(8)
H17 H 0.1077 -0.1984 -0.1194
C29 C 0.1839(13) -0.2655(15) 0.0089(8)
H19 H 0.1190 -0.2161 0.0457
C31 C 0.3634(13) -0.4104(13) 0.0036(8)
H21 H 0.4288 -0.4658 0.0353
C33 C 0.3619(15) -0.4070(15) -0.0953(9)
H23 H 0.4286 -0.4583 -0.1293
Zn1_2 Zn 0.27301(6) -1.33722(7) 0.19774(4)
Zn1_3 Zn 1.27301(6) -0.33722(7) 0.19774(4)
Zn2_2 Zn 0.26930(6) -1.34033(7) 0.40742(4)
Zn2_3 Zn 1.26930(6) -0.34033(7) 0.40742(4)
Zn2_4 Zn 0.26930(6) -0.34033(7) -0.59258(4)
O3_2 O 0.2497(5) -0.1541(5) 0.3746(3)
O4_2 O 0.2510(5) -0.1504(4) 0.2184(3)
O7_2 O 0.0853(4) -0.3288(5) 0.3869(3)
O8_2 O 0.0890(4) -0.3241(5) 0.2265(3)
N1_2 N 0.2678(5) -0.3344(5) 0.5532(3)
C3? C 0.327(2) -0.7945(17) 0.3763(12)
H1? H 0.3669 -0.7632 0.4272
C5? C 0.3167(18) -0.9164(14) 0.3757(10)
H3? H 0.3481 -0.9705 0.4268
C8? C 0.213(2) -0.8856(18) 0.2232(14)
H5? H 0.1742 -0.9165 0.1710
C10? C 0.2224(19) -0.7609(15) 0.2251(12)
H7? H 0.1914 -0.7079 0.1733
C28? C 0.3590(15) -0.2872(17) 0.9053(9)
H18? H 0.4224 -0.2554 0.8719
C30? C 0.3565(13) -0.2875(19) 1.0034(10)
H20? H 0.4159 -0.2510 1.0358
C32? C 0.1881(17) -0.3854(18) 1.0028(10)
H22? H 0.1290 -0.4238 1.0359
C34? C 0.1854(15) -0.3800(17) 0.9095(9)
H24? H 0.1209 -0.4106 0.8784
loop_
_geom_bond_atom_site_label_1
_geom_bond_atom_site_label_2
_geom_bond_site_symmetry_1
_geom_bond_site_symmetry_2
Zn1 O1 1_555 1_555
Zn2 O2 1_555 1_555
O1 C1 1_555 1_555
O2 C1 1_555 1_555
O3 C12 1_555 1_555
O4 C12 1_555 1_555
O5 Zn1 1_555 1_555
O6 Zn2 1_555 1_555
O7 C20 1_555 1_555
O8 C20 1_555 1_555
N1 C21 1_555 1_555
N2 Zn1 1_555 1_555
C1 C2 1_555 1_555
C2 C4 1_555 1_555
C4 H2 1_555 1_555
C6 C4 1_555 1_555
H4 C6 1_555 1_555
C7 C6 1_555 1_555
C9 C7 1_555 1_555
H6 C9 1_555 1_555
C11 C2 1_555 1_555
H8 C11 1_555 1_555
C12 C7 1_555 1_555
C13 O5 1_555 1_555
C14 C13 1_555 1_555
C15 C14 1_555 1_555
H9 C15 1_555 1_555
C16 C15 1_555 1_555
H10 C16 1_555 1_555
C17 C16 1_555 1_555
C18 C17 1_555 1_555
H11 C18 1_555 1_555
C19 C14 1_555 1_555
H12 C19 1_555 1_555
C20 C17 1_555 1_555
C21 H13 1_555 1_555
C22 C21 1_555 1_555
H14 C22 1_555 1_555
C23 C22 1_555 1_555
C24 C23 1_555 1_555
H15 C24 1_555 1_555
C25 N1 1_555 1_555
H16 C25 1_555 1_555
C26 C23 1_555 1_555
C27 C26 1_555 1_555
H17 C27 1_555 1_555
C29 N2 1_555 1_555
H19 C29 1_555 1_555
C31 N2 1_555 1_555
H21 C31 1_555 1_555
C33 C26 1_555 1_555
H23 C33 1_555 1_555
Zn1_2 O4 1_555 1_555
Zn1_3 O8 1_555 1_555
Zn2_2 O3 1_555 1_555
Zn2_3 O7 1_555 1_555
Zn2_4 N1 1_555 1_555
O3_2 Zn2 1_555 1_555
O4_2 Zn1 1_555 1_555
O7_2 Zn2 1_555 1_555
O8_2 Zn1 1_555 1_555
N1_2 Zn2 1_555 1_555
O6 C13 1_555 1_555
C9 C11 1_555 1_555
C18 C19 1_555 1_555
C24 C25 1_555 1_555
C27 C29 1_555 1_555
C31 C33 1_555 1_555

#END
