
#######################################################################
#
#                 Cambridge Crystallographic Data Centre
#                                CCDC 
#
#######################################################################
#
# If this CIF has been generated from an entry in the Cambridge 
# Structural Database, then it will include bibliographic, chemical, 
# crystal, experimental, refinement or atomic coordinate data resulting 
# from the CCDC's data processing and validation procedures.
#
#######################################################################

data_SEVLAI
_chemical_formula_moiety         '(C10 H11 Cu1 N6 1+)n,N1 O3 1-'
_chemical_name_systematic        
'catena-[(\m~2~-1,2-bis((1-imidazol-4-yl)methylene)ethane-1,2-diamine)-copper(ii) nitrate]'
_symmetry_cell_setting           monoclinic
_symmetry_space_group_name_H-M   'P 21/c'
_symmetry_Int_Tables_number      14
_space_group_name_Hall           '-P 2ybc'
loop_
_symmetry_equiv_pos_site_id
_symmetry_equiv_pos_as_xyz
1 x,y,z
2 -x,1/2+y,1/2-z
3 -x,-y,-z
4 x,1/2-y,1/2+z
_cell_length_a                   8.9680(3)
_cell_length_b                   9.0543(3)
_cell_length_c                   16.5808(5)
_cell_angle_alpha                90
_cell_angle_beta                 97.998(3)
_cell_angle_gamma                90
_cell_volume                     1333.25
_exptl_crystal_colour            blue
_exptl_crystal_description       block-like
_cell_formula_units_Z            4
loop_
_atom_site_label
_atom_site_type_symbol
_atom_site_fract_x
_atom_site_fract_y
_atom_site_fract_z
_atom_site_U_iso_or_equiv
_atom_site_thermal_displace_type
Cu1 Cu 0.08533(4) 0.20917(4) 0.876415(18) 0.0330 Uani
N1 N -0.2323(3) 0.1498(3) 1.03858(15) 0.0482 Uani
H1 H -0.3134 0.1223 1.0565 0.0580 Uiso
N2 N -0.0625(3) 0.1756(3) 0.95699(13) 0.0351 Uani
N3 N 0.1852(3) 0.3291(3) 0.96871(15) 0.0428 Uani
N4 N 0.2955(3) 0.2099(3) 0.85239(15) 0.0404 Uani
N5 N 0.0648(2) 0.0521(2) 0.79307(13) 0.0333 Uani
N6 N 0.0294(3) -0.1224(3) 0.69666(13) 0.0380 Uani
C1 C -0.1229(4) 0.2351(4) 1.07866(19) 0.0500 Uani
H2 H -0.1206 0.2745 1.1306 0.0600 Uiso
C2 C -0.1922(3) 0.1153(3) 0.96605(17) 0.0416 Uani
H3 H -0.2487 0.0565 0.9272 0.0500 Uiso
C3 C -0.0174(3) 0.2524(3) 1.02867(16) 0.0396 Uani
C4 C 0.1243(4) 0.3304(3) 1.03282(19) 0.0477 Uani
H4 H 0.1678 0.3785 1.0798 0.0570 Uiso
C5 C 0.3266(4) 0.3974(4) 0.9572(2) 0.0556 Uani
H5 H 0.3888 0.4103 1.0094 0.0660 Uiso
H6 H 0.3081 0.4939 0.9324 0.0660 Uiso
C6 C 0.4070(4) 0.3001(4) 0.9028(2) 0.0616 Uani
H7 H 0.4615 0.3607 0.8685 0.0740 Uiso
H8 H 0.4788 0.2370 0.9358 0.0740 Uiso
C7 C 0.3245(3) 0.1177(4) 0.79852(17) 0.0399 Uani
H9 H 0.4199 0.1083 0.7832 0.0480 Uiso
C8 C 0.1990(3) 0.0295(3) 0.76328(16) 0.0342 Uani
C9 C 0.1754(3) -0.0782(3) 0.70481(16) 0.0387 Uani
H10 H 0.2481 -0.1153 0.6753 0.0460 Uiso
C10 C -0.0316(3) -0.0406(3) 0.75149(15) 0.0361 Uani
H11 H -0.1319 -0.0483 0.7595 0.0430 Uiso
Cu1A Cu -0.08533(4) -0.29083(4) 0.623585(18) 0.0330 Uani
N6A N -0.0294(3) 0.3776(3) 0.80334(13) 0.0380 Uani
O1 O 0.5126(2) 0.9152(3) 0.91708(13) 0.0572 Uani
O2 O 0.6440(4) 0.8596(4) 0.82484(19) 0.1035 Uani
O3 O 0.4738(4) 0.7102(3) 0.8533(2) 0.0911 Uani
N7 N 0.5435(3) 0.8267(3) 0.86402(17) 0.0517 Uani
loop_
_atom_site_aniso_label
_atom_site_aniso_U_11
_atom_site_aniso_U_22
_atom_site_aniso_U_33
_atom_site_aniso_U_23
_atom_site_aniso_U_13
_atom_site_aniso_U_12
Cu1 0.0315(2) 0.0370(2) 0.0311(2) -0.00207(15) 0.00694(15) -0.00652(15)
N1 0.0453(15) 0.0572(16) 0.0470(15) 0.0093(14) 0.0241(12) 0.0046(14)
N2 0.0380(13) 0.0371(13) 0.0316(12) 0.0014(11) 0.0093(10) -0.0036(11)
N3 0.0420(14) 0.0447(15) 0.0415(14) -0.0044(12) 0.0052(12) -0.0122(12)
N4 0.0310(13) 0.0504(16) 0.0394(13) 0.0015(12) 0.0039(11) -0.0098(12)
N5 0.0320(13) 0.0372(13) 0.0322(12) 0.0000(11) 0.0102(10) -0.0019(11)
N6 0.0396(14) 0.0404(14) 0.0357(12) -0.0025(11) 0.0109(10) 0.0005(12)
C1 0.063(2) 0.056(2) 0.0332(16) 0.0014(16) 0.0147(16) 0.0117(18)
C2 0.0413(17) 0.0428(17) 0.0430(17) 0.0026(15) 0.0135(13) -0.0006(15)
C3 0.0498(18) 0.0393(16) 0.0298(15) 0.0002(13) 0.0057(14) 0.0015(15)
C4 0.057(2) 0.0464(18) 0.0383(17) -0.0118(15) 0.0018(15) -0.0088(16)
C5 0.0485(19) 0.055(2) 0.062(2) -0.0070(18) 0.0036(16) -0.0214(17)
C6 0.0377(19) 0.082(3) 0.065(2) -0.010(2) 0.0068(16) -0.0208(18)
C7 0.0290(15) 0.0525(18) 0.0395(16) 0.0112(16) 0.0092(13) -0.0025(14)
C8 0.0329(15) 0.0394(16) 0.0324(14) 0.0048(13) 0.0116(12) 0.0009(13)
C9 0.0371(16) 0.0440(17) 0.0382(15) 0.0009(14) 0.0160(13) 0.0057(14)
C10 0.0345(16) 0.0394(16) 0.0357(15) -0.0044(14) 0.0092(13) -0.0029(14)
Cu1A 0.0315 0.037 0.0311 0.00207 0.00694 0.00652
N6A 0.0396 0.0404 0.0357 0.0025 0.0109 -0.0005
O1 0.0563(14) 0.0641(15) 0.0565(13) -0.0125(13) 0.0263(11) -0.0050(12)
O2 0.102(2) 0.115(2) 0.113(2) -0.046(2) 0.084(2) -0.040(2)
O3 0.101(2) 0.073(2) 0.109(2) -0.0316(17) 0.049(2) -0.0336(17)
N7 0.0459(16) 0.0580(18) 0.0546(16) -0.0052(15) 0.0192(14) -0.0014(14)
loop_
_geom_bond_atom_site_label_1
_geom_bond_atom_site_label_2
_geom_bond_site_symmetry_1
_geom_bond_site_symmetry_2
Cu1 N2 1_555 1_555
N1 H1 1_555 1_555
N2 C2 1_555 1_555
N3 Cu1 1_555 1_555
N4 Cu1 1_555 1_555
N5 Cu1 1_555 1_555
N6 C9 1_555 1_555
C1 N1 1_555 1_555
H2 C1 1_555 1_555
C2 N1 1_555 1_555
H3 C2 1_555 1_555
C3 N2 1_555 1_555
C4 N3 1_555 1_555
H4 C4 1_555 1_555
C5 N3 1_555 1_555
H5 C5 1_555 1_555
H6 C5 1_555 1_555
C6 N4 1_555 1_555
H7 C6 1_555 1_555
H8 C6 1_555 1_555
C7 N4 1_555 1_555
H9 C7 1_555 1_555
C8 N5 1_555 1_555
C9 C8 1_555 1_555
H10 C9 1_555 1_555
C10 N5 1_555 1_555
H11 C10 1_555 1_555
O1 N7 1_555 1_555
O2 N7 1_555 1_555
O3 N7 1_555 1_555
Cu1A N6 1_555 1_555
N6A Cu1 1_555 1_555
N6 C10 1_555 1_555
C1 C3 1_555 1_555
C3 C4 1_555 1_555
C5 C6 1_555 1_555
C7 C8 1_555 1_555

#END
