
#######################################################################
#
#                 Cambridge Crystallographic Data Centre
#                                CCDC 
#
#######################################################################
#
# If this CIF has been generated from an entry in the Cambridge 
# Structural Database, then it will include bibliographic, chemical, 
# crystal, experimental, refinement or atomic coordinate data resulting 
# from the CCDC's data processing and validation procedures.
#
#######################################################################

data_HUDWOU
_chemical_formula_moiety         
'(C108 H72 Cu6 O42)n,10(C4 H9 N1 O1),4(C2 H6 O1)'
_chemical_name_systematic        
"catena-[tetrakis(\m~6~-3,3',3''-(benzene-1,3,5-triyl)tris(6-hydroxybenzoato))-hexa-aqua-hexa-copper N,N-dimethylacetamide ethanol solvate]"
_symmetry_cell_setting           triclinic
_symmetry_space_group_name_H-M   'P -1'
_symmetry_Int_Tables_number      2
_space_group_name_Hall           '-P 1'
loop_
_symmetry_equiv_pos_site_id
_symmetry_equiv_pos_as_xyz
1 x,y,z
2 -x,-y,-z
_cell_length_a                   22.777(5)
_cell_length_b                   25.033(5)
_cell_length_c                   25.074(5)
_cell_angle_alpha                119.76(3)
_cell_angle_beta                 93.50(3)
_cell_angle_gamma                92.99(3)
_cell_volume                     12331.7
_exptl_crystal_colour            green
_exptl_crystal_description       block
_cell_formula_units_Z            2
loop_
_atom_site_label
_atom_site_type_symbol
_atom_site_fract_x
_atom_site_fract_y
_atom_site_fract_z
C1 C 0.1783(2) 0.4423(3) 1.3994(2)
C2 C 0.1388(2) 0.3919(3) 1.3503(2)
C3 C 0.1167(3) 0.3401(3) 1.3535(3)
C4 C 0.0814(3) 0.2925(3) 1.3039(3)
H1 H 0.0653 0.2589 1.3070
C5 C 0.0697(2) 0.2938(3) 1.2509(3)
H2 H 0.0461 0.2606 1.2178
C6 C 0.0917(2) 0.3434(3) 1.2437(2)
C7 C 0.1250(2) 0.3922(3) 1.2946(2)
H3 H 0.1390 0.4267 1.2919
C8 C 0.0846(2) 0.3416(3) 1.1844(2)
C9 C 0.0821(2) 0.3973(2) 1.1829(2)
H4 H 0.0804 0.4346 1.2200
C10 C 0.0819(2) 0.3981(2) 1.1285(2)
C11 C 0.0822(2) 0.3416(2) 1.0740(2)
H5 H 0.0812 0.3410 1.0362
C12 C 0.0840(2) 0.2869(2) 1.0739(2)
C13 C 0.0849(2) 0.2888(3) 1.1292(2)
H6 H 0.0858 0.2513 1.1292
C14 C 0.0898(2) 0.2271(2) 1.0150(2)
C15 C 0.0629(2) 0.2161(3) 0.9573(2)
H7 H 0.0393 0.2449 0.9554
C16 C 0.0721(3) 0.1626(3) 0.9042(3)
H8 H 0.0526 0.1539 0.8662
C17 C 0.1083(3) 0.1226(3) 0.9058(3)
C18 C 0.1347(2) 0.1321(2) 0.9623(2)
C19 C 0.1253(2) 0.1848(2) 1.0157(2)
H9 H 0.1436 0.1921 1.0536
C20 C 0.0867(2) 0.4557(2) 1.1271(2)
C21 C 0.0615(3) 0.5093(3) 1.1711(3)
H10 H 0.0382 0.5064 1.1994
C22 C 0.0706(3) 0.5649(3) 1.1733(3)
H11 H 0.0525 0.5991 1.2022
C23 C 0.1057(3) 0.5715(3) 1.1339(3)
C24 C 0.1309(2) 0.5193(3) 1.0893(2)
C25 C 0.1206(2) 0.4640(2) 1.0872(2)
H12 H 0.1373 0.4296 1.0570
C26 C 0.1696(2) 0.5226(3) 1.0456(2)
C27 C 0.1645(2) 0.5126(3) 0.8937(3)
C28 C 0.1246(2) 0.5088(3) 0.8424(2)
C29 C 0.0996(2) 0.4536(2) 0.7947(2)
C30 C 0.0661(3) 0.4525(3) 0.7458(3)
H13 H 0.0485 0.4145 0.7132
C31 C 0.0581(2) 0.5052(3) 0.7441(2)
H14 H 0.0359 0.5027 0.7099
C32 C 0.0826(2) 0.5634(2) 0.7927(2)
C33 C 0.1161(2) 0.5633(2) 0.8414(2)
H15 H 0.1335 0.6011 0.8745
C34 C 0.0784(2) 0.6205(2) 0.7915(2)
C35 C 0.0782(2) 0.6779(2) 0.8457(2)
H16 H 0.0766 0.6787 0.8834
C36 C 0.0803(2) 0.7332(2) 0.8460(2)
C37 C 0.0826(2) 0.7307(2) 0.7899(2)
H17 H 0.0836 0.7679 0.7892
C38 C 0.0834(2) 0.6762(3) 0.7352(2)
C39 C 0.0803(2) 0.6209(2) 0.7362(2)
H18 H 0.0795 0.5833 0.6990
C40 C 0.0853(2) 0.7923(2) 0.9051(2)
C41 C 0.0576(2) 0.8007(3) 0.9555(3)
H19 H 0.0326 0.7678 0.9519
C42 C 0.0648(3) 0.8547(3) 1.0102(3)
H20 H 0.0440 0.8590 1.0431
C43 C 0.1036(2) 0.9044(3) 1.0178(2)
C44 C 0.1319(2) 0.8973(2) 0.9681(2)
C45 C 0.1224(2) 0.8429(2) 0.9122(2)
H21 H 0.1410 0.8394 0.8783
C46 C 0.1737(2) 0.9476(3) 0.9727(3)
C47 C 0.0902(2) 0.6758(3) 0.6776(2)
C48 C 0.0675(3) 0.7209(3) 0.6655(3)
H22 H 0.0444 0.7500 0.6939
C49 C 0.0784(3) 0.7228(3) 0.6129(3)
H23 H 0.0621 0.7528 0.6059
C50 C 0.1124(3) 0.6825(3) 0.5711(3)
C51 C 0.1357(2) 0.6366(3) 0.5801(2)
C52 C 0.1234(2) 0.6346(3) 0.6331(2)
H24 H 0.1386 0.6035 0.6389
C53 C 0.1758(2) 0.5938(3) 0.5387(2)
C54 C 0.3182(3) 0.5290(3) 0.9077(3)
C55 C 0.3598(2) 0.5315(3) 0.8640(2)
C56 C 0.3727(2) 0.5874(2) 0.8682(2)
H25 H 0.3576 0.6227 0.8992
C57 C 0.4075(2) 0.5930(2) 0.8279(2)
C58 C 0.4312(2) 0.5405(3) 0.7849(2)
H26 H 0.4559 0.5434 0.7575
C59 C 0.4194(3) 0.4845(3) 0.7814(3)
H27 H 0.4367 0.4498 0.7524
C60 C 0.3826(3) 0.4786(3) 0.8199(3)
C61 C 0.4158(2) 0.6526(2) 0.8292(2)
C62 C 0.4171(2) 0.7087(2) 0.8835(2)
H28 H 0.4175 0.7094 0.9214
C63 C 0.4180(2) 0.7639(2) 0.8829(2)
C64 C 0.4181(2) 0.7630(3) 0.8277(2)
H29 H 0.4184 0.8003 0.8273
C65 C 0.4177(2) 0.7080(2) 0.7729(2)
C66 C 0.4173(2) 0.6547(2) 0.7750(2)
H30 H 0.4181 0.6173 0.7378
C67 C 0.4130(2) 0.8219(2) 0.9420(2)
C68 C 0.4390(3) 0.8345(3) 0.9998(3)
H31 H 0.4651 0.8079 1.0023
C69 C 0.4264(3) 0.8850(3) 1.0518(3)
H32 H 0.4416 0.8903 1.0900
C70 C 0.3932(3) 0.9284(3) 1.0519(3)
C71 C 0.3678(2) 0.9196(2) 0.9959(2)
C72 C 0.3782(2) 0.8667(2) 0.9417(2)
H33 H 0.3616 0.8607 0.9037
C73 C 0.3277(2) 0.9613(3) 0.9909(3)
C74 C 0.4119(2) 0.7069(2) 0.7134(2)
C75 C 0.4387(2) 0.7577(3) 0.7073(3)
H34 H 0.4615 0.7911 0.7412
C76 C 0.4306(3) 0.7568(3) 0.6528(3)
H35 H 0.4499 0.7886 0.6487
C77 C 0.3943(3) 0.7097(3) 0.6024(3)
C78 C 0.3692(2) 0.6610(2) 0.6075(2)
C79 C 0.3796(2) 0.6611(2) 0.6623(2)
H36 H 0.3630 0.6271 0.6644
C80 C 0.3303(2) 0.6088(3) 0.5570(2)
C81 C 0.3297(2) 1.1036(2) 0.9811(3)
C82 C 0.3707(2) 1.1536(3) 0.9842(2)
C83 C 0.3797(2) 1.2095(2) 1.0401(2)
H37 H 0.3622 1.2127 1.0745
C84 C 0.4133(2) 1.2599(2) 1.0463(2)
C85 C 0.4394(2) 1.2518(2) 0.9931(2)
H38 H 0.4634 1.2847 0.9956
C86 C 0.4305(2) 1.1980(3) 0.9394(2)
H39 H 0.4489 1.1942 0.9053
C87 C 0.3950(2) 1.1482(3) 0.9329(2)
C88 C 0.4183(2) 1.3192(2) 1.1050(2)
C89 C 0.4191(2) 1.3210(2) 1.1605(2)
H40 H 0.4201 1.2839 1.1612
C90 C 0.4184(2) 1.3778(2) 1.2174(2)
C91 C 0.4166(2) 1.4306(2) 1.2134(2)
H41 H 0.4163 1.4687 1.2501
C92 C 0.4150(2) 1.4302(2) 1.1578(2)
C93 C 0.4177(2) 1.3743(2) 1.1035(2)
H42 H 0.4191 1.3736 1.0657
C94 C 0.4143(2) 1.3781(2) 1.2755(2)
C95 C 0.4420(2) 1.3374(2) 1.2884(2)
H43 H 0.4669 1.3106 1.2606
C96 C 0.4335(3) 1.3356(3) 1.3420(3)
H44 H 0.4517 1.3068 1.3495
C97 C 0.3987(2) 1.3756(3) 1.3838(3)
C98 C 0.3709(2) 1.4169(3) 1.3719(2)
C99 C 0.3796(2) 1.4188(2) 1.3198(2)
H45 H 0.3619 1.4484 1.3133
C100 C 0.3303(2) 1.4595(3) 1.4144(2)
C101 C 0.4087(2) 1.4871(2) 1.1556(2)
C102 C 0.4328(3) 1.5462(3) 1.2048(3)
H46 H 0.4572 1.5484 1.2375
C103 C 0.4215(3) 1.5996(3) 1.2060(3)
H47 H 0.4373 1.6379 1.2396
C104 C 0.3861(3) 1.5974(3) 1.1564(3)
C105 C 0.3646(2) 1.5409(3) 1.1074(2)
C106 C 0.3755(2) 1.4884(2) 1.1086(2)
H48 H 0.3592 1.4503 1.0749
C107 C 0.3229(2) 1.5359(3) 1.0558(3)
C108 C 0.1768(2) 0.0904(3) 0.9670(3)
Cu1 Cu 0.25376(3) 0.49794(3) 1.51041(3)
Cu2 Cu 0.25290(3) 0.55523(3) 1.44481(3)
Cu3 Cu 0.24333(3) 0.46387(3) 0.94705(3)
Cu4 Cu 0.24384(3) 0.58643(3) 1.00395(3)
Cu5 Cu 0.25242(3) 0.99325(3) 0.91639(3)
Cu6 Cu 0.25206(3) 1.05757(3) 1.03885(3)
O1 O 0.2544(2) 0.4557(3) 1.5645(3)
H49 H 0.2544 0.4185 1.5466
H50 H 0.2615 0.4796 1.6032
O2 O 0.2545(2) 0.5968(2) 1.3910(2)
H51 H 0.2350 0.6282 1.4065
H52 H 0.2744 0.5797 1.3596
O3 O 0.19402(17) 0.43795(18) 1.44563(16)
O4 O 0.19261(17) 0.48693(18) 1.39275(16)
O5 O 0.1291(2) 0.3359(2) 1.4048(2)
H53 H 0.1588 0.3596 1.4254
O6 O 0.19183(18) 0.10019(18) 1.01937(17)
O7 O 0.19336(18) 0.04855(18) 0.91728(17)
O8 O 0.1198(2) 0.0740(2) 0.85133(18)
H54 H 0.0884 0.0568 0.8292
O9 O 0.18622(17) 0.47299(18) 1.00424(18)
O10 O 0.18524(16) 0.57593(18) 1.05271(17)
O11 O 0.1141(2) 0.6273(2) 1.1391(2)
H55 H 0.1413 0.6275 1.1185
O12 O 0.2418(2) 0.3680(2) 0.9063(2)
H56 H 0.2520 0.3529 0.8699
H57 H 0.2337 0.3591 0.9338
O13 O 0.2419(2) 0.6818(2) 1.0455(2)
H58 H 0.2331 0.6951 1.0821
H59 H 0.2545 0.6941 1.0218
O14 O 0.18033(17) 0.46396(18) 0.89017(17)
O15 O 0.18164(17) 0.56590(18) 0.93797(17)
O16 O 0.1083(2) 0.39855(19) 0.7905(2)
H60 H 0.1289 0.4045 0.8218
O17 O 0.1120(2) 0.9554(2) 1.07434(18)
H61 H 0.1437 0.9753 1.0777
O18 O 0.19025(17) 0.99305(17) 1.02637(17)
O19 O 0.19130(17) 0.94064(18) 0.92367(17)
O20 O 0.19218(17) 0.55323(19) 0.55024(17)
O21 O 0.19230(17) 0.60230(18) 0.49680(16)
O22 O 0.1229(2) 0.6903(3) 0.5231(2)
H62 H 0.1566 0.6810 0.5134
O23 O 0.30090(18) 0.47453(18) 0.89768(17)
O24 O 0.30229(18) 0.57745(17) 0.94701(17)
O25 O 0.3696(2) 0.42185(19) 0.8127(2)
H63 H 0.3919 0.3975 0.7892
O26 O 0.3839(2) 0.9781(2) 1.10698(18)
H64 H 0.3505 0.9889 1.1043
O27 O 0.31155(16) 1.00530(17) 1.04101(17)
O28 O 0.31186(18) 0.95277(18) 0.93913(17)
O29 O 0.31313(18) 0.56541(19) 0.56423(16)
O30 O 0.31346(17) 0.61450(18) 0.51029(16)
O31 O 0.3856(2) 0.7145(2) 0.55111(19)
H65 H 0.3669 0.6824 0.5231
O32 O 0.31255(18) 1.11016(17) 1.02990(16)
O33 O 0.31391(18) 1.05699(18) 0.92733(17)
O34 O 0.3879(2) 1.0970(2) 0.87742(18)
H66 H 0.3557 1.0775 0.8732
O35 O 0.30671(18) 1.48460(19) 1.01319(18)
O36 O 0.30585(17) 1.58641(18) 1.06214(17)
O37 O 0.3766(2) 1.6538(2) 1.1632(2)
H67 H 0.3518 1.6491 1.1351
O38 O 0.31331(17) 1.50152(18) 1.40477(16)
O39 O 0.31535(17) 1.45269(19) 1.45899(17)
O40 O 0.3915(2) 1.3704(2) 1.4348(2)
H68 H 0.3583 1.3801 1.4462
O41 O 0.2523(3) 1.1113(3) 1.1340(2)
H69 H 0.2466 1.0880 1.1492
H70 H 0.2557 1.1497 1.1460
O42 O 0.2509(2) 0.9389(2) 0.82074(18)
H71 H 0.2647 0.9607 0.8063
H72 H 0.2417 0.9007 0.8081
Cu1_2 Cu 0.25376(3) 0.49794(3) 0.51041(3)
Cu1_3 Cu 0.25376(3) 1.49794(3) 1.51041(3)
Cu2_2 Cu 0.25290(3) 0.55523(3) 0.44481(3)
Cu2_3 Cu 0.25290(3) 1.55523(3) 1.44481(3)
Cu3_2 Cu 0.24333(3) 1.46387(3) 0.94705(3)
Cu4_2 Cu 0.24384(3) 1.58643(3) 1.00395(3)
Cu5_2 Cu 0.25242(3) -0.00675(3) 0.91639(3)
Cu6_2 Cu 0.25206(3) 0.05757(3) 1.03885(3)
O6_2 O 0.19183(18) 1.10019(18) 1.01937(17)
O7_2 O 0.19336(18) 1.04855(18) 0.91728(17)
O20_2 O 0.19218(17) 0.55323(19) 1.55024(17)
O21_2 O 0.19230(17) 0.60230(18) 1.49680(16)
O29_2 O 0.31313(18) 0.56541(19) 1.56423(16)
O30_2 O 0.31346(17) 0.61450(18) 1.51029(16)
O35_2 O 0.30671(18) 0.48460(19) 1.01319(18)
O36_2 O 0.30585(17) 0.58641(18) 1.06214(17)
O38_2 O 0.31331(17) 0.50152(18) 1.40477(16)
O39_2 O 0.31535(17) 0.45269(19) 1.45899(17)
loop_
_geom_bond_atom_site_label_1
_geom_bond_atom_site_label_2
_geom_bond_site_symmetry_1
_geom_bond_site_symmetry_2
C1 C2 1_555 1_555
C2 C3 1_555 1_555
C3 C4 1_555 1_555
C4 H1 1_555 1_555
C5 C4 1_555 1_555
H2 C5 1_555 1_555
C6 C5 1_555 1_555
C7 C2 1_555 1_555
H3 C7 1_555 1_555
C8 C6 1_555 1_555
C9 C8 1_555 1_555
H4 C9 1_555 1_555
C10 C9 1_555 1_555
C11 C10 1_555 1_555
H5 C11 1_555 1_555
C12 C11 1_555 1_555
C13 C8 1_555 1_555
H6 C13 1_555 1_555
C14 C12 1_555 1_555
C15 C14 1_555 1_555
H7 C15 1_555 1_555
C16 C15 1_555 1_555
H8 C16 1_555 1_555
C17 C16 1_555 1_555
C18 C17 1_555 1_555
C19 C14 1_555 1_555
H9 C19 1_555 1_555
C20 C10 1_555 1_555
C21 C20 1_555 1_555
H10 C21 1_555 1_555
C22 C21 1_555 1_555
H11 C22 1_555 1_555
C23 C22 1_555 1_555
C24 C23 1_555 1_555
C25 C20 1_555 1_555
H12 C25 1_555 1_555
C26 C24 1_555 1_555
C27 C28 1_555 1_555
C28 C29 1_555 1_555
C29 C30 1_555 1_555
C30 H13 1_555 1_555
C31 C30 1_555 1_555
H14 C31 1_555 1_555
C32 C31 1_555 1_555
C33 C28 1_555 1_555
H15 C33 1_555 1_555
C34 C32 1_555 1_555
C35 C34 1_555 1_555
H16 C35 1_555 1_555
C36 C35 1_555 1_555
C37 C36 1_555 1_555
H17 C37 1_555 1_555
C38 C37 1_555 1_555
C39 C34 1_555 1_555
H18 C39 1_555 1_555
C40 C36 1_555 1_555
C41 C40 1_555 1_555
H19 C41 1_555 1_555
C42 C41 1_555 1_555
H20 C42 1_555 1_555
C43 C42 1_555 1_555
C44 C43 1_555 1_555
C45 C40 1_555 1_555
H21 C45 1_555 1_555
C46 C44 1_555 1_555
C47 C38 1_555 1_555
C48 C47 1_555 1_555
H22 C48 1_555 1_555
C49 C48 1_555 1_555
H23 C49 1_555 1_555
C50 C49 1_555 1_555
C51 C50 1_555 1_555
C52 C47 1_555 1_555
H24 C52 1_555 1_555
C53 C51 1_555 1_555
C54 C55 1_555 1_555
C55 C56 1_555 1_555
C56 H25 1_555 1_555
C57 C56 1_555 1_555
C58 C57 1_555 1_555
H26 C58 1_555 1_555
C59 C58 1_555 1_555
H27 C59 1_555 1_555
C60 C55 1_555 1_555
C61 C57 1_555 1_555
C62 C61 1_555 1_555
H28 C62 1_555 1_555
C63 C62 1_555 1_555
C64 C63 1_555 1_555
H29 C64 1_555 1_555
C65 C64 1_555 1_555
C66 C61 1_555 1_555
H30 C66 1_555 1_555
C67 C63 1_555 1_555
C68 C67 1_555 1_555
H31 C68 1_555 1_555
C69 C68 1_555 1_555
H32 C69 1_555 1_555
C70 C69 1_555 1_555
C71 C70 1_555 1_555
C72 C67 1_555 1_555
H33 C72 1_555 1_555
C73 C71 1_555 1_555
C74 C65 1_555 1_555
C75 C74 1_555 1_555
H34 C75 1_555 1_555
C76 C75 1_555 1_555
H35 C76 1_555 1_555
C77 C76 1_555 1_555
C78 C77 1_555 1_555
C79 C74 1_555 1_555
H36 C79 1_555 1_555
C80 C78 1_555 1_555
C81 C82 1_555 1_555
C82 C83 1_555 1_555
C83 H37 1_555 1_555
C84 C83 1_555 1_555
C85 C84 1_555 1_555
H38 C85 1_555 1_555
C86 C85 1_555 1_555
H39 C86 1_555 1_555
C87 C82 1_555 1_555
C88 C84 1_555 1_555
C89 C88 1_555 1_555
H40 C89 1_555 1_555
C90 C89 1_555 1_555
C91 C90 1_555 1_555
H41 C91 1_555 1_555
C92 C91 1_555 1_555
C93 C88 1_555 1_555
H42 C93 1_555 1_555
C94 C90 1_555 1_555
C95 C94 1_555 1_555
H43 C95 1_555 1_555
C96 C95 1_555 1_555
H44 C96 1_555 1_555
C97 C96 1_555 1_555
C98 C97 1_555 1_555
C99 C94 1_555 1_555
H45 C99 1_555 1_555
C100 C98 1_555 1_555
C101 C92 1_555 1_555
C102 C101 1_555 1_555
H46 C102 1_555 1_555
C103 C102 1_555 1_555
H47 C103 1_555 1_555
C104 C103 1_555 1_555
C105 C104 1_555 1_555
C106 C101 1_555 1_555
H48 C106 1_555 1_555
C107 C105 1_555 1_555
C108 C18 1_555 1_555
Cu1 Cu2 1_555 1_555
Cu2 O2 1_555 1_555
Cu3 Cu4 1_555 1_555
Cu4 O10 1_555 1_555
Cu5 Cu6 1_555 1_555
Cu6 O18 1_555 1_555
O1 Cu1 1_555 1_555
H49 O1 1_555 1_555
H50 O1 1_555 1_555
O2 H51 1_555 1_555
H52 O2 1_555 1_555
O3 C1 1_555 1_555
O4 C1 1_555 1_555
O5 C3 1_555 1_555
H53 O5 1_555 1_555
O6 C108 1_555 1_555
O7 C108 1_555 1_555
O8 C17 1_555 1_555
H54 O8 1_555 1_555
O9 C26 1_555 1_555
O10 C26 1_555 1_555
O11 C23 1_555 1_555
H55 O11 1_555 1_555
O12 Cu3 1_555 1_555
H56 O12 1_555 1_555
H57 O12 1_555 1_555
O13 Cu4 1_555 1_555
H58 O13 1_555 1_555
H59 O13 1_555 1_555
O14 C27 1_555 1_555
O15 C27 1_555 1_555
O16 C29 1_555 1_555
H60 O16 1_555 1_555
O17 C43 1_555 1_555
H61 O17 1_555 1_555
O18 C46 1_555 1_555
O19 C46 1_555 1_555
O20 C53 1_555 1_555
O21 C53 1_555 1_555
O22 C50 1_555 1_555
H62 O22 1_555 1_555
O23 C54 1_555 1_555
O24 C54 1_555 1_555
O25 C60 1_555 1_555
H63 O25 1_555 1_555
O26 C70 1_555 1_555
H64 O26 1_555 1_555
O27 C73 1_555 1_555
O28 C73 1_555 1_555
O29 C80 1_555 1_555
O30 C80 1_555 1_555
O31 C77 1_555 1_555
H65 O31 1_555 1_555
O32 C81 1_555 1_555
O33 C81 1_555 1_555
O34 C87 1_555 1_555
H66 O34 1_555 1_555
O35 C107 1_555 1_555
O36 C107 1_555 1_555
O37 C104 1_555 1_555
H67 O37 1_555 1_555
O38 C100 1_555 1_555
O39 C100 1_555 1_555
O40 C97 1_555 1_555
H68 O40 1_555 1_555
O41 Cu6 1_555 1_555
H69 O41 1_555 1_555
H70 O41 1_555 1_555
O42 Cu5 1_555 1_555
H71 O42 1_555 1_555
H72 O42 1_555 1_555
Cu1_2 O20 1_555 1_555
Cu1_3 O39 1_555 1_555
Cu2_2 O21 1_555 1_555
Cu2_3 O38 1_555 1_555
Cu3_2 O35 1_555 1_555
Cu4_2 O36 1_555 1_555
Cu5_2 O7 1_555 1_555
Cu6_2 O6 1_555 1_555
O6_2 Cu6 1_555 1_555
O7_2 Cu5 1_555 1_555
O20_2 Cu1 1_555 1_555
O21_2 Cu2 1_555 1_555
O29_2 Cu1 1_555 1_555
O30_2 Cu2 1_555 1_555
O35_2 Cu3 1_555 1_555
O36_2 Cu4 1_555 1_555
O38_2 Cu2 1_555 1_555
O39_2 Cu1 1_555 1_555
C6 C7 1_555 1_555
C12 C13 1_555 1_555
C18 C19 1_555 1_555
C24 C25 1_555 1_555
C32 C33 1_555 1_555
C38 C39 1_555 1_555
C44 C45 1_555 1_555
C51 C52 1_555 1_555
C59 C60 1_555 1_555
C65 C66 1_555 1_555
C71 C72 1_555 1_555
C78 C79 1_555 1_555
C86 C87 1_555 1_555
C92 C93 1_555 1_555
C98 C99 1_555 1_555
C105 C106 1_555 1_555
Cu1 O3 1_555 1_555
Cu2 O4 1_555 1_555
Cu3 O9 1_555 1_555
Cu3 O14 1_555 1_555
Cu3 O23 1_555 1_555
Cu4 O15 1_555 1_555
Cu4 O24 1_555 1_555
Cu5 O19 1_555 1_555
Cu5 O28 1_555 1_555
Cu5 O33 1_555 1_555
Cu6 O27 1_555 1_555
Cu6 O32 1_555 1_555
O29 Cu1_2 1_555 1_555
O30 Cu2_2 1_555 1_555
Cu1_2 Cu2_2 1_555 1_555
Cu1_3 Cu2_3 1_555 1_555
Cu3_2 Cu4_2 1_555 1_555
Cu5_2 Cu6_2 1_555 1_555

#END
