
#######################################################################
#
#                 Cambridge Crystallographic Data Centre
#                                CCDC 
#
#######################################################################
#
# If this CIF has been generated from an entry in the Cambridge 
# Structural Database, then it will include bibliographic, chemical, 
# crystal, experimental, refinement or atomic coordinate data resulting 
# from the CCDC's data processing and validation procedures.
#
#######################################################################

data_ZAXTAV
_chemical_formula_moiety         '(C52 H32 Cd1 N10 O14)n,2n(C1 H1 Cl3)'
_chemical_name_systematic        
"catena-(bis(\m~2~-2,7-bis(pyridin-4-ylmethyl)benzo[lmn][3,8]phenanthroline-1,3,6,8(2H,7H)-tetrone)-(nitrato-O,O')-(nitrato-O)-cadmium chloroform solvate)"
_symmetry_cell_setting           tetragonal
_symmetry_space_group_name_H-M   'P 43'
_symmetry_Int_Tables_number      78
_space_group_name_Hall           'P 4cw'
loop_
_symmetry_equiv_pos_site_id
_symmetry_equiv_pos_as_xyz
1 x,y,z
2 -x,-y,1/2+z
3 -y,x,3/4+z
4 y,-x,1/4+z
_cell_length_a                   17.2841(5)
_cell_length_b                   17.2841(5)
_cell_length_c                   20.9702(17)
_cell_angle_alpha                90
_cell_angle_beta                 90
_cell_angle_gamma                90
_cell_volume                     6264.64
_exptl_crystal_colour            colorless
_exptl_crystal_description       block
_cell_formula_units_Z            4
loop_
_atom_site_label
_atom_site_type_symbol
_atom_site_fract_x
_atom_site_fract_y
_atom_site_fract_z
_atom_site_U_iso_or_equiv
_atom_site_thermal_displace_type
Cd1 Cd 1.19721(4) 0.75560(3) 0.00234(5) 0.0660 Uani
N1 N 0.7912(4) 0.6318(5) -0.0563(4) 0.0853 Uani
N2 N 0.6555(5) 0.3098(5) -0.2258(5) 0.0990 Uani
N3 N 1.1372(4) 1.1701(3) 0.0854(3) 0.0583 Uani
N4 N 0.8300(4) 1.3816(4) 0.2188(3) 0.0673 Uani
O1 O 0.8017(4) 0.6982(4) -0.1505(4) 0.1070 Uani
O2 O 0.7973(5) 0.5587(5) 0.0308(4) 0.1170 Uani
O3 O 0.6603(4) 0.2377(4) -0.1352(4) 0.1097 Uani
O4 O 0.6443(5) 0.3820(5) -0.3145(4) 0.1300 Uani
O5 O 1.0733(4) 1.1588(4) -0.0059(3) 0.0970 Uani
O6 O 1.2010(3) 1.1772(3) 0.1795(3) 0.0747 Uani
O7 O 0.7587(4) 1.3664(4) 0.1279(4) 0.0957 Uani
O8 O 0.9023(4) 1.4042(3) 0.3049(3) 0.0807 Uani
C1 C 0.9056(6) 0.7073(5) -0.0173(5) 0.0980 Uani
C2 C 0.9419(7) 0.7610(6) 0.0269(5) 0.1163 Uani
H1 H 0.9101 0.7864 0.0559 0.1400 Uiso
C3 C 1.0169(6) 0.7762(7) 0.0288(6) 0.1087 Uani
H2 H 1.0359 0.8148 0.0555 0.1300 Uiso
N5 N 1.0654(4) 0.7350(4) -0.0085(4) 0.0743 Uani
C4 C 1.0394(7) 0.6849(6) -0.0429(6) 0.1123 Uani
H3 H 1.0755 0.6551 -0.0647 0.1350 Uiso
C5 C 0.9570(6) 0.6658(5) -0.0540(5) 0.1167 Uani
H4 H 0.9412 0.6288 -0.0835 0.1400 Uiso
C6 C 0.8179(5) 0.6993(6) -0.0213(5) 0.0907 Uani
H5 H 0.7972 0.6971 0.0216 0.1090 Uiso
H6 H 0.7972 0.7453 -0.0416 0.1090 Uiso
C7 C 0.7853(3) 0.6387(5) -0.1221(5) 0.0847 Uani
C8 C 0.7566(2) 0.5697(5) -0.1585(4) 0.0757 Uani
C9 C 0.7433(4) 0.5722(6) -0.2248(5) 0.0937 Uani
H7 H 0.7530 0.6180 -0.2466 0.1120 Uiso
C10 C 0.7172(5) 0.5113(6) -0.2576(5) 0.0803 Uani
H8 H 0.7103 0.5142 -0.3015 0.0960 Uiso
C11 C 0.7005(5) 0.4433(6) -0.2244(4) 0.0767 Uani
C12 C 0.6647(6) 0.3758(7) -0.2587(6) 0.0983 Uani
C13 C 0.6717(6) 0.2998(6) -0.1645(6) 0.0967 Uani
C14 C 0.7013(5) 0.3692(5) -0.1276(5) 0.0673 Uani
C15 C 0.7195(5) 0.3638(5) -0.0665(5) 0.0807 Uani
H9 H 0.7150 0.3157 -0.0470 0.0970 Uiso
C16 C 0.7445(6) 0.4249(6) -0.0303(5) 0.0830 Uani
H10 H 0.7542 0.4190 0.0131 0.1000 Uiso
C17 C 0.7550(5) 0.4954(5) -0.0597(4) 0.0730 Uani
C18 C 0.7826(6) 0.5664(7) -0.0266(5) 0.0877 Uani
C19 C 0.7401(4) 0.5025(5) -0.1249(4) 0.0617 Uani
C20 C 0.7137(5) 0.4341(5) -0.1596(4) 0.0650 Uani
C21 C 0.6269(6) 0.2444(7) -0.2614(6) 0.1063 Uani
H11 H 0.6506 0.1974 -0.2453 0.1280 Uiso
H12 H 0.6416 0.2500 -0.3059 0.1280 Uiso
C22 C 0.5385(5) 0.2374(5) -0.2567(5) 0.0837 Uani
C23 C 0.5021(7) 0.1981(6) -0.2989(6) 0.0883 Uani
H13 H 0.5318 0.1739 -0.3301 0.1060 Uiso
C24 C 0.4240(7) 0.1884(8) -0.3023(7) 0.0813 Uani
H14 H 0.4029 0.1609 -0.3362 0.0980 Uiso
N6 N 0.3775(4) 0.2177(4) -0.2581(4) 0.0797 Uani
C25 C 0.4057(7) 0.2645(8) -0.2114(6) 0.0793 Uani
H15 H 0.3758 0.2880 -0.1800 0.0960 Uiso
C26 C 0.4879(7) 0.2726(9) -0.2172(7) 0.0853 Uani
H16 H 0.5099 0.3080 -0.1892 0.1020 Uiso
C27 C 1.2006(4) 1.0473(5) 0.0439(4) 0.0593 Uani
C28 C 1.2241(5) 1.0175(5) -0.0089(5) 0.0770 Uani
H17 H 1.2412 1.0495 -0.0417 0.0920 Uiso
C29 C 1.2239(6) 0.9378(6) -0.0174(5) 0.0863 Uani
H18 H 1.2460 0.9174 -0.0542 0.1030 Uiso
N7 N 1.1920(4) 0.8874(4) 0.0270(3) 0.0593 Uani
C30 C 1.1703(4) 0.9214(5) 0.0785(4) 0.0600 Uani
H19 H 1.1515 0.8905 0.1114 0.0720 Uiso
C31 C 1.1725(4) 1.0006(5) 0.0889(4) 0.0643 Uani
H20 H 1.1545 1.0211 0.1271 0.0770 Uiso
C32 C 1.2033(5) 1.1360(4) 0.0534(4) 0.0620 Uani
H21 H 1.2494 1.1486 0.0777 0.0750 Uiso
H22 H 1.2086 1.1602 0.0118 0.0750 Uiso
C33 C 1.0732(6) 1.1834(5) 0.0486(4) 0.0700 Uani
C34 C 1.0066(6) 1.2278(5) 0.0751(4) 0.0693 Uani
C35 C 0.9408(5) 1.2374(5) 0.0380(5) 0.0757 Uani
H23 H 0.9360 1.2166 -0.0027 0.0910 Uiso
C36 C 0.8804(6) 1.2823(5) 0.0678(5) 0.0790 Uani
H24 H 0.8362 1.2934 0.0442 0.0950 Uiso
C37 C 0.8848(5) 1.3087(5) 0.1274(4) 0.0600 Uani
C38 C 0.8209(6) 1.3561(5) 0.1580(5) 0.0730 Uani
C39 C 0.8960(5) 1.3720(5) 0.2528(5) 0.0647 Uani
C40 C 0.9596(5) 1.3263(5) 0.2254(4) 0.0577 Uani
C41 C 1.0257(5) 1.3113(5) 0.2631(4) 0.0680 Uani
H25 H 1.0286 1.3302 0.3046 0.0820 Uiso
C42 C 1.0865(5) 1.2681(4) 0.2378(4) 0.0647 Uani
H26 H 1.1305 1.2580 0.2620 0.0780 Uiso
C43 C 1.0801(4) 1.2406(4) 0.1762(4) 0.0517 Uani
C44 C 1.1443(5) 1.1922(5) 0.1486(4) 0.0603 Uani
C45 C 1.0153(5) 1.2542(4) 0.1395(4) 0.0547 Uani
C46 C 0.9521(4) 1.2980(4) 0.1643(4) 0.0520 Uani
C47 C 0.7647(5) 1.4184(5) 0.2496(5) 0.0750 Uani
H27 H 0.7646 1.4047 0.2944 0.0900 Uiso
H28 H 0.7172 1.3989 0.2308 0.0900 Uiso
C48 C 0.7661(4) 1.5085(5) 0.2432(4) 0.0690 Uani
C49 C 0.7874(6) 1.5472(6) 0.1953(6) 0.0703 Uani
H29 H 0.8043 1.5231 0.1582 0.0840 Uiso
C50 C 0.7847(7) 1.6224(6) 0.2001(6) 0.0613 Uani
H30 H 0.7986 1.6487 0.1632 0.0740 Uiso
N8 N 0.7669(4) 1.6646(4) 0.2451(4) 0.0767 Uani
C51 C 0.7324(8) 1.6284(7) 0.2967(6) 0.0793 Uani
C52 C 0.7321(9) 1.5479(7) 0.2931(7) 0.0843 Uani
H31 H 0.7081 1.5199 0.3253 0.1010 Uiso
N9 N 1.1860(5) 0.7618(5) -0.1474(4) 0.0927 Uani
O9 O 1.2318(5) 0.7094(5) -0.1436(4) 0.1207 Uani
O10 O 1.1483(4) 0.7729(4) -0.1975(3) 0.0927 Uani
O11 O 1.1770(5) 0.8028(5) -0.1021(4) 0.1187 Uani
N10 N 1.1836(6) 0.7082(7) 0.1456(5) 0.1207 Uani
O12 O 1.1297(6) 0.7046(6) 0.1106(4) 0.1467 Uani
O13 O 1.1888(4) 0.6784(5) 0.1978(4) 0.1070 Uani
O14 O 1.2388(7) 0.7517(5) 0.1247(6) 0.1623 Uani
Cd1B Cd 0.24440(3) 0.19721(4) -0.24766(5) 0.0660 Uani
Cd1C Cd 0.75560(3) 1.80279(4) 0.25234(5) 0.0660 Uani
N6C N 1.2177(4) 0.6225(4) -0.0081(4) 0.0797 Uani
N8B N 1.3354(4) 0.7669(4) -0.0049(4) 0.0767 Uani
C53 C 1.0133(6) 0.9054(7) -0.1546(4) 0.0880 Uani
H32 H 1.0510 0.8630 -0.1555 0.1060 Uiso
Cl1 Cl 1.0551(3) 0.9705(2) -0.1040(2) 0.0787 Uani
Cl2 Cl 0.9317(3) 0.8616(3) -0.1288(2) 0.0757 Uani
Cl3 Cl 1.0100(3) 0.9340(4) -0.2307(2) 0.1127 Uani
C54 C 0.9406(6) 0.4547(9) -0.3213(5) 0.1213 Uani
H33 H 0.9121 0.4097 -0.3373 0.1460 Uiso
Cl4 Cl 0.9441(7) 0.4537(7) -0.2383(5) 0.2267 Uani
Cl5 Cl 1.0359(5) 0.4529(5) -0.3480(5) 0.1770 Uani
Cl6 Cl 0.8985(3) 0.5400(3) -0.3480(3) 0.0837 Uani
C63 C 0.4347(9) 0.5001(6) -0.4321(5) 0.0760 Uiso
H34 H 0.4890 0.4868 -0.4242 0.1140 Uiso
Cl7 Cl 0.3798(5) 0.4212(5) -0.4274(5) 0.1430 Uiso
Cl8 Cl 0.4252(12) 0.5410(9) -0.5045(6) 0.3000 Uiso
Cl9 Cl 0.4042(10) 0.5630(8) -0.3782(6) 0.2540 Uiso
C65 C 0.9831(12) 0.4099(7) -0.0568(5) 0.2000 Uiso
H36 H 0.9337 0.3854 -0.0677 0.2420 Uiso
Cl13 Cl 1.0515(6) 0.3393(4) -0.0783(4) 0.1143 Uani
Cl14 Cl 0.9828(11) 0.4946(6) -0.1035(6) 0.2260 Uiso
Cl15 Cl 0.9739(18) 0.4281(12) 0.0252(7) 0.1600 Uiso
C55? C 0.4980(9) 0.2844(9) -0.2905(7) 0.0800 Uani
C56? C 0.4209(10) 0.2848(8) -0.2983(7) 0.0767 Uani
C57? C 0.4353(9) 0.1740(12) -0.2285(10) 0.0773 Uani
C58? C 0.5187(10) 0.1839(13) -0.2306(11) 0.0863 Uani
C59? C 0.7465(7) 1.5505(8) 0.1955(8) 0.0623 Uani
C60? C 0.7478(9) 1.6262(9) 0.1907(9) 0.0637 Uani
C61? C 0.7973(14) 1.6347(9) 0.2895(10) 0.0777 Uani
C62? C 0.7991(13) 1.5537(10) 0.2949(10) 0.0770 Uani
C64? C 0.4897(6) 0.4704(7) -0.3775(6) 0.1690 Uiso
H35? H 0.5149 0.4352 -0.3473 0.2030 Uiso
Cl10? Cl 0.5540(4) 0.4889(4) -0.4345(3) 0.1010 Uiso
Cl11? Cl 0.4107(8) 0.4231(8) -0.4058(8) 0.3000 Uiso
Cl12? Cl 0.4594(6) 0.5464(5) -0.3350(5) 0.1440 Uiso
Cl16? Cl 1.0547(10) 0.3612(10) -0.1216(8) 0.1110 Uiso
loop_
_atom_site_aniso_label
_atom_site_aniso_U_11
_atom_site_aniso_U_22
_atom_site_aniso_U_33
_atom_site_aniso_U_23
_atom_site_aniso_U_13
_atom_site_aniso_U_12
Cd1 0.0610(3) 0.0503(3) 0.0867(4) -0.0057(4) 0.0170(4) -0.0065(3)
N1 0.073(4) 0.085(4) 0.098(5) 0.002(4) 0.006(4) -0.025(4)
N2 0.070(4) 0.093(5) 0.134(6) 0.000(4) -0.026(4) 0.012(4)
N3 0.059(3) 0.038(3) 0.078(4) -0.009(3) -0.003(3) 0.003(3)
N4 0.084(4) 0.045(3) 0.073(4) 0.003(3) 0.013(4) 0.011(3)
O1 0.085(4) 0.083(4) 0.153(5) 0.034(4) 0.038(4) 0.003(4)
O2 0.126(5) 0.123(5) 0.102(5) -0.006(4) 0.004(4) -0.043(4)
O3 0.090(4) 0.091(4) 0.148(5) 0.017(4) -0.019(4) -0.010(4)
O4 0.127(5) 0.144(5) 0.119(5) -0.013(5) -0.060(4) 0.028(4)
O5 0.114(4) 0.104(4) 0.073(4) -0.013(4) -0.002(4) 0.027(4)
O6 0.065(3) 0.061(3) 0.098(4) 0.007(3) -0.002(3) 0.004(3)
O7 0.089(4) 0.080(4) 0.118(4) 0.018(4) -0.016(4) 0.023(3)
O8 0.089(4) 0.068(3) 0.085(4) -0.003(3) 0.011(3) 0.000(3)
C1 0.086(5) 0.090(5) 0.118(6) -0.007(5) 0.028(5) -0.023(5)
C2 0.101(6) 0.114(6) 0.134(7) -0.020(6) 0.011(6) -0.002(6)
C3 0.086(6) 0.107(6) 0.133(7) -0.021(6) 0.019(6) 0.001(5)
N5 0.068(4) 0.049(3) 0.106(5) -0.009(4) 0.015(4) -0.010(3)
C4 0.087(6) 0.103(6) 0.147(7) -0.018(6) 0.016(6) -0.008(5)
C5 0.079(6) 0.118(6) 0.153(7) -0.024(6) 0.012(6) -0.013(6)
C6 0.076(5) 0.085(5) 0.111(6) -0.010(5) 0.016(5) -0.015(5)
C7 0.068(4) 0.070(5) 0.116(5) 0.023(5) 0.028(5) 0.001(4)
C8 0.069(5) 0.078(5) 0.080(5) 0.018(4) 0.000(4) 0.004(4)
C9 0.088(5) 0.106(6) 0.087(6) 0.031(5) 0.003(5) 0.011(5)
C10 0.087(5) 0.092(5) 0.062(5) 0.001(5) -0.016(5) 0.005(5)
C11 0.074(5) 0.089(5) 0.067(5) -0.006(4) -0.004(4) 0.016(4)
C12 0.077(5) 0.119(5) 0.099(5) -0.007(5) -0.033(5) 0.026(5)
C13 0.080(5) 0.078(5) 0.132(6) 0.010(5) -0.006(5) -0.006(5)
C14 0.053(4) 0.061(4) 0.088(5) 0.026(4) -0.009(4) -0.009(4)
C15 0.071(5) 0.067(5) 0.104(6) 0.017(5) 0.010(5) -0.016(4)
C16 0.094(5) 0.079(5) 0.076(5) 0.014(5) 0.015(5) -0.023(5)
C17 0.084(5) 0.070(5) 0.065(5) -0.003(4) 0.018(4) -0.006(4)
C18 0.097(5) 0.097(5) 0.069(5) 0.000(5) 0.003(5) -0.030(5)
C19 0.054(4) 0.067(4) 0.064(5) 0.017(4) 0.008(4) -0.003(4)
C20 0.050(4) 0.078(5) 0.067(5) 0.015(4) -0.004(4) -0.005(4)
C21 0.075(5) 0.111(6) 0.133(7) -0.008(6) -0.018(5) 0.018(5)
C22 0.059(4) 0.090(4) 0.102(5) -0.004(4) -0.002(4) 0.001(4)
C23 0.072(5) 0.101(5) 0.092(5) -0.004(5) 0.006(5) 0.006(5)
C24 0.072(5) 0.094(5) 0.078(5) -0.006(5) -0.015(5) -0.002(5)
N6 0.076(4) 0.073(4) 0.090(4) 0.010(4) -0.013(4) 0.001(3)
C25 0.073(6) 0.077(6) 0.088(6) -0.005(6) -0.008(6) -0.005(5)
C26 0.070(5) 0.087(5) 0.099(5) -0.006(5) -0.008(5) -0.006(5)
C27 0.064(4) 0.045(4) 0.069(5) -0.003(4) 0.011(4) -0.005(4)
C28 0.098(5) 0.052(4) 0.081(5) 0.003(4) 0.016(5) -0.025(4)
C29 0.105(6) 0.082(5) 0.072(6) 0.000(5) 0.015(5) -0.010(5)
N7 0.082(4) 0.051(3) 0.045(4) 0.006(3) 0.015(3) -0.014(3)
C30 0.080(5) 0.053(4) 0.047(4) 0.012(4) 0.016(4) 0.006(4)
C31 0.082(5) 0.048(4) 0.063(5) -0.006(4) 0.016(4) -0.005(4)
C32 0.055(4) 0.043(4) 0.088(5) -0.010(4) 0.014(4) -0.005(4)
C33 0.082(5) 0.068(4) 0.060(5) -0.005(4) 0.004(4) 0.004(4)
C34 0.090(5) 0.052(4) 0.066(5) 0.007(4) 0.014(4) -0.004(4)
C35 0.080(5) 0.077(5) 0.070(5) 0.004(4) -0.018(4) 0.021(5)
C36 0.083(5) 0.078(5) 0.076(5) 0.004(5) -0.023(5) 0.008(5)
C37 0.060(4) 0.054(4) 0.066(5) -0.004(4) -0.002(4) 0.005(4)
C38 0.077(4) 0.048(4) 0.094(5) 0.021(4) -0.008(4) 0.012(4)
C39 0.071(4) 0.058(4) 0.065(4) -0.007(4) 0.007(4) 0.011(4)
C40 0.059(4) 0.062(4) 0.052(4) -0.002(4) 0.007(4) -0.002(4)
C41 0.066(4) 0.083(5) 0.055(5) -0.004(4) -0.001(4) 0.000(4)
C42 0.071(4) 0.054(4) 0.069(5) 0.008(4) 0.004(4) 0.002(4)
C43 0.052(4) 0.040(4) 0.063(4) 0.002(4) 0.008(4) -0.006(3)
C44 0.064(4) 0.050(4) 0.067(4) 0.013(4) -0.003(4) -0.004(4)
C45 0.068(4) 0.046(4) 0.050(4) 0.002(4) 0.007(4) -0.011(4)
C46 0.051(4) 0.039(4) 0.066(4) -0.003(4) 0.003(4) 0.000(3)
C47 0.074(4) 0.070(5) 0.081(5) 0.005(5) 0.026(5) 0.001(4)
C48 0.066(4) 0.071(4) 0.070(4) 0.006(4) 0.017(4) 0.016(3)
C49 0.080(5) 0.066(5) 0.065(5) 0.003(5) 0.016(5) 0.017(5)
C50 0.078(5) 0.049(5) 0.057(5) -0.004(5) 0.006(5) 0.014(5)
N8 0.079(4) 0.064(3) 0.087(4) -0.007(4) -0.011(4) 0.019(3)
C51 0.081(6) 0.071(6) 0.086(6) 0.005(5) 0.003(6) 0.023(5)
C52 0.082(6) 0.083(6) 0.088(6) 0.007(6) 0.010(6) 0.018(6)
N9 0.118(5) 0.071(4) 0.089(4) -0.018(4) -0.005(4) -0.024(4)
O9 0.140(5) 0.092(4) 0.130(5) -0.006(4) -0.042(4) 0.000(4)
O10 0.112(4) 0.073(4) 0.093(4) -0.007(4) -0.007(4) -0.017(4)
O11 0.163(6) 0.118(5) 0.075(4) -0.016(4) 0.014(4) -0.046(5)
N10 0.108(5) 0.126(5) 0.128(5) 0.009(5) 0.014(5) 0.025(4)
O12 0.138(6) 0.178(6) 0.124(6) 0.001(5) -0.027(5) 0.023(5)
O13 0.105(4) 0.117(5) 0.099(5) 0.021(4) 0.019(4) 0.025(4)
O14 0.174(6) 0.126(5) 0.187(6) 0.029(5) 0.015(6) 0.026(5)
Cd1B 0.0503 0.061 0.0867 0.017 0.0057 0.0065
Cd1C 0.0503 0.061 0.0867 -0.017 -0.0057 0.0065
N6C 0.073 0.076 0.09 0.013 0.01 -0.001
N8B 0.064 0.079 0.087 -0.011 0.007 -0.019
C53 0.089(6) 0.094(6) 0.081(6) 0.000(6) -0.003(6) -0.025(6)
Cl1 0.080(3) 0.052(2) 0.104(4) 0.002(3) -0.003(3) -0.017(2)
Cl2 0.077(3) 0.074(3) 0.076(3) 0.008(2) 0.013(2) -0.026(2)
Cl3 0.109(4) 0.134(4) 0.095(4) 0.020(3) -0.001(3) -0.039(3)
C54 0.110(14) 0.126(14) 0.128(14) -0.013(12) -0.044(12) -0.001(12)
Cl4 0.246(9) 0.201(8) 0.233(9) -0.051(8) -0.109(8) 0.047(7)
Cl5 0.099(5) 0.117(6) 0.315(10) -0.022(7) 0.013(6) 0.030(5)
Cl6 0.055(3) 0.058(3) 0.138(5) -0.036(3) -0.004(3) -0.003(3)
Cl13 0.190(9) 0.062(4) 0.091(6) -0.038(4) 0.060(6) -0.062(5)
C55? 0.068(5) 0.080(5) 0.092(5) 0.001(5) -0.003(5) 0.001(5)
C56? 0.070(5) 0.079(6) 0.081(6) 0.003(5) -0.012(5) -0.008(5)
C57? 0.066(5) 0.081(5) 0.085(5) 0.006(5) -0.011(5) 0.006(5)
C58? 0.068(5) 0.094(5) 0.097(5) -0.002(5) -0.004(5) 0.001(5)
C59? 0.065(5) 0.059(5) 0.063(5) 0.006(5) 0.005(5) 0.014(5)
C60? 0.072(5) 0.056(5) 0.063(5) -0.005(5) 0.005(5) 0.011(5)
C61? 0.081(6) 0.068(5) 0.084(6) 0.001(5) -0.004(5) 0.019(5)
C62? 0.073(6) 0.074(6) 0.084(6) 0.001(5) 0.004(5) 0.012(5)
loop_
_geom_bond_atom_site_label_1
_geom_bond_atom_site_label_2
_geom_bond_site_symmetry_1
_geom_bond_site_symmetry_2
Cd1 N5 1_555 1_555
N1 C6 1_555 1_555
N2 C12 1_555 1_555
N3 C32 1_555 1_555
N4 C38 1_555 1_555
O1 C7 1_555 1_555
O2 C18 1_555 1_555
O3 C13 1_555 1_555
O4 C12 1_555 1_555
O5 C33 1_555 1_555
O6 C44 1_555 1_555
O7 C38 1_555 1_555
O8 C39 1_555 1_555
C1 C2 1_555 1_555
C2 H1 1_555 1_555
C3 C2 1_555 1_555
H2 C3 1_555 1_555
N5 C3 1_555 1_555
C4 N5 1_555 1_555
H3 C4 1_555 1_555
C5 C1 1_555 1_555
H4 C5 1_555 1_555
C6 C1 1_555 1_555
H5 C6 1_555 1_555
H6 C6 1_555 1_555
C7 N1 1_555 1_555
C8 C7 1_555 1_555
C9 C8 1_555 1_555
H7 C9 1_555 1_555
C10 C9 1_555 1_555
H8 C10 1_555 1_555
C11 C10 1_555 1_555
C12 C11 1_555 1_555
C13 N2 1_555 1_555
C14 C13 1_555 1_555
C15 C14 1_555 1_555
H9 C15 1_555 1_555
C16 C15 1_555 1_555
H10 C16 1_555 1_555
C17 C16 1_555 1_555
C18 N1 1_555 1_555
C19 C8 1_555 1_555
C20 C11 1_555 1_555
C21 N2 1_555 1_555
H11 C21 1_555 1_555
H12 C21 1_555 1_555
C22 C21 1_555 1_555
C23 C22 1_555 1_555
H13 C23 1_555 1_555
C24 C23 1_555 1_555
H14 C24 1_555 1_555
N6 C24 1_555 1_555
C25 N6 1_555 1_555
H15 C25 1_555 1_555
C26 C22 1_555 1_555
H16 C26 1_555 1_555
C27 C28 1_555 1_555
C28 H17 1_555 1_555
C29 C28 1_555 1_555
H18 C29 1_555 1_555
N7 Cd1 1_555 1_555
C30 N7 1_555 1_555
H19 C30 1_555 1_555
C31 C27 1_555 1_555
H20 C31 1_555 1_555
C32 C27 1_555 1_555
H21 C32 1_555 1_555
H22 C32 1_555 1_555
C33 N3 1_555 1_555
C34 C33 1_555 1_555
C35 C34 1_555 1_555
H23 C35 1_555 1_555
C36 C35 1_555 1_555
H24 C36 1_555 1_555
C37 C36 1_555 1_555
C38 C37 1_555 1_555
C39 N4 1_555 1_555
C40 C39 1_555 1_555
C41 C40 1_555 1_555
H25 C41 1_555 1_555
C42 C41 1_555 1_555
H26 C42 1_555 1_555
C43 C42 1_555 1_555
C44 N3 1_555 1_555
C45 C34 1_555 1_555
C46 C37 1_555 1_555
C47 N4 1_555 1_555
H27 C47 1_555 1_555
H28 C47 1_555 1_555
C48 C47 1_555 1_555
C49 C48 1_555 1_555
H29 C49 1_555 1_555
C50 C49 1_555 1_555
H30 C50 1_555 1_555
N8 C50 1_555 1_555
C51 N8 1_555 1_555
C52 C48 1_555 1_555
H31 C52 1_555 1_555
N9 O9 1_555 1_555
O10 N9 1_555 1_555
O11 Cd1 1_555 1_555
N10 O12 1_555 1_555
O12 Cd1 1_555 1_555
O13 N10 1_555 1_555
O14 Cd1 1_555 1_555
C53 H32 1_555 1_555
Cl1 C53 1_555 1_555
Cl2 C53 1_555 1_555
Cl3 C53 1_555 1_555
C54 H33 1_555 1_555
Cl4 C54 1_555 1_555
Cl5 C54 1_555 1_555
Cl6 C54 1_555 1_555
C63 H34 1_555 1_555
Cl7 C63 1_555 1_555
Cl8 C63 1_555 1_555
Cl9 C63 1_555 1_555
C65 H36 1_555 1_555
Cl13 C65 1_555 1_555
Cl14 C65 1_555 1_555
Cl15 C65 1_555 1_555
Cd1B N6 1_555 1_555
Cd1C N8 1_555 1_555
N6C Cd1 1_555 1_555
N8B Cd1 1_555 1_555
C4 C5 1_555 1_555
C14 C20 1_555 1_555
C17 C18 1_555 1_555
C17 C19 1_555 1_555
C19 C20 1_555 1_555
C25 C26 1_555 1_555
C29 N7 1_555 1_555
C30 C31 1_555 1_555
C40 C46 1_555 1_555
C43 C44 1_555 1_555
C43 C45 1_555 1_555
C45 C46 1_555 1_555
C51 C52 1_555 1_555
N9 O11 1_555 1_555
N10 O14 1_555 1_555

#END
