
#######################################################################
#
#                 Cambridge Crystallographic Data Centre
#                                CCDC 
#
#######################################################################
#
# If this CIF has been generated from an entry in the Cambridge 
# Structural Database, then it will include bibliographic, chemical, 
# crystal, experimental, refinement or atomic coordinate data resulting 
# from the CCDC's data processing and validation procedures.
#
#######################################################################

data_HANWAW
_chemical_name_common            UTSA-34
_chemical_formula_moiety         '(C76 H44 Cu6 O38)n,6n(C5 H11 N1 O1),5n(H2 O1)'
_chemical_name_systematic        
'catena-[bis(\m~12~-Dihydrogen 1,2,4,5-tetrakis(3,5-dicarboxylatophenyl)benzene)-hexa-aqua-hexa-copper(ii) diethylformamide solvate pentahydrate]'
_symmetry_cell_setting           orthorhombic
_symmetry_space_group_name_H-M   'P n m a'
_symmetry_Int_Tables_number      62
_space_group_name_Hall           '-P 2ac 2n'
loop_
_symmetry_equiv_pos_site_id
_symmetry_equiv_pos_as_xyz
1 x,y,z
2 1/2-x,-y,1/2+z
3 1/2+x,1/2-y,1/2-z
4 -x,1/2+y,-z
5 -x,-y,-z
6 1/2+x,y,1/2-z
7 1/2-x,1/2+y,1/2+z
8 x,1/2-y,z
_cell_length_a                   20.0157(12)
_cell_length_b                   26.8932(17)
_cell_length_c                   26.9890(18)
_cell_angle_alpha                90
_cell_angle_beta                 90
_cell_angle_gamma                90
_cell_volume                     14527.8
_exptl_crystal_colour            blue
_exptl_crystal_description       block
_cell_formula_units_Z            4
loop_
_atom_site_label
_atom_site_type_symbol
_atom_site_fract_x
_atom_site_fract_y
_atom_site_fract_z
Cu1 Cu 0.94621(12) 0.7500 0.76724(10)
Cu2 Cu 1.03128(10) 0.7500 0.69135(9)
Cu3 Cu 0.55324(12) 0.2500 0.73264(11)
Cu4 Cu 0.46699(12) 0.2500 0.80634(12)
Cu5 Cu 1.04399(4) 0.53676(3) 0.50014(8)
O1 O 0.5985(4) 0.3035(3) 0.7705(3)
O2 O 0.5244(4) 0.3019(4) 0.8356(3)
O3 O 0.9928(4) 0.3008(4) 0.7932(4)
O4 O 0.9185(4) 0.3026(3) 0.7304(4)
O5 O 0.6176(6) 0.2500 0.6686(7)
O6 O 0.4076(9) 0.2500 0.8748(6)
O7 O 0.9731(4) 0.6992(3) 0.6676(3)
O8 O 0.8986(4) 0.6978(3) 0.7306(3)
O9 O 0.5770(4) 0.6998(3) 0.7705(4)
O10 O 0.5076(4) 0.7013(3) 0.7063(3)
O11 O 1.0978(7) 0.7500 0.6289(8)
O12 O 0.8794(7) 0.7500 0.8271(4)
O13 O 0.9840(4) 0.5658(3) 0.5506(3)
O14 O 0.5126(3) 0.4372(3) 0.9489(3)
O15 O 1.1159(3) 0.5968(3) 0.4981(6)
O16 O 0.5872(4) 0.4969(3) 0.9482(3)
O17 O 0.6659(5) 0.5719(5) 0.5462(5)
H1 H 0.6718 0.5773 0.5158
O18 O 0.6025(5) 0.6457(4) 0.5471(4)
O19 O 0.8156(6) 0.4095(5) 0.9544(6)
O20 O 0.9229(6) 0.3768(5) 0.9516(6)
H2 H 0.9129 0.3712 0.9813
C1 C 0.5703(7) 0.3216(5) 0.8124(6)
C2 C 0.9226(5) 0.6805(4) 0.6930(5)
C3 C 0.8958(6) 0.6347(5) 0.6717(6)
C4 C 0.9414(6) 0.5372(5) 0.5680(5)
C5 C 0.5681(5) 0.4549(4) 0.9336(4)
C6 C 0.9407(7) 0.3152(5) 0.7743(6)
C7 C 0.8961(5) 0.3549(4) 0.7985(5)
C8 C 0.8987(8) 0.3516(7) 0.8524(6)
H3 H 0.9219 0.3255 0.8687
C9 C 0.8657(11) 0.3883(7) 0.8786(6)
C10 C 0.8168(8) 0.4186(6) 0.8514(6)
H4 H 0.7858 0.4387 0.8690
C11 C 0.8161(6) 0.4178(4) 0.7997(5)
C12 C 0.8561(5) 0.3849(4) 0.7747(5)
H5 H 0.8546 0.3839 0.7396
C13 C 0.7808(5) 0.4599(4) 0.7730(5)
C14 C 0.7131(5) 0.4707(4) 0.7839(4)
C15 C 0.6877(6) 0.5115(6) 0.7634(5)
H6 H 0.6455 0.5223 0.7755
C16 C 0.7178(6) 0.5415(5) 0.7243(5)
C17 C 0.7833(6) 0.5272(5) 0.7143(6)
C18 C 0.8165(5) 0.4871(4) 0.7401(5)
H7 H 0.8623 0.4799 0.7340
C19 C 0.8339(6) 0.5558(5) 0.6827(6)
C20 C 0.8536(5) 0.6076(5) 0.6972(5)
H8 H 0.8347 0.6214 0.7264
C21 C 0.9199(6) 0.6078(4) 0.6263(5)
H9 H 0.9517 0.6250 0.6065
C22 C 0.8558(7) 0.5334(7) 0.6362(5)
H10 H 0.8405 0.5020 0.6247
C23 C 0.5604(7) 0.6859(5) 0.7287(6)
C24 C 0.6799(5) 0.5791(5) 0.6994(6)
C25 C 0.6414(6) 0.6160(5) 0.7247(6)
H11 H 0.6447 0.6170 0.7598
C26 C 0.5977(6) 0.6522(5) 0.7012(6)
C27 C 0.6785(6) 0.5788(5) 0.6482(6)
H12 H 0.7035 0.5551 0.6298
C28 C 0.5943(7) 0.6456(6) 0.6485(7)
H13 H 0.5616 0.6627 0.6295
C29 C 0.6404(9) 0.6135(7) 0.6252(6)
C30 C 0.6363(9) 0.6088(8) 0.5656(6)
C31 C 0.8691(8) 0.3904(6) 0.9271(6)
C32 C 0.9023(6) 0.5632(5) 0.6104(5)
O21 O 0.9141(4) 0.5042(4) 0.5525(3)
C33 C 0.6035(5) 0.3686(4) 0.8289(5)
C34 C 0.5740(5) 0.3845(4) 0.8714(4)
H14 H 0.5426 0.3652 0.8893
C35 C 0.5950(5) 0.4338(4) 0.8868(5)
C36 C 0.6749(4) 0.4393(4) 0.8201(4)
C37 C 0.6447(4) 0.4609(3) 0.8585(4)
H15 H 0.6557 0.4940 0.8674
C38 C 0.6580(5) 0.3947(5) 0.8043(5)
H16 H 0.6808 0.3799 0.7772
Cu1B Cu 0.44621(12) 0.7500 0.73276(10)
Cu1B_2 Cu 1.44621(12) 0.7500 0.73276(10)
Cu2B Cu 0.53128(10) 0.7500 0.80865(9)
Cu2B_2 Cu 1.53128(10) 0.7500 0.80865(9)
Cu3B Cu 1.05324(12) 0.2500 0.76736(11)
Cu3B_2 Cu 1.05324(12) 1.2500 0.76736(11)
Cu3_2 Cu 1.55324(12) 1.2500 0.73264(11)
Cu4B Cu 0.96699(12) 0.2500 0.69366(12)
Cu4B_2 Cu 0.96699(12) 1.2500 0.69366(12)
Cu4_2 Cu 1.46699(12) 1.2500 0.80634(12)
Cu5B Cu 1.54399(4) 0.96324(3) 0.99986(8)
Cu5A Cu 0.45601(4) 0.46324(3) 1.00014(8)
Cu5E Cu 0.54399(4) 0.53676(3) 0.99986(8)
Cu5D Cu 0.95601(4) 0.46324(3) 0.49986(8)
Cu5C Cu 0.95601(4) 1.03676(3) 0.49986(8)
Cu5G Cu 1.04399(4) 0.96324(3) 0.50014(8)
Cu5F Cu 1.45601(4) 1.03676(3) 1.00014(8)
O1B O 1.0985(4) 1.1965(3) 0.7295(3)
O1G O 0.5985(4) 0.1965(3) 0.7705(3)
O2B O 1.0244(4) 1.1981(4) 0.6644(3)
O2G O 0.5244(4) 0.1981(4) 0.8356(3)
O3B O 1.4928(4) 1.1992(4) 0.7068(4)
O3B_2 O 0.4928(4) 0.1992(4) 0.7068(4)
O3E O 0.4928(4) 0.3008(4) 0.7068(4)
O4B O 1.4185(4) 1.1974(3) 0.7696(4)
O4B_2 O 0.4185(4) 0.1974(3) 0.7696(4)
O4E O 0.4185(4) 0.3026(3) 0.7696(4)
O7B O 1.4731(4) 0.8008(3) 0.8324(3)
O7G O 0.9731(4) 0.8008(3) 0.6676(3)
O8B O 1.3986(4) 0.8022(3) 0.7694(3)
O8G O 0.8986(4) 0.8022(3) 0.7306(3)
O9B O 1.0770(4) 0.8002(3) 0.7295(4)
O9E O 1.0770(4) 0.6998(3) 0.7295(4)
O10B O 1.0076(4) 0.7987(3) 0.7937(3)
O10E O 1.0076(4) 0.7013(3) 0.7937(3)
O13B O 1.4840(4) 0.9342(3) 0.9494(3)
O14B O 1.0126(3) 1.0628(3) 0.5511(3)
O14A O 0.9874(3) 0.5628(3) 0.4489(3)
O14C O 1.4874(3) 0.9372(3) 1.0511(3)
O15B O 1.6159(3) 0.9032(3) 1.0019(6)
O16B O 1.0872(4) 1.0031(3) 0.5518(3)
O16E O 1.0872(4) 0.4969(3) 0.5518(3)
O16G O 1.5872(4) 1.0031(3) 0.9482(3)
O17B O 1.1659(5) 0.9281(5) 0.9538(5)
H1B H 1.1718 0.9227 0.9842
O18B O 1.1025(5) 0.8543(4) 0.9529(4)
O19B O 1.3156(6) 1.0905(5) 0.5456(6)
O20B O 1.4229(6) 1.1232(5) 0.5484(6)
H2B H 1.4129 1.1288 0.5187
C1B C 1.0703(7) 1.1784(5) 0.6876(6)
C2B C 1.4226(5) 0.8195(4) 0.8070(5)
C3B C 1.3958(6) 0.8653(5) 0.8283(6)
C4B C 1.4414(6) 0.9628(5) 0.9320(5)
C5B C 1.0681(5) 1.0451(4) 0.5664(4)
C6B C 1.4407(7) 1.1848(5) 0.7257(6)
C7B C 1.3961(5) 1.1451(4) 0.7015(5)
C8B C 1.3987(8) 1.1484(7) 0.6476(6)
H3B H 1.4219 1.1745 0.6313
C9B C 1.3657(11) 1.1117(7) 0.6214(6)
C10B C 1.3168(8) 1.0814(6) 0.6486(6)
H4B H 1.2858 1.0613 0.6310
C11B C 1.3161(6) 1.0822(4) 0.7003(5)
C12B C 1.3561(5) 1.1151(4) 0.7253(5)
H5B H 1.3546 1.1161 0.7604
C13B C 1.2808(5) 1.0401(4) 0.7270(5)
C14B C 1.2131(5) 1.0293(4) 0.7161(4)
C15B C 1.1877(6) 0.9885(6) 0.7366(5)
H6B H 1.1455 0.9777 0.7245
C16B C 1.2178(6) 0.9585(5) 0.7757(5)
C17B C 1.2833(6) 0.9728(5) 0.7857(6)
C18B C 1.3165(5) 1.0129(4) 0.7599(5)
H7B H 1.3623 1.0201 0.7660
C19B C 1.3339(6) 0.9442(5) 0.8173(6)
C20B C 1.3536(5) 0.8924(5) 0.8028(5)
H8B H 1.3347 0.8786 0.7736
C21B C 1.4199(6) 0.8922(4) 0.8737(5)
H9B H 1.4517 0.8750 0.8935
C22B C 1.3558(7) 0.9666(7) 0.8638(5)
H10B H 1.3405 0.9980 0.8753
C23B C 1.0604(7) 0.8141(5) 0.7713(6)
C24B C 1.1799(5) 0.9209(5) 0.8006(6)
C25B C 1.1414(6) 0.8840(5) 0.7753(6)
H11B H 1.1447 0.8830 0.7402
C26B C 1.0977(6) 0.8478(5) 0.7988(6)
C27B C 1.1785(6) 0.9212(5) 0.8518(6)
H12B H 1.2035 0.9449 0.8702
C28B C 1.0943(7) 0.8544(6) 0.8515(7)
H13B H 1.0616 0.8373 0.8705
C29B C 1.1404(9) 0.8865(7) 0.8748(6)
C30B C 1.1363(9) 0.8912(8) 0.9344(6)
C31B C 1.3691(8) 1.1096(6) 0.5729(6)
C32B C 1.4023(6) 0.9368(5) 0.8896(5)
O21B O 1.4141(4) 0.9958(4) 0.9475(3)
O21D O 1.0859(4) 0.4958(4) 0.4475(3)
O21F O 1.5859(4) 1.0042(4) 1.0525(3)
C33B C 1.1035(5) 1.1314(4) 0.6711(5)
C34B C 1.0740(5) 1.1155(4) 0.6286(4)
H14B H 1.0426 1.1348 0.6107
C35B C 1.0950(5) 1.0662(4) 0.6132(5)
C36B C 1.1749(4) 1.0607(4) 0.6799(4)
C37B C 1.1447(4) 1.0391(3) 0.6415(4)
H15B H 1.1557 1.0060 0.6326
C38B C 1.1580(5) 1.1053(5) 0.6957(5)
H16B H 1.1808 1.1201 0.7228
loop_
_geom_bond_atom_site_label_1
_geom_bond_atom_site_label_2
_geom_bond_site_symmetry_1
_geom_bond_site_symmetry_2
Cu1 O8 1_555 1_555
Cu2 O7 1_555 1_555
Cu3 O1 1_555 1_555
Cu4 O2 1_555 1_555
Cu5 O13 1_555 1_555
O1 C1 1_555 1_555
O2 C1 1_555 1_555
O3 C6 1_555 1_555
O4 C6 1_555 1_555
O5 Cu3 1_555 1_555
O6 Cu4 1_555 1_555
O7 C2 1_555 1_555
O8 C2 1_555 1_555
O9 C23 1_555 1_555
O10 C23 1_555 1_555
O11 Cu2 1_555 1_555
O12 Cu1 1_555 1_555
O13 C4 1_555 1_555
O14 C5 1_555 1_555
O15 Cu5 1_555 1_555
O16 C5 1_555 1_555
O17 H1 1_555 1_555
O18 C30 1_555 1_555
O19 C31 1_555 1_555
O20 H2 1_555 1_555
C1 C33 1_555 1_555
C2 C3 1_555 1_555
C3 C20 1_555 1_555
C4 C32 1_555 1_555
C5 C35 1_555 1_555
C6 C7 1_555 1_555
C7 C8 1_555 1_555
C8 H3 1_555 1_555
C9 C8 1_555 1_555
C10 C9 1_555 1_555
H4 C10 1_555 1_555
C11 C10 1_555 1_555
C12 C7 1_555 1_555
H5 C12 1_555 1_555
C13 C11 1_555 1_555
C14 C13 1_555 1_555
C15 C14 1_555 1_555
H6 C15 1_555 1_555
C16 C15 1_555 1_555
C17 C16 1_555 1_555
C18 C13 1_555 1_555
H7 C18 1_555 1_555
C19 C17 1_555 1_555
C20 C19 1_555 1_555
H8 C20 1_555 1_555
C21 C3 1_555 1_555
H9 C21 1_555 1_555
C22 C19 1_555 1_555
H10 C22 1_555 1_555
C23 C26 1_555 1_555
C24 C16 1_555 1_555
C25 C24 1_555 1_555
H11 C25 1_555 1_555
C26 C25 1_555 1_555
C27 C24 1_555 1_555
H12 C27 1_555 1_555
C28 C26 1_555 1_555
H13 C28 1_555 1_555
C29 C27 1_555 1_555
C30 O17 1_555 1_555
C31 O20 1_555 1_555
C32 C21 1_555 1_555
O21 C4 1_555 1_555
C33 C34 1_555 1_555
C34 H14 1_555 1_555
C35 C34 1_555 1_555
C36 C14 1_555 1_555
C37 C35 1_555 1_555
H15 C37 1_555 1_555
C38 C33 1_555 1_555
H16 C38 1_555 1_555
Cu1B O10 1_555 1_555
Cu1B_2 O8B 1_555 1_555
Cu2B O9 1_555 1_555
Cu2B_2 O7B 1_555 1_555
Cu3B O3 1_555 1_555
Cu3B_2 O1B 1_555 1_555
Cu3_2 O3B 1_555 1_555
Cu4B O4 1_555 1_555
Cu4B_2 O2B 1_555 1_555
Cu4_2 O4B 1_555 1_555
Cu5B O13B 1_555 1_555
Cu5A O14 1_555 1_555
Cu5E O16 1_555 1_555
Cu5D O21 1_555 1_555
Cu5C O14B 1_555 1_555
Cu5G O16B 1_555 1_555
Cu5F O21B 1_555 1_555
O1B C1B 1_555 1_555
O1G Cu3 1_555 1_555
O2B C1B 1_555 1_555
O2G Cu4 1_555 1_555
O3B C6B 1_555 1_555
O3B_2 Cu3 1_555 1_555
O3E Cu3 1_555 1_555
O4B C6B 1_555 1_555
O4B_2 Cu4 1_555 1_555
O4E Cu4 1_555 1_555
O7B C2B 1_555 1_555
O7G Cu2 1_555 1_555
O8B C2B 1_555 1_555
O8G Cu1 1_555 1_555
O9B Cu2 1_555 1_555
O9E Cu2 1_555 1_555
O10B Cu1 1_555 1_555
O10E Cu1 1_555 1_555
O13B C4B 1_555 1_555
O14B C5B 1_555 1_555
O14A Cu5 1_555 1_555
O14C Cu5B 1_555 1_555
O15B Cu5B 1_555 1_555
O16B C5B 1_555 1_555
O16E Cu5 1_555 1_555
O16G Cu5B 1_555 1_555
O17B H1B 1_555 1_555
O18B C30B 1_555 1_555
O19B C31B 1_555 1_555
O20B H2B 1_555 1_555
C1B C33B 1_555 1_555
C2B C3B 1_555 1_555
C3B C20B 1_555 1_555
C4B C32B 1_555 1_555
C5B C35B 1_555 1_555
C6B C7B 1_555 1_555
C7B C8B 1_555 1_555
C8B H3B 1_555 1_555
C9B C8B 1_555 1_555
C10B C9B 1_555 1_555
H4B C10B 1_555 1_555
C11B C10B 1_555 1_555
C12B C7B 1_555 1_555
H5B C12B 1_555 1_555
C13B C11B 1_555 1_555
C14B C13B 1_555 1_555
C15B C14B 1_555 1_555
H6B C15B 1_555 1_555
C16B C15B 1_555 1_555
C17B C16B 1_555 1_555
C18B C13B 1_555 1_555
H7B C18B 1_555 1_555
C19B C17B 1_555 1_555
C20B C19B 1_555 1_555
H8B C20B 1_555 1_555
C21B C3B 1_555 1_555
H9B C21B 1_555 1_555
C22B C19B 1_555 1_555
H10B C22B 1_555 1_555
C23B O9B 1_555 1_555
C24B C16B 1_555 1_555
C25B C24B 1_555 1_555
H11B C25B 1_555 1_555
C26B C23B 1_555 1_555
C27B C24B 1_555 1_555
H12B C27B 1_555 1_555
C28B C26B 1_555 1_555
H13B C28B 1_555 1_555
C29B C27B 1_555 1_555
C30B O17B 1_555 1_555
C31B O20B 1_555 1_555
C32B C21B 1_555 1_555
O21B C4B 1_555 1_555
O21D Cu5 1_555 1_555
O21F Cu5B 1_555 1_555
C33B C34B 1_555 1_555
C34B H14B 1_555 1_555
C35B C34B 1_555 1_555
C36B C14B 1_555 1_555
C37B C35B 1_555 1_555
H15B C37B 1_555 1_555
C38B C33B 1_555 1_555
H16B C38B 1_555 1_555
C9 C31 1_555 1_555
C11 C12 1_555 1_555
C17 C18 1_555 1_555
C22 C32 1_555 1_555
C28 C29 1_555 1_555
C29 C30 1_555 1_555
C36 C37 1_555 1_555
C36 C38 1_555 1_555
O10B C23B 1_555 1_555
C9B C31B 1_555 1_555
C11B C12B 1_555 1_555
C17B C18B 1_555 1_555
C22B C32B 1_555 1_555
C25B C26B 1_555 1_555
C28B C29B 1_555 1_555
C29B C30B 1_555 1_555
C36B C37B 1_555 1_555
C36B C38B 1_555 1_555

#END
