
#######################################################################
#
#                 Cambridge Crystallographic Data Centre
#                                CCDC 
#
#######################################################################
#
# If this CIF has been generated from an entry in the Cambridge 
# Structural Database, then it will include bibliographic, chemical, 
# crystal, experimental, refinement or atomic coordinate data resulting 
# from the CCDC's data processing and validation procedures.
#
#######################################################################

data_OHEQUP02
_chemical_formula_moiety         '(C34 H20 Co2 N2 O8)n'
_chemical_name_systematic        
"catena-(bis(\m~4~-Naphthalene-2,6-dicarboxylato)-(\m~2~-4,4'-bipyridine)-di-cobalt unknown solvate)"
_symmetry_cell_setting           triclinic
_symmetry_space_group_name_H-M   'P -1'
_symmetry_Int_Tables_number      2
_space_group_name_Hall           '-P 1'
loop_
_symmetry_equiv_pos_site_id
_symmetry_equiv_pos_as_xyz
1 x,y,z
2 -x,-y,-z
_cell_length_a                   12.9698(12)
_cell_length_b                   13.1304(12)
_cell_length_c                   13.7579(13)
_cell_angle_alpha                85.0410(10)
_cell_angle_beta                 68.0140(10)
_cell_angle_gamma                83.544(2)
_cell_volume                     2156.28
_exptl_crystal_colour            pink
_exptl_crystal_description       block
_cell_formula_units_Z            2
loop_
_atom_site_label
_atom_site_type_symbol
_atom_site_fract_x
_atom_site_fract_y
_atom_site_fract_z
Co1 Co 0.79124(2) 0.681164(17) 0.832724(17)
O1 O 0.96618(12) 0.67064(11) 0.76889(11)
C1 C 1.04521(16) 0.66768(14) 0.68022(14)
Co2 Co 0.86896(2) 0.673244(16) 0.616806(17)
O2 O 1.03324(11) 0.66116(10) 0.59427(10)
C2 C 1.16130(16) 0.67228(15) 0.67826(15)
O3 O 1.62630(12) 0.69311(12) 0.85660(12)
C3 C 1.25462(19) 0.6586(2) 0.58404(17)
H1 H 1.2440 0.6475 0.5212
O4 O 1.69543(12) 0.68796(11) 0.68150(12)
C4 C 1.3601(2) 0.6612(3) 0.58283(18)
H2 H 1.4222 0.6510 0.5192
O5 O 0.79826(13) 0.83328(10) 0.80080(10)
C5 C 1.37795(17) 0.67872(18) 0.67509(15)
O6 O 0.86108(12) 0.82715(9) 0.62546(10)
C6 C 1.28365(16) 0.69352(15) 0.76982(14)
O7 O 0.80129(13) 1.52685(10) 0.82530(10)
C7 C 1.17570(16) 0.68938(15) 0.76875(14)
H3 H 1.1124 0.6986 0.8317
O8 O 0.85834(12) 1.52110(9) 0.65054(10)
C8 C 1.30065(18) 0.71121(18) 0.86192(16)
H4 H 1.2380 0.7235 0.9248
C9 C 1.40621(18) 0.71094(17) 0.86239(16)
H5 H 1.4164 0.7213 0.9256
C10 C 1.50019(16) 0.69513(15) 0.76845(15)
C11 C 1.48579(17) 0.68025(18) 0.67781(16)
H6 H 1.5494 0.6707 0.6151
C12 C 1.61538(17) 0.69215(14) 0.76911(16)
C13 C 0.83004(16) 0.87448(13) 0.70927(14)
C14 C 0.83284(16) 0.98906(13) 0.69836(14)
C15 C 0.86412(18) 1.03918(14) 0.59803(14)
H7 H 0.8820 1.0003 0.5378
C16 C 0.86893(19) 1.14289(14) 0.58664(14)
H8 H 0.8901 1.1756 0.5185
C17 C 0.84268(16) 1.20243(13) 0.67518(13)
C18 C 0.8105(2) 1.15221(14) 0.77612(15)
C19 C 0.8055(2) 1.04402(15) 0.78539(16)
H9 H 0.7829 1.0098 0.8528
C20 C 0.7841(3) 1.21135(17) 0.86515(18)
H10 H 0.7627 1.1786 0.9333
C21 C 0.7892(2) 1.31598(15) 0.85329(16)
H11 H 0.7697 1.3550 0.9136
C22 C 0.8232(2) 1.36602(15) 0.75294(15)
C23 C 0.84761(15) 1.31030(13) 0.66586(14)
H12 H 0.8681 1.3445 0.5985
C24 C 0.82809(17) 1.47972(13) 0.74182(14)
C25 C 0.8694(3) 0.7678(3) 0.3075(3)
H13 H 0.8721 0.8309 0.2676
C26 C 0.8782(3) 0.7633(3) 0.4054(3)
H14 H 0.8870 0.8246 0.4322
C27 C 0.8074(4) 0.5926(4) 0.0351(4)
H15 H 0.8074 0.5296 0.0059
C28 C 0.8208(5) 0.5887(3) 0.1296(3)
H16 H 0.8297 0.5246 0.1645
C29 C 0.8530(4) 0.5888(4) 0.3275(3)
H17 H 0.8441 0.5270 0.3014
C30 C 0.8622(3) 0.5882(3) 0.4256(4)
H18 H 0.8595 0.5249 0.4652
C31 C 0.7949(4) 0.7684(4) 0.0259(5)
H19 H 0.7859 0.8318 -0.0102
C32 C 0.8081(4) 0.7700(5) 0.1208(5)
H20 H 0.8079 0.8337 0.1487
C33 C 0.8212(3) 0.6810(7) 0.1743(8)
C34 C 0.8567(3) 0.6779(6) 0.2701(5)
N1 N 0.8745(2) 0.6719(3) 0.4657(5)
N2 N 0.7944(2) 0.6798(3) -0.0180(3)
Co1_2 Co 0.79124(2) 0.681164(17) -0.167276(17)
Co1_3 Co 0.79124(2) 1.681164(17) 0.832724(17)
Co1_4 Co 1.79124(2) 0.681164(17) 0.832724(17)
Co2_2 Co 0.86896(2) 1.673244(16) 0.616806(17)
Co2_3 Co 1.86896(2) 0.673244(16) 0.616806(17)
O3_2 O 0.62630(12) 0.69311(12) 0.85660(12)
O4_2 O 0.69543(12) 0.68796(11) 0.68150(12)
O7_2 O 0.80129(13) 0.52685(10) 0.82530(10)
O8_2 O 0.85834(12) 0.52110(9) 0.65054(10)
N2_2 N 0.7944(2) 0.6798(3) 0.9820(3)
N3? N 0.8591(5) 0.6858(9) 0.4670(11)
C35? C 0.8420(6) 0.6827(9) 0.2699(9)
C36? C 0.8429(5) 0.6821(9) 0.1661(9)
C37? C 0.9032(5) 0.6012(7) 0.4054(7)
H21? H 0.9397 0.5432 0.4292
C38? C 0.8924(6) 0.6033(6) 0.3064(6)
H22? H 0.9226 0.5455 0.2644
C39? C 0.8114(9) 0.7612(7) 0.4348(7)
H23? H 0.7819 0.8182 0.4781
C40? C 0.7997(10) 0.7655(7) 0.3389(8)
H24? H 0.7625 0.8250 0.3183
C41? C 0.7688(6) 0.7580(7) 0.0364(9)
H25? H 0.7291 0.8138 0.0132
C42? C 0.7833(6) 0.7655(8) 0.1299(9)
H26? H 0.7541 0.8249 0.1696
C43? C 0.8626(5) 0.5993(5) 0.0092(5)
H27? H 0.8901 0.5416 -0.0333
C44? C 0.8825(5) 0.5979(5) 0.1021(5)
H28? H 0.9227 0.5402 0.1219
N4? N 0.8070(8) 0.6777(12) -0.0227(13)
C45? C 0.7646(6) 0.7551(6) 0.3554(6)
H29? H 0.7203 0.8103 0.3370
C46? C 0.7796(7) 0.7508(6) 0.4497(7)
H30? H 0.7440 0.8051 0.4953
C47? C 0.8673(6) 0.7533(10) -0.0061(11)
H31? H 0.8994 0.8047 -0.0584
C48? C 0.8751(10) 0.7554(11) 0.0933(12)
H32? H 0.9114 0.8067 0.1097
C49? C 0.8884(14) 0.6022(17) 0.418(2)
H33? H 0.9312 0.5499 0.4426
C50? C 0.7678(11) 0.6036(14) 0.0503(15)
H34? H 0.7314 0.5522 0.0343
C51? C 0.7755(9) 0.6054(9) 0.1515(11)
H35? H 0.7432 0.5536 0.2033
C52? C 0.8862(10) 0.5893(12) 0.3217(12)
H36? H 0.9242 0.5325 0.2806
N5? N 0.8191(10) 0.6853(12) -0.0275(13)
C53? C 0.8209(14) 0.6693(19) 0.174(3)
C54? C 0.8173(8) 0.6742(7) 0.2867(8)
N6? N 0.8403(8) 0.6761(9) 0.4823(9)
loop_
_geom_bond_atom_site_label_1
_geom_bond_atom_site_label_2
_geom_bond_site_symmetry_1
_geom_bond_site_symmetry_2
Co1 O1 1_555 1_555
O1 C1 1_555 1_555
C1 O2 1_555 1_555
Co2 Co1 1_555 1_555
O2 Co2 1_555 1_555
C2 C1 1_555 1_555
O3 C12 1_555 1_555
C3 C2 1_555 1_555
H1 C3 1_555 1_555
O4 C12 1_555 1_555
C4 C3 1_555 1_555
H2 C4 1_555 1_555
O5 Co1 1_555 1_555
C5 C4 1_555 1_555
O6 Co2 1_555 1_555
C6 C5 1_555 1_555
O7 C24 1_555 1_555
C7 C2 1_555 1_555
H3 C7 1_555 1_555
O8 C24 1_555 1_555
C8 C6 1_555 1_555
H4 C8 1_555 1_555
C9 C8 1_555 1_555
H5 C9 1_555 1_555
C10 C9 1_555 1_555
C11 C5 1_555 1_555
H6 C11 1_555 1_555
C12 C10 1_555 1_555
C13 O5 1_555 1_555
C14 C13 1_555 1_555
C15 C14 1_555 1_555
H7 C15 1_555 1_555
C16 C15 1_555 1_555
H8 C16 1_555 1_555
C17 C16 1_555 1_555
C18 C17 1_555 1_555
C19 C14 1_555 1_555
H9 C19 1_555 1_555
C20 C18 1_555 1_555
H10 C20 1_555 1_555
C21 C20 1_555 1_555
H11 C21 1_555 1_555
C22 C21 1_555 1_555
C23 C17 1_555 1_555
H12 C23 1_555 1_555
C24 C22 1_555 1_555
C25 H13 1_555 1_555
C26 C25 1_555 1_555
H14 C26 1_555 1_555
C27 H15 1_555 1_555
C28 C27 1_555 1_555
H16 C28 1_555 1_555
C29 H17 1_555 1_555
C30 C29 1_555 1_555
H18 C30 1_555 1_555
C31 H19 1_555 1_555
C32 C31 1_555 1_555
H20 C32 1_555 1_555
C33 C28 1_555 1_555
C34 C25 1_555 1_555
N1 Co2 1_555 1_555
N2 C27 1_555 1_555
Co1_2 N2 1_555 1_555
Co1_3 O7 1_555 1_555
Co1_4 O3 1_555 1_555
Co2_2 O8 1_555 1_555
Co2_3 O4 1_555 1_555
O3_2 Co1 1_555 1_555
O4_2 Co2 1_555 1_555
O7_2 Co1 1_555 1_555
O8_2 Co2 1_555 1_555
N2_2 Co1 1_555 1_555
O6 C13 1_555 1_555
C6 C7 1_555 1_555
C10 C11 1_555 1_555
C18 C19 1_555 1_555
C22 C23 1_555 1_555
C26 N1 1_555 1_555
C29 C34 1_555 1_555
C30 N1 1_555 1_555
C31 N2 1_555 1_555
C32 C33 1_555 1_555
C33 C34 1_555 1_555
Co1_3 Co2_2 1_555 1_555
Co1_4 Co2_3 1_555 1_555

#END
