
#######################################################################
#
#                 Cambridge Crystallographic Data Centre
#                                CCDC 
#
#######################################################################
#
# If this CIF has been generated from an entry in the Cambridge 
# Structural Database, then it will include bibliographic, chemical, 
# crystal, experimental, refinement or atomic coordinate data resulting 
# from the CCDC's data processing and validation procedures.
#
#######################################################################

data_OHEQUP01
_chemical_formula_moiety         '(C34 H20 Co2 N2 O8)n'
_chemical_name_systematic        
"catena-(bis(\m~4~-Naphthalene-2,6-dicarboxylato)-(\m~2~-4,4'-bipyridine)-di-cobalt unknown solvate)"
_symmetry_cell_setting           triclinic
_symmetry_space_group_name_H-M   'P -1'
_symmetry_Int_Tables_number      2
_space_group_name_Hall           '-P 1'
loop_
_symmetry_equiv_pos_site_id
_symmetry_equiv_pos_as_xyz
1 x,y,z
2 -x,-y,-z
_cell_length_a                   7.7116(7)
_cell_length_b                   10.2889(10)
_cell_length_c                   11.0085(10)
_cell_angle_alpha                71.4300(10)
_cell_angle_beta                 86.2820(10)
_cell_angle_gamma                82.2650(10)
_cell_volume                     820.222
_exptl_crystal_colour            pink
_exptl_crystal_description       block
_cell_formula_units_Z            1
loop_
_atom_site_label
_atom_site_type_symbol
_atom_site_fract_x
_atom_site_fract_y
_atom_site_fract_z
Co1 Co 0.64464(5) 0.54651(4) 0.54260(4)
O1 O 0.2322(3) 0.4990(2) 0.6077(2)
O2 O 0.4550(3) 0.5803(2) 0.6698(2)
O3 O 0.2499(3) 0.6221(2) 0.3128(2)
N1 N 0.7683(18) 0.716(2) 0.5281(9)
O4 O 0.4682(4) 0.6824(3) 0.3964(2)
C1 C 0.3055(4) 0.5400(3) 0.6858(3)
C2 C 0.2099(4) 0.5364(3) 0.8099(3)
C3 C 0.3642(5) 0.7012(3) 0.3077(3)
C4 C 0.3827(5) 0.8191(4) 0.1876(3)
C5 C 0.5368(5) 0.8753(4) 0.1629(3)
H1 H 0.6235 0.8455 0.2240
C6 C 0.5663(5) 0.9780(4) 0.0458(4)
C7 C -0.0436(4) 0.4865(4) 0.9512(3)
C8 C 0.0449(4) 0.4975(4) 0.8321(3)
H2 H -0.0098 0.4781 0.7681
C9 C 0.2939(5) 0.5644(4) 0.9064(3)
H3 H 0.4057 0.5914 0.8908
C10 C 0.2134(5) 0.5524(5) 1.0229(3)
H4 H 0.2718 0.5703 1.0862
C11 C 0.2505(6) 0.8627(4) 0.0970(4)
H5 H 0.1467 0.8226 0.1144
C12 C 0.2727(5) 0.9640(5) -0.0172(4)
H6 H 0.1828 0.9946 -0.0757
C13 C 0.9504(5) 0.9433(5) 0.5039(4)
C14 C 0.6878(11) 0.8297(9) 0.5595(10)
H7 H 0.5720 0.8296 0.5889
C15 C 0.7715(11) 0.9439(10) 0.5493(9)
H8 H 0.7134 1.0188 0.5713
C16 C 1.0208(16) 0.8326(15) 0.4753(9)
H9 H 1.1364 0.8288 0.4456
C17 C 0.9311(19) 0.7227(15) 0.4874(10)
H10 H 0.9897 0.6480 0.4653
O1A O -0.2322(3) 0.5010(2) 1.3923(2)
O2A O -0.4550(3) 0.4197(2) 1.3302(2)
C1A C -0.3055(4) 0.4600(3) 1.3142(3)
C2A C -0.2099(4) 0.4636(3) 1.1901(3)
C7A C 0.0436(4) 0.5135(4) 1.0488(3)
C8A C -0.0449(4) 0.5025(4) 1.1679(3)
H2A H 0.0098 0.5219 1.2319
C9A C -0.2939(5) 0.4356(4) 1.0936(3)
H3A H -0.4057 0.4086 1.1092
C10A C -0.2134(5) 0.4476(5) 0.9771(3)
H4A H -0.2718 0.4297 0.9138
O3A O 0.7501(3) 1.3779(2) -0.3128(2)
O4A O 0.5318(4) 1.3176(3) -0.3964(2)
C3A C 0.6358(5) 1.2988(3) -0.3077(3)
C4A C 0.6173(5) 1.1809(4) -0.1876(3)
C5A C 0.4632(5) 1.1247(4) -0.1629(3)
H1A H 0.3765 1.1545 -0.2240
C6A C 0.4337(5) 1.0220(4) -0.0458(4)
C11A C 0.7495(6) 1.1373(4) -0.0970(4)
H5A H 0.8533 1.1774 -0.1144
C12A C 0.7273(5) 1.0360(5) 0.0172(4)
H6A H 0.8172 1.0054 0.0757
N1A N 1.2317(18) 1.284(2) 0.4719(9)
C13A C 1.0496(5) 1.0567(5) 0.4961(4)
C14A C 1.3122(11) 1.1703(9) 0.4405(10)
H7A H 1.4280 1.1704 0.4111
C15A C 1.2285(11) 1.0561(10) 0.4507(9)
H8A H 1.2866 0.9812 0.4287
C16A C 0.9792(16) 1.1674(15) 0.5247(9)
H9A H 0.8636 1.1712 0.5544
C17A C 1.0689(19) 1.2773(15) 0.5126(10)
H10A H 1.0103 1.3520 0.5347
Co1A Co -0.64464(5) 0.45349(4) 1.45740(4)
Co1_2 Co -0.35536(5) 0.54651(4) 1.54260(4)
Co1_3 Co 0.64464(5) 1.54651(4) -0.45740(4)
Co1A_2 Co 0.35536(5) 0.45349(4) 0.45740(4)
Co1A_3 Co 0.35536(5) 1.45349(4) -0.54260(4)
Co1A_4 Co 1.35536(5) 1.45349(4) 0.45740(4)
O1_2 O -0.7678(3) 0.4990(2) 1.6077(2)
O1A_2 O 0.7678(3) 0.5010(2) 0.3923(2)
O3_2 O -0.7501(3) 0.6221(2) 1.3128(2)
O3A_2 O 0.7501(3) 0.3779(2) 0.6872(2)
N1A_2 N -0.7683(18) 0.284(2) 1.4719(9)
O4A_2 O -0.4682(4) 0.3176(3) 1.6036(2)
C18? C 0.8406(12) 0.8873(9) 0.6125(9)
H11? H 0.8165 0.9340 0.6726
C19? C 0.7571(10) 0.7747(8) 0.6211(7)
H12? H 0.6765 0.7465 0.6879
C20? C 0.9926(13) 0.8578(13) 0.4267(10)
H13? H 1.0723 0.8829 0.3587
C21? C 0.9019(16) 0.7459(13) 0.4436(10)
H14? H 0.9225 0.6965 0.3855
N2? N 0.7864(16) 0.7056(18) 0.5393(8)
C22? C 0.9625(11) 0.9312(8) 0.5124(7)
loop_
_geom_bond_atom_site_label_1
_geom_bond_atom_site_label_2
_geom_bond_site_symmetry_1
_geom_bond_site_symmetry_2
Co1 O2 1_555 1_555
O1 C1 1_555 1_555
O2 C1 1_555 1_555
O3 C3 1_555 1_555
N1 Co1 1_555 1_555
O4 Co1 1_555 1_555
C1 C2 1_555 1_555
C2 C8 1_555 1_555
C3 O4 1_555 1_555
C4 C3 1_555 1_555
C5 C4 1_555 1_555
H1 C5 1_555 1_555
C6 C5 1_555 1_555
C7 C8 1_555 1_555
C8 H2 1_555 1_555
C9 C2 1_555 1_555
H3 C9 1_555 1_555
C10 C9 1_555 1_555
H4 C10 1_555 1_555
C11 C4 1_555 1_555
H5 C11 1_555 1_555
C12 C11 1_555 1_555
H6 C12 1_555 1_555
C13 C15 1_555 1_555
C14 N1 1_555 1_555
H7 C14 1_555 1_555
C15 C14 1_555 1_555
H8 C15 1_555 1_555
C16 C13 1_555 1_555
H9 C16 1_555 1_555
C17 N1 1_555 1_555
H10 C17 1_555 1_555
O1A C1A 1_555 1_555
O2A C1A 1_555 1_555
C1A C2A 1_555 1_555
C2A C8A 1_555 1_555
C7A C7 1_555 1_555
C8A C7A 1_555 1_555
H2A C8A 1_555 1_555
C9A C2A 1_555 1_555
H3A C9A 1_555 1_555
C10A C7 1_555 1_555
H4A C10A 1_555 1_555
O3A C3A 1_555 1_555
O4A C3A 1_555 1_555
C3A C4A 1_555 1_555
C4A C5A 1_555 1_555
C5A H1A 1_555 1_555
C6A C6 1_555 1_555
C11A C4A 1_555 1_555
H5A C11A 1_555 1_555
C12A C6 1_555 1_555
H6A C12A 1_555 1_555
N1A C14A 1_555 1_555
C13A C13 1_555 1_555
C14A H7A 1_555 1_555
C15A C13A 1_555 1_555
H8A C15A 1_555 1_555
C16A C13A 1_555 1_555
H9A C16A 1_555 1_555
C17A N1A 1_555 1_555
H10A C17A 1_555 1_555
Co1A O2A 1_555 1_555
Co1_2 O1A 1_555 1_555
Co1_3 O3A 1_555 1_555
Co1A_2 Co1 1_555 1_555
Co1A_3 O4A 1_555 1_555
Co1A_4 N1A 1_555 1_555
O1_2 Co1A 1_555 1_555
O1A_2 Co1 1_555 1_555
O3_2 Co1A 1_555 1_555
O3A_2 Co1 1_555 1_555
N1A_2 Co1A 1_555 1_555
O4A_2 Co1A 1_555 1_555
O1 Co1A_2 1_555 1_555
O3 Co1A_2 1_555 1_555
C10 C7A 1_555 1_555
C12 C6A 1_555 1_555
C16 C17 1_555 1_555
C9A C10A 1_555 1_555
C5A C6A 1_555 1_555
C11A C12A 1_555 1_555
C14A C15A 1_555 1_555
C16A C17A 1_555 1_555
Co1A Co1_2 1_555 1_555
Co1_3 Co1A_3 1_555 1_555

#END
