
#######################################################################
#
#                 Cambridge Crystallographic Data Centre
#                                CCDC 
#
#######################################################################
#
# If this CIF has been generated from an entry in the Cambridge 
# Structural Database, then it will include bibliographic, chemical, 
# crystal, experimental, refinement or atomic coordinate data resulting 
# from the CCDC's data processing and validation procedures.
#
#######################################################################

data_OHEQUP
_chemical_formula_moiety         '(C34 H20 Co2 N2 O8)n'
_chemical_name_systematic        
"catena-(bis(\m~4~-Naphthalene-2,6-dicarboxylato)-(\m~2~-4,4'-bipyridine)-di-cobalt unknown solvate)"
_symmetry_cell_setting           triclinic
_symmetry_space_group_name_H-M   'P -1'
_symmetry_Int_Tables_number      2
_space_group_name_Hall           '-P 1'
loop_
_symmetry_equiv_pos_site_id
_symmetry_equiv_pos_as_xyz
1 x,y,z
2 -x,-y,-z
_cell_length_a                   12.956(3)
_cell_length_b                   13.122(3)
_cell_length_c                   13.752(3)
_cell_angle_alpha                84.973(3)
_cell_angle_beta                 67.595(3)
_cell_angle_gamma                83.245(3)
_cell_volume                     2144.14
_exptl_crystal_colour            pink
_exptl_crystal_description       block
_cell_formula_units_Z            2
loop_
_atom_site_label
_atom_site_type_symbol
_atom_site_fract_x
_atom_site_fract_y
_atom_site_fract_z
Co1 Co 0.78979(4) 0.68063(3) 0.83329(3)
O1 O 0.7953(2) 0.83260(17) 0.80142(17)
C1 C 0.8277(3) 0.8744(3) 0.7100(3)
Co2 Co 0.86947(4) 0.67252(3) 0.61636(3)
O2 O 0.8597(2) 0.82648(17) 0.62556(17)
C2 C 0.8305(3) 0.9886(2) 0.6983(3)
O3 O 0.9651(2) 0.67076(19) 0.76868(18)
C3 C 0.8617(3) 1.0389(3) 0.5982(3)
H1 H 0.8789 1.0000 0.5379
O4 O 1.0335(2) 0.66058(18) 0.59400(18)
C4 C 0.8677(3) 1.1419(3) 0.5862(3)
H2 H 0.8895 1.1742 0.5177
O5 O 1.6251(2) 0.6915(2) 0.8569(2)
C5 C 0.8416(3) 1.2022(2) 0.6751(3)
O6 O 1.6950(2) 0.68706(19) 0.6815(2)
C6 C 0.8087(3) 1.1516(3) 0.7766(3)
O7 O 0.8019(2) 1.52688(17) 0.82494(18)
C7 C 0.8032(3) 1.0445(3) 0.7857(3)
H3 H 0.7803 1.0105 0.8535
O8 O 0.8587(2) 1.52066(17) 0.65003(17)
C8 C 0.7833(4) 1.2110(3) 0.8654(3)
H4 H 0.7620 1.1784 0.9338
C9 C 0.7893(4) 1.3147(3) 0.8536(3)
H5 H 0.7709 1.3534 0.9141
C10 C 0.8224(4) 1.3658(3) 0.7523(3)
C11 C 0.8464(3) 1.3096(3) 0.6664(3)
H6 H 0.8668 1.3437 0.5987
C12 C 0.8291(3) 1.4793(3) 0.7412(3)
C13 C 1.0449(3) 0.6673(3) 0.6804(3)
C14 C 1.1613(3) 0.6723(3) 0.6782(3)
C15 C 1.1756(3) 0.6901(3) 0.7685(3)
H7 H 1.1116 0.6998 0.8315
C16 C 1.2821(3) 0.6943(3) 0.7703(3)
C17 C 1.3768(3) 0.6784(3) 0.6759(3)
C18 C 1.3605(3) 0.6623(3) 0.5821(3)
H8 H 1.4234 0.6536 0.5180
C19 C 1.2555(3) 0.6592(3) 0.5839(3)
H9 H 1.2454 0.6481 0.5209
C20 C 1.4843(3) 0.6800(3) 0.6779(3)
H10 H 1.5481 0.6708 0.6146
C21 C 1.4993(3) 0.6945(3) 0.7686(3)
C22 C 1.4050(3) 0.7099(3) 0.8628(3)
H11 H 1.4146 0.7195 0.9264
C23 C 1.3000(3) 0.7111(3) 0.8617(3)
H12 H 1.2369 0.7236 0.9250
C24 C 1.6147(3) 0.6912(3) 0.7691(3)
N1 N 0.8040(4) 0.6781(10) 0.9795(13)
N2 N 0.8754(4) 0.6767(9) 1.4640(12)
C25 C 0.7709(6) 0.7656(7) 1.0350(6)
H13 H 0.7377 0.8240 1.0081
C26 C 0.7845(6) 0.7711(6) 1.1302(6)
H14 H 0.7619 0.8313 1.1695
C27 C 0.8379(8) 0.6744(15) 1.166(2)
C28 C 0.8679(6) 0.5929(5) 1.1087(5)
H15 H 0.9014 0.5322 1.1318
C29 C 0.8509(6) 0.5947(5) 1.0152(5)
H16 H 0.8732 0.5349 0.9751
C30 C 0.8580(4) 0.6787(7) 1.2678(9)
C31 C 0.8818(5) 0.7628(5) 1.4044(5)
H17 H 0.8925 0.8240 1.4299
C32 C 0.8736(5) 0.7673(5) 1.3074(5)
H18 H 0.8787 0.8306 1.2674
C33 C 0.8515(4) 0.5907(6) 1.3293(7)
H19 H 0.8408 0.5286 1.3052
C34 C 0.8603(5) 0.5908(8) 1.4267(8)
H20 H 0.8555 0.5284 1.4681
Co1_2 Co 0.78979(4) 1.68063(3) 0.83329(3)
Co1_3 Co 1.78979(4) 0.68063(3) 0.83329(3)
Co2_2 Co 0.86947(4) 0.67252(3) 1.61636(3)
Co2_3 Co 0.86947(4) 1.67252(3) 0.61636(3)
Co2_4 Co 1.86947(4) 0.67252(3) 0.61636(3)
O5_2 O 0.6251(2) 0.6915(2) 0.8569(2)
O6_2 O 0.6950(2) 0.68706(19) 0.6815(2)
O7_2 O 0.8019(2) 0.52688(17) 0.82494(18)
O8_2 O 0.8587(2) 0.52066(17) 0.65003(17)
N2_2 N 0.8754(4) 0.6767(9) 0.4640(12)
C35? C 0.8894(4) 0.5982(7) 1.3115(8)
H21? H 0.9231 0.5417 1.2678
C36? C 0.8998(5) 0.5999(7) 1.4069(8)
H22? H 0.9413 0.5435 1.4275
N3? N 0.7906(4) 0.6827(11) 0.9823(14)
N4? N 0.8549(6) 0.6763(10) 1.4722(14)
C37? C 0.8083(5) 0.7614(9) 1.0191(9)
H23? H 0.8124 0.8242 0.9783
C38? C 0.8221(5) 0.7631(7) 1.1140(7)
H24? H 0.8349 0.8268 1.1335
C39? C 0.8188(6) 0.6870(12) 1.1757(18)
C40? C 0.7988(6) 0.5923(6) 1.1401(6)
H25? H 0.7947 0.5295 1.1810
C41? C 0.7861(5) 0.5978(6) 1.0449(6)
H26? H 0.7731 0.5363 1.0216
C42? C 0.8286(6) 0.6804(8) 1.2787(11)
C43? C 0.7950(6) 0.7574(6) 1.4409(6)
H27? H 0.7622 0.8129 1.4861
C44? C 0.7815(6) 0.7605(5) 1.3472(6)
H28? H 0.7397 0.8177 1.3283
loop_
_geom_bond_atom_site_label_1
_geom_bond_atom_site_label_2
_geom_bond_site_symmetry_1
_geom_bond_site_symmetry_2
Co1 O1 1_555 1_555
O1 C1 1_555 1_555
C1 O2 1_555 1_555
Co2 Co1 1_555 1_555
O2 Co2 1_555 1_555
C2 C1 1_555 1_555
O3 Co1 1_555 1_555
C3 C2 1_555 1_555
H1 C3 1_555 1_555
O4 Co2 1_555 1_555
C4 C3 1_555 1_555
H2 C4 1_555 1_555
O5 C24 1_555 1_555
C5 C4 1_555 1_555
O6 C24 1_555 1_555
C6 C5 1_555 1_555
O7 C12 1_555 1_555
C7 C2 1_555 1_555
H3 C7 1_555 1_555
O8 C12 1_555 1_555
C8 C6 1_555 1_555
H4 C8 1_555 1_555
C9 C8 1_555 1_555
H5 C9 1_555 1_555
C10 C9 1_555 1_555
C11 C5 1_555 1_555
H6 C11 1_555 1_555
C12 C10 1_555 1_555
C13 O3 1_555 1_555
C14 C13 1_555 1_555
C15 C14 1_555 1_555
H7 C15 1_555 1_555
C16 C15 1_555 1_555
C17 C16 1_555 1_555
C18 C17 1_555 1_555
H8 C18 1_555 1_555
C19 C14 1_555 1_555
H9 C19 1_555 1_555
C20 C17 1_555 1_555
H10 C20 1_555 1_555
C21 C20 1_555 1_555
C22 C21 1_555 1_555
H11 C22 1_555 1_555
C23 C16 1_555 1_555
H12 C23 1_555 1_555
C24 C21 1_555 1_555
N1 Co1 1_555 1_555
N2 C31 1_555 1_555
C25 N1 1_555 1_555
H13 C25 1_555 1_555
C26 C25 1_555 1_555
H14 C26 1_555 1_555
C27 C26 1_555 1_555
C28 C27 1_555 1_555
H15 C28 1_555 1_555
C29 N1 1_555 1_555
H16 C29 1_555 1_555
C30 C27 1_555 1_555
C31 H17 1_555 1_555
C32 C30 1_555 1_555
H18 C32 1_555 1_555
C33 C30 1_555 1_555
H19 C33 1_555 1_555
C34 N2 1_555 1_555
H20 C34 1_555 1_555
Co1_2 O7 1_555 1_555
Co1_3 O5 1_555 1_555
Co2_2 N2 1_555 1_555
Co2_3 O8 1_555 1_555
Co2_4 O6 1_555 1_555
O5_2 Co1 1_555 1_555
O6_2 Co2 1_555 1_555
O7_2 Co1 1_555 1_555
O8_2 Co2 1_555 1_555
N2_2 Co2 1_555 1_555
O4 C13 1_555 1_555
C6 C7 1_555 1_555
C10 C11 1_555 1_555
C18 C19 1_555 1_555
C22 C23 1_555 1_555
C28 C29 1_555 1_555
C31 C32 1_555 1_555
C33 C34 1_555 1_555
Co1_2 Co2_3 1_555 1_555
Co1_3 Co2_4 1_555 1_555

#END
