
#######################################################################
#
#                 Cambridge Crystallographic Data Centre
#                                CCDC 
#
#######################################################################
#
# If this CIF has been generated from an entry in the Cambridge 
# Structural Database, then it will include bibliographic, chemical, 
# crystal, experimental, refinement or atomic coordinate data resulting 
# from the CCDC's data processing and validation procedures.
#
#######################################################################

data_OCUGAX
_chemical_formula_moiety         '(C14 H22 Cl4 Co3 N4 O8)n'
_chemical_name_systematic        
catena-[tetrakis(\m-chloro)-bis(\m-pyrimidine-5-carboxylato)-tetrakis(methanol)-tri-cobalt]
_symmetry_cell_setting           monoclinic
_symmetry_space_group_name_H-M   'C 2/c'
_symmetry_Int_Tables_number      15
_space_group_name_Hall           '-C 2yc'
loop_
_symmetry_equiv_pos_site_id
_symmetry_equiv_pos_as_xyz
1 x,y,z
2 -x,y,1/2-z
3 1/2+x,1/2+y,z
4 1/2-x,1/2+y,1/2-z
5 -x,-y,-z
6 x,-y,1/2+z
7 1/2-x,1/2-y,-z
8 1/2+x,1/2-y,1/2+z
_cell_length_a                   27.322(6)
_cell_length_b                   13.494(3)
_cell_length_c                   6.2920(13)
_cell_angle_alpha                90
_cell_angle_beta                 93.30(3)
_cell_angle_gamma                90
_cell_volume                     2315.91
_exptl_crystal_colour            magenta
_exptl_crystal_description       flake
_cell_formula_units_Z            4
loop_
_atom_site_label
_atom_site_type_symbol
_atom_site_fract_x
_atom_site_fract_y
_atom_site_fract_z
Co1 Co 0.0000 0.06164(7) 0.2500
Co2 Co 0.0000 0.44021(7) -0.2500
Co3 Co -0.2500 0.2500 -0.5000
Cl1 Cl -0.05070(4) -0.06295(9) 0.05815(19)
Cl2 Cl 0.05235(4) 0.43989(9) 0.08220(19)
O1 O -0.19023(14) 0.2788(3) -0.2834(6)
H1 H -0.246(3) 0.353(7) -0.867(14)
O2 O -0.19579(13) 0.1599(3) -0.0382(6)
H2 H -0.209(3) 0.139(7) -0.784(15)
N1 N -0.04395(16) 0.3224(3) -0.1217(7)
N2 N -0.04445(16) 0.1768(3) 0.0906(7)
O3 O -0.22031(14) 0.3393(3) -0.7297(6)
O4 O -0.21645(14) 0.1287(3) -0.6347(6)
C1 C -0.17300(19) 0.2258(4) -0.1331(8)
C2 C -0.11921(19) 0.2389(4) -0.0738(8)
C3 C -0.09272(19) 0.3153(4) -0.1584(8)
H3 H -0.1094 0.3638 -0.2445
C4 C -0.02215(19) 0.2528(4) 0.0006(8)
H4 H 0.0124 0.2578 0.0260
C5 C -0.09311(19) 0.1701(4) 0.0552(8)
H5 H -0.1103 0.1177 0.1189
C6 C -0.1905(2) 0.4254(5) -0.6967(10)
H6 H -0.2114 0.4842 -0.6919
H7 H -0.1685 0.4320 -0.8138
H8 H -0.1709 0.4191 -0.5618
C7 C -0.1732(2) 0.0848(5) -0.5340(10)
H9 H -0.1468 0.1340 -0.5236
H10 H -0.1631 0.0282 -0.6188
H11 H -0.1803 0.0621 -0.3911
Cl2A Cl -0.05235(4) 0.43989(9) -0.58220(19)
O1A O 0.19023(14) 0.2788(3) -0.2166(6)
O2A O 0.19579(13) 0.1599(3) -0.4618(6)
N1A N 0.04395(16) 0.3224(3) -0.3783(7)
N2A N 0.04445(16) 0.1768(3) -0.5906(7)
C1A C 0.17300(19) 0.2258(4) -0.3669(8)
C2A C 0.11921(19) 0.2389(4) -0.4262(8)
C3A C 0.09272(19) 0.3153(4) -0.3416(8)
H3A H 0.1094 0.3638 -0.2555
C4A C 0.02215(19) 0.2528(4) -0.5006(8)
H4A H -0.0124 0.2578 -0.5260
C5A C 0.09311(19) 0.1701(4) -0.5552(8)
H5A H 0.1103 0.1177 -0.6189
H1F H -0.254(3) 0.147(7) -0.133(14)
O3F O -0.27969(14) 0.1607(3) -0.2703(6)
C6F C -0.3095(2) 0.0746(5) -0.3033(10)
H6F H -0.2886 0.0158 -0.3081
H7F H -0.3315 0.0680 -0.1862
H8F H -0.3291 0.0809 -0.4382
H2F H -0.291(3) 0.361(7) -0.216(15)
O4F O -0.28355(14) 0.3713(3) -0.3653(6)
C7F C -0.3268(2) 0.4152(5) -0.4660(10)
H9F H -0.3532 0.3660 -0.4764
H10F H -0.3369 0.4718 -0.3812
H11F H -0.3197 0.4379 -0.6089
Cl1A Cl 0.05070(4) -0.06295(9) 0.44185(19)
Co1_2 Co 0.0000 0.06164(7) -0.7500
Co1D Co 0.0000 -0.06164(7) -0.2500
Co1D_2 Co 0.0000 -0.06164(7) 0.7500
Co2D Co 0.0000 0.55979(7) -0.7500
Co2D_2 Co 0.0000 0.55979(7) 0.2500
Co3A Co 0.2500 0.2500 0.0000
Cl1D Cl 0.05070(4) 0.06295(9) -0.05815(19)
Cl1E Cl -0.05070(4) 0.06295(9) 0.55815(19)
Cl2D Cl -0.05235(4) 0.56011(9) -0.08220(19)
Cl2E Cl 0.05235(4) 0.56011(9) -0.41780(19)
O1F O -0.30977(14) 0.2212(3) -0.7166(6)
N2A_2 N 0.04445(16) 0.1768(3) 0.4094(7)
loop_
_geom_bond_atom_site_label_1
_geom_bond_atom_site_label_2
_geom_bond_site_symmetry_1
_geom_bond_site_symmetry_2
Co1 Cl1 1_555 1_555
Co2 Cl2 1_555 1_555
Co3 O1 1_555 1_555
Cl1 Co1D 1_555 1_555
Cl2 Co2D_2 1_555 1_555
O1 C1 1_555 1_555
H1 O3 1_555 1_555
O2 C1 1_555 1_555
H2 O4 1_555 1_555
N1 Co2 1_555 1_555
N2 Co1 1_555 1_555
O3 Co3 1_555 1_555
O4 Co3 1_555 1_555
C1 C2 1_555 1_555
C2 C3 1_555 1_555
C3 N1 1_555 1_555
H3 C3 1_555 1_555
C4 N1 1_555 1_555
H4 C4 1_555 1_555
C5 N2 1_555 1_555
H5 C5 1_555 1_555
C6 O3 1_555 1_555
H6 C6 1_555 1_555
H7 C6 1_555 1_555
H8 C6 1_555 1_555
C7 O4 1_555 1_555
H9 C7 1_555 1_555
H10 C7 1_555 1_555
H11 C7 1_555 1_555
Cl2A Co2 1_555 1_555
O1A C1A 1_555 1_555
O2A C1A 1_555 1_555
N1A Co2 1_555 1_555
N2A C4A 1_555 1_555
C1A C2A 1_555 1_555
C2A C3A 1_555 1_555
C3A N1A 1_555 1_555
H3A C3A 1_555 1_555
C4A N1A 1_555 1_555
H4A C4A 1_555 1_555
C5A N2A 1_555 1_555
H5A C5A 1_555 1_555
H1F O3F 1_555 1_555
O3F Co3 1_555 1_555
C6F O3F 1_555 1_555
H6F C6F 1_555 1_555
H7F C6F 1_555 1_555
H8F C6F 1_555 1_555
H2F O4F 1_555 1_555
O4F Co3 1_555 1_555
C7F O4F 1_555 1_555
H9F C7F 1_555 1_555
H10F C7F 1_555 1_555
H11F C7F 1_555 1_555
Cl1A Co1 1_555 1_555
Co1_2 N2A 1_555 1_555
Co1D Cl1D 1_555 1_555
Co1D_2 Cl1A 1_555 1_555
Co2D Cl2A 1_555 1_555
Co2D_2 Cl2D 1_555 1_555
Co3A O1A 1_555 1_555
Cl1D Co1 1_555 1_555
Cl1E Co1 1_555 1_555
Cl2D Co2 1_555 1_555
Cl2E Co2 1_555 1_555
O1F Co3 1_555 1_555
N2A_2 Co1 1_555 1_555
N2 C4 1_555 1_555
C2 C5 1_555 1_555
C2A C5A 1_555 1_555
Co1D_2 Cl1E 1_555 1_555
Co2D Cl2E 1_555 1_555

#END
