
#######################################################################
#
#                 Cambridge Crystallographic Data Centre
#                                CCDC 
#
#######################################################################
#
# If this CIF has been generated from an entry in the Cambridge 
# Structural Database, then it will include bibliographic, chemical, 
# crystal, experimental, refinement or atomic coordinate data resulting 
# from the CCDC's data processing and validation procedures.
#
#######################################################################

data_LUFQUZ
_chemical_formula_moiety         '(C8 H4 Fe1 N6 Ni1)n,2n(H2 O1)'
_chemical_name_systematic        
'catena-((\m~2~-Pyrazine)-tetrakis(\m~2~-cyano)-iron-nickel dihydrate)'
_symmetry_cell_setting           orthorhombic
_symmetry_space_group_name_H-M   'P m m m'
_symmetry_Int_Tables_number      47
_space_group_name_Hall           '-P 2 2'
loop_
_symmetry_equiv_pos_site_id
_symmetry_equiv_pos_as_xyz
1 x,y,z
2 -x,-y,z
3 x,-y,-z
4 -x,y,-z
5 -x,-y,-z
6 x,y,-z
7 -x,y,z
8 x,-y,z
_cell_length_a                   7.1139(3)
_cell_length_b                   6.9109(4)
_cell_length_c                   6.7799(3)
_cell_angle_alpha                90
_cell_angle_beta                 90
_cell_angle_gamma                90
_cell_volume                     333.323
_exptl_crystal_colour            red-yellow
_exptl_crystal_description       'rectangular block'
_cell_formula_units_Z            1
loop_
_atom_site_label
_atom_site_type_symbol
_atom_site_fract_x
_atom_site_fract_y
_atom_site_fract_z
Ni1 Ni 0.5000 0.5000 0.0000
Fe1 Fe 0.0000 0.0000 0.0000
N1 N 0.1948(3) 0.1973(4) 0.0000
N2 N 0.0000 0.0000 0.2929(5)
C1 C 0.3125(4) 0.3111(4) 0.0000
C2 C 0.0000 0.1641(5) 0.3972(4)
H1 H 0.0000 0.2843 0.3292
Fe1_2 Fe 0.0000 0.0000 1.0000
Fe1_3 Fe 1.0000 1.0000 0.0000
Fe1_4 Fe 0.0000 1.0000 0.0000
Fe1_5 Fe 1.0000 0.0000 0.0000
N1A N 0.8052(3) 0.8027(4) 0.0000
N1B N 0.1948(3) 0.8027(4) 0.0000
N1C N 0.8052(3) 0.1973(4) 0.0000
N1A_2 N -0.1948(3) -0.1973(4) 0.0000
N1B_2 N 0.1948(3) -0.1973(4) 0.0000
N1C_2 N -0.1948(3) 0.1973(4) 0.0000
N2B N 0.0000 0.0000 0.7071(5)
N2B_2 N 0.0000 0.0000 -0.2929(5)
C1A C 0.6875(4) 0.6889(4) 0.0000
C1B C 0.3125(4) 0.6889(4) 0.0000
C1C C 0.6875(4) 0.3111(4) 0.0000
C2C C 0.0000 0.1641(5) 0.6028(4)
C2B C 0.0000 -0.1641(5) 0.6028(4)
C2A C 0.0000 -0.1641(5) 0.3972(4)
H1A H 0.0000 -0.2843 0.3292
H1B H 0.0000 -0.2843 0.6708
H1C H 0.0000 0.2843 0.6708
O1 O 0.5000 0.203(2) 0.5000
O2 O 0.344(4) 0.5000 0.5000
O3? O 0.5000 0.0000 0.417(4)
O4? O 0.5000 0.413(5) 0.5000
loop_
_geom_bond_atom_site_label_1
_geom_bond_atom_site_label_2
_geom_bond_site_symmetry_1
_geom_bond_site_symmetry_2
Ni1 C1 1_555 1_555
Fe1 N1 1_555 1_555
N1 C1 1_555 1_555
N2 Fe1 1_555 1_555
C2 N2 1_555 1_555
H1 C2 1_555 1_555
Fe1_2 N2B 1_555 1_555
Fe1_3 N1A 1_555 1_555
Fe1_4 N1B 1_555 1_555
Fe1_5 N1C 1_555 1_555
N1A C1A 1_555 1_555
N1B C1B 1_555 1_555
N1C C1C 1_555 1_555
N1A_2 Fe1 1_555 1_555
N1B_2 Fe1 1_555 1_555
N1C_2 Fe1 1_555 1_555
N2B C2C 1_555 1_555
N2B_2 Fe1 1_555 1_555
C1A Ni1 1_555 1_555
C1B Ni1 1_555 1_555
C1C Ni1 1_555 1_555
C2C C2 1_555 1_555
C2B N2B 1_555 1_555
C2A N2 1_555 1_555
H1A C2A 1_555 1_555
H1B C2B 1_555 1_555
H1C C2C 1_555 1_555
C2B C2A 1_555 1_555

#END
