
#######################################################################
#
#                 Cambridge Crystallographic Data Centre
#                                CCDC 
#
#######################################################################
#
# If this CIF has been generated from an entry in the Cambridge 
# Structural Database, then it will include bibliographic, chemical, 
# crystal, experimental, refinement or atomic coordinate data resulting 
# from the CCDC's data processing and validation procedures.
#
#######################################################################

data_XEXMEU
_chemical_formula_moiety         '(C19 H8 N2 O6 Zn1)n,2n(C4 H9 N1 O1)'
_chemical_name_systematic        
'catena-((\m~5~-1,3-Dioxo-2-(pyridin-4-yl)-2,3-dihydro-1H-benzo[de]isoquinoline-6,7-dicarboxylato)-zinc dimethylacetamide solvate)'
_symmetry_cell_setting           monoclinic
_symmetry_space_group_name_H-M   'P 21/c'
_symmetry_Int_Tables_number      14
_space_group_name_Hall           '-P 2ybc'
loop_
_symmetry_equiv_pos_site_id
_symmetry_equiv_pos_as_xyz
1 x,y,z
2 -x,1/2+y,1/2-z
3 -x,-y,-z
4 x,1/2-y,1/2+z
_cell_length_a                   5.6364(6)
_cell_length_b                   25.301(3)
_cell_length_c                   18.8863(19)
_cell_angle_alpha                90
_cell_angle_beta                 95.470(2)
_cell_angle_gamma                90
_cell_volume                     2681.05
_exptl_crystal_colour            yellow
_exptl_crystal_description       needle
_cell_formula_units_Z            4
loop_
_atom_site_label
_atom_site_type_symbol
_atom_site_fract_x
_atom_site_fract_y
_atom_site_fract_z
Zn1 Zn 0.89700(7) 0.466681(17) 0.43975(2)
O1 O 0.7098(5) 0.53365(10) 0.41800(16)
O2 O 0.8214(5) 0.57916(11) 0.51768(14)
O3 O 0.2588(5) 0.55707(12) 0.47230(14)
O4 O 0.1451(5) 0.50285(11) 0.38170(15)
O5 O 0.6846(5) 0.80517(12) 0.30578(18)
O6 O 0.0126(7) 0.73812(14) 0.1881(2)
N1 N 0.2241(6) 0.91048(13) 0.13055(18)
N2 N 0.3488(6) 0.77097(15) 0.2471(2)
C1 C 0.4187(7) 0.88139(18) 0.1226(2)
H1 H 0.5247 0.8926 0.0894
C2 C 0.4701(7) 0.83587(18) 0.1610(2)
H2 H 0.6092 0.8158 0.1547
C3 C 0.3127(7) 0.82024(18) 0.2089(2)
C4 C 0.1170(7) 0.85091(18) 0.2198(2)
H3 H 0.0130 0.8417 0.2546
C5 C 0.0788(7) 0.89490(17) 0.1787(2)
H4 H -0.0584 0.9157 0.1845
C6 C 0.5491(7) 0.76791(18) 0.2978(2)
C7 C 0.5761(7) 0.71830(16) 0.3389(2)
C8 C 0.4113(7) 0.67678(16) 0.3266(2)
C9 C 0.2153(7) 0.68183(17) 0.2732(2)
C10 C 0.1794(8) 0.73119(19) 0.2328(3)
C11 C 0.7653(7) 0.71441(17) 0.3905(2)
H5 H 0.8730 0.7431 0.3992
C12 C 0.7966(7) 0.66790(17) 0.4300(2)
H6 H 0.9272 0.6652 0.4656
C13 C 0.6427(7) 0.62572(16) 0.4187(2)
C14 C 0.4388(7) 0.62974(16) 0.3678(2)
C15 C 0.2615(6) 0.59002(16) 0.3560(2)
C16 C 0.0815(7) 0.59549(17) 0.3020(2)
H7 H -0.0295 0.5675 0.2926
C17 C 0.0589(8) 0.64129(18) 0.2609(2)
H8 H -0.0671 0.6442 0.2239
C18 C 0.7248(6) 0.57517(17) 0.4552(2)
C19 C 0.2256(6) 0.54539(16) 0.4071(2)
Zn1_2 Zn -0.10300(7) 0.466681(17) 0.43975(2)
Zn1A Zn 0.10300(7) 0.966681(17) 0.06025(2)
Zn1B Zn 0.10300(7) 0.533319(17) 0.56025(2)
Zn1B_2 Zn 1.10300(7) 0.533319(17) 0.56025(2)
O2B O 1.1786(5) 0.42084(11) 0.48232(14)
O3B O 0.7412(5) 0.44293(12) 0.52770(14)
O4_2 O 1.1451(5) 0.50285(11) 0.38170(15)
N1A N 0.7759(6) 0.41048(13) 0.36945(18)
O7 O 1.2182(10) 0.8139(3) 0.4113(3)
N3 N 1.4861(15) 0.8054(4) 0.4977(4)
C20 C 1.3536(18) 0.7526(4) 0.5174(5)
H9 H 1.2899 0.7570 0.5636
H10 H 1.4666 0.7231 0.5200
H11 H 1.2225 0.7453 0.4808
C21 C 1.6895(16) 0.8151(5) 0.5473(5)
H12 H 1.8027 0.8377 0.5250
H13 H 1.7663 0.7815 0.5614
H14 H 1.6389 0.8329 0.5894
C22 C 1.541(2) 0.8801(4) 0.4353(7)
H15 H 1.6078 0.8943 0.4813
H16 H 1.4375 0.9067 0.4105
H17 H 1.6705 0.8712 0.4064
C23 C 1.3965(16) 0.8309(5) 0.4474(5)
O8 O -0.4117(11) 0.5748(3) 0.1709(4)
N4 N -0.6814(18) 0.5168(4) 0.1710(6)
C24 C -0.5030(13) 0.4889(3) 0.2369(4)
H18 H -0.4820 0.4513 0.2264
H19 H -0.5755 0.4925 0.2818
H20 H -0.3476 0.5065 0.2410
C25 C -0.9022(14) 0.4868(4) 0.1585(6)
H21 H -1.0318 0.5105 0.1407
H22 H -0.9404 0.4705 0.2031
H23 H -0.8827 0.4591 0.1232
C26 C -0.7986(19) 0.5745(7) 0.0918(6)
H24 H -0.7742 0.5565 0.0472
H25 H -0.7847 0.6128 0.0854
H26 H -0.9578 0.5661 0.1055
C27 C -0.607(2) 0.5557(5) 0.1514(7)
loop_
_geom_bond_atom_site_label_1
_geom_bond_atom_site_label_2
_geom_bond_site_symmetry_1
_geom_bond_site_symmetry_2
Zn1 O1 1_555 1_555
O1 C18 1_555 1_555
O2 C18 1_555 1_555
O3 C19 1_555 1_555
O4 C19 1_555 1_555
O5 C6 1_555 1_555
O6 C10 1_555 1_555
N1 C1 1_555 1_555
N2 C3 1_555 1_555
C1 H1 1_555 1_555
C2 C1 1_555 1_555
H2 C2 1_555 1_555
C3 C2 1_555 1_555
C4 C3 1_555 1_555
H3 C4 1_555 1_555
C5 N1 1_555 1_555
H4 C5 1_555 1_555
C6 N2 1_555 1_555
C7 C6 1_555 1_555
C8 C7 1_555 1_555
C9 C8 1_555 1_555
C10 N2 1_555 1_555
C11 C7 1_555 1_555
H5 C11 1_555 1_555
C12 C11 1_555 1_555
H6 C12 1_555 1_555
C13 C12 1_555 1_555
C14 C8 1_555 1_555
C15 C14 1_555 1_555
C16 C15 1_555 1_555
H7 C16 1_555 1_555
C17 C9 1_555 1_555
H8 C17 1_555 1_555
C18 C13 1_555 1_555
C19 C15 1_555 1_555
O7 C23 1_555 1_555
N3 C20 1_555 1_555
C20 H9 1_555 1_555
H10 C20 1_555 1_555
H11 C20 1_555 1_555
C21 N3 1_555 1_555
H12 C21 1_555 1_555
H13 C21 1_555 1_555
H14 C21 1_555 1_555
C22 H15 1_555 1_555
H16 C22 1_555 1_555
H17 C22 1_555 1_555
C23 N3 1_555 1_555
O8 C27 1_555 1_555
N4 C24 1_555 1_555
C24 H18 1_555 1_555
H19 C24 1_555 1_555
H20 C24 1_555 1_555
C25 N4 1_555 1_555
H21 C25 1_555 1_555
H22 C25 1_555 1_555
H23 C25 1_555 1_555
C26 H24 1_555 1_555
H25 C26 1_555 1_555
H26 C26 1_555 1_555
C27 N4 1_555 1_555
Zn1_2 O4 1_555 1_555
Zn1A N1 1_555 1_555
Zn1B O3 1_555 1_555
Zn1B_2 O2 1_555 1_555
O2B Zn1 1_555 1_555
O3B Zn1 1_555 1_555
O4_2 Zn1 1_555 1_555
N1A Zn1 1_555 1_555
C4 C5 1_555 1_555
C9 C10 1_555 1_555
C13 C14 1_555 1_555
C16 C17 1_555 1_555
C22 C23 1_555 1_555
C26 C27 1_555 1_555

#END
