
#######################################################################
#
#                 Cambridge Crystallographic Data Centre
#                                CCDC 
#
#######################################################################
#
# If this CIF has been generated from an entry in the Cambridge 
# Structural Database, then it will include bibliographic, chemical, 
# crystal, experimental, refinement or atomic coordinate data resulting 
# from the CCDC's data processing and validation procedures.
#
#######################################################################

data_BUFPIC
_chemical_name_common            NOTT-111
_chemical_formula_moiety         
'(C30 H20 Cu2 O10)n,7.5n(C3 H7 N1 O1),5n(H2 O1)'
_chemical_name_systematic        
"catena-[(\m~8~-5,5'-(9,10-Dihydrophenanthrene-2,7-diyl)dibenzene-1,3-dicarboxylato)-diaqua-di-copper(ii) dimethylformamide solvate pentahydrate]"
_symmetry_cell_setting           rhombohedral
_symmetry_space_group_name_H-M   'R -3 m'
_symmetry_Int_Tables_number      166
_space_group_name_Hall           '-R 3 2"'
loop_
_symmetry_equiv_pos_site_id
_symmetry_equiv_pos_as_xyz
1 x,y,z
2 -y,x-y,z
3 -x+y,-x,z
4 y,x,-z
5 x-y,-y,-z
6 -x,-x+y,-z
7 2/3+x,1/3+y,1/3+z
8 2/3-y,1/3+x-y,1/3+z
9 2/3-x+y,1/3-x,1/3+z
10 2/3+y,1/3+x,1/3-z
11 2/3+x-y,1/3-y,1/3-z
12 2/3-x,1/3-x+y,1/3-z
13 1/3+x,2/3+y,2/3+z
14 1/3-y,2/3+x-y,2/3+z
15 1/3-x+y,2/3-x,2/3+z
16 1/3+y,2/3+x,2/3-z
17 1/3+x-y,2/3-y,2/3-z
18 1/3-x,2/3-x+y,2/3-z
19 -x,-y,-z
20 y,-x+y,-z
21 x-y,x,-z
22 -y,-x,z
23 -x+y,y,z
24 x,x-y,z
25 1/3-x,2/3-y,2/3-z
26 1/3+y,2/3-x+y,2/3-z
27 1/3+x-y,2/3+x,2/3-z
28 1/3-y,2/3-x,2/3+z
29 1/3-x+y,2/3+y,2/3+z
30 1/3+x,2/3+x-y,2/3+z
31 2/3-x,1/3-y,1/3-z
32 2/3+y,1/3-x+y,1/3-z
33 2/3+x-y,1/3+x,1/3-z
34 2/3-y,1/3-x,1/3+z
35 2/3-x+y,1/3+y,1/3+z
36 2/3+x,1/3+x-y,1/3+z
_cell_length_a                   18.3555(4)
_cell_length_b                   18.3555(4)
_cell_length_c                   52.4245(16)
_cell_angle_alpha                90
_cell_angle_beta                 90
_cell_angle_gamma                120
_cell_volume                     15296.7
_exptl_crystal_colour            'blue green'
_exptl_crystal_description       block
_cell_formula_units_Z            9
loop_
_atom_site_label
_atom_site_type_symbol
_atom_site_fract_x
_atom_site_fract_y
_atom_site_fract_z
Cu1 Cu 0.85820(2) 0.14180(2) 0.146200(12)
O1 O 0.7468(3) 0.1069(3) 0.13316(6)
O2 O 0.7044(3) 0.1472(2) 0.16784(6)
O3 O 0.8960(2) 0.1040(2) 0.11213(11)
C1 C 0.6927(4) 0.1166(4) 0.14551(8)
C2 C 0.5302(7) 0.0602(3) 0.09426(14)
C3 C 0.5549(5) 0.1098(3) 0.14529(12)
H1 H 0.5640 0.1279 0.1625
C4 C 0.6011(4) 0.0720(4) 0.10722(9)
H2 H 0.6417 0.0633 0.0986
C5 C 0.6137(3) 0.0964(3) 0.13269(6)
C6 C 0.4398(3) -0.0399(3) 0.05771(6)
H3 H 0.3921 -0.0658 0.0689
C7 C 0.5195(3) 0.0132(3) 0.06756(6)
C8 C 0.5886(3) 0.0506(3) 0.05133(6)
H4 H 0.6437 0.0873 0.0581
C9 C 0.5779(3) 0.0349(3) 0.02527(6)
H5 H 0.6343 0.0666 0.0136
C10 C 0.4982(3) -0.0182(3) 0.01542(6)
C11 C 0.4291(3) -0.0556(3) 0.03164(6)
C12 C 0.3494(3) -0.1087(3) 0.02180(6)
H6 H 0.3131 -0.0855 0.0268
H7 H 0.3271 -0.1637 0.0305
C13 C 0.6613(3) 0.1244(3) 0.00427(6)
H8 H 0.7197 0.1620 0.0079
H9 H 0.6289 0.1495 0.0097
Cu1B Cu 0.28360(3) 0.14180(2) 0.146200(12)
Cu1I Cu 0.80847(2) 0.19153(2) 0.187133(12)
Cu1J Cu 0.38307(3) 0.19153(2) 0.187133(12)
Cu1D Cu 0.71640(3) -0.14180(2) -0.146200(12)
Cu1N Cu 0.61693(3) -0.19153(2) -0.187133(12)
Cu1C Cu 0.14180(2) -0.14180(2) -0.146200(12)
Cu1L Cu 0.19153(2) -0.19153(2) -0.187133(12)
O1V O 0.3601(4) 0.1069(3) 0.13316(6)
O1D O 0.6399(4) -0.1069(3) -0.13316(6)
O1R O 0.2532(3) -0.1069(3) -0.13316(6)
O1U O 0.8931(3) 0.2532(3) 0.13316(6)
O1B O 0.3601(4) 0.2532(3) 0.13316(6)
O2V O 0.4428(4) 0.1472(2) 0.16784(6)
O2D O 0.5572(4) -0.1472(2) -0.16784(6)
O2R O 0.2956(3) -0.1472(2) -0.16784(6)
O2I O 0.8139(2) 0.0377(3) 0.16549(6)
O2DA O 0.9623(3) 0.1861(2) 0.16549(6)
O2FA O 0.2239(4) 0.0377(3) 0.16549(6)
O2J O 0.2239(4) 0.1861(2) 0.16549(6)
O3B O 0.2080(3) 0.1040(2) 0.11213(11)
C1V C 0.4239(6) 0.1166(4) 0.14551(8)
C1D C 0.5761(6) -0.1166(4) -0.14551(8)
C1R C 0.3073(4) -0.1166(4) -0.14551(8)
C2D C 0.4700(8) -0.0602(3) -0.09426(14)
C3D C 0.4451(6) -0.1098(3) -0.14529(12)
H1D H 0.4361 -0.1279 -0.1625
C4V C 0.4709(6) 0.0720(4) 0.10722(9)
C4D C 0.5291(6) -0.0720(4) -0.10722(9)
C4R C 0.3989(4) -0.0720(4) -0.10722(9)
H2D H 0.5784 -0.0633 -0.0986
H2R H 0.3583 -0.0633 -0.0986
H2V H 0.4216 0.0633 0.0986
C5V C 0.4827(4) 0.0964(3) 0.13269(6)
C5D C 0.5173(4) -0.0964(3) -0.13269(6)
C5R C 0.3863(3) -0.0964(3) -0.13269(6)
C6V C 0.5203(4) -0.0399(3) 0.05771(6)
C6R C 0.5602(3) 0.0399(3) -0.05771(6)
C6D C 0.4797(4) 0.0399(3) -0.05771(6)
H3V H 0.5421 -0.0658 0.0689
H3R H 0.6079 0.0658 -0.0689
H3D H 0.4579 0.0658 -0.0689
C7V C 0.4937(4) 0.0132(3) 0.06756(6)
C7D C 0.5063(4) -0.0132(3) -0.06756(6)
C7R C 0.4805(3) -0.0132(3) -0.06756(6)
C8V C 0.4620(4) 0.0506(3) 0.05133(6)
C8R C 0.4114(3) -0.0506(3) -0.05133(6)
C8D C 0.5380(4) -0.0506(3) -0.05133(6)
H4V H 0.4436 0.0873 0.0581
H4R H 0.3563 -0.0873 -0.0581
H4D H 0.5564 -0.0873 -0.0581
C9V C 0.4570(4) 0.0349(3) 0.02527(6)
C9R C 0.4221(3) -0.0349(3) -0.02527(6)
C9D C 0.5430(4) -0.0349(3) -0.02527(6)
H5D H 0.5677 -0.0666 -0.0136
H5V H 0.4323 0.0666 0.0136
H5R H 0.3657 -0.0666 -0.0136
C10V C 0.4836(4) -0.0182(3) 0.01542(6)
C10D C 0.5164(4) 0.0182(3) -0.01542(6)
C10R C 0.5018(3) 0.0182(3) -0.01542(6)
C11V C 0.5153(4) -0.0556(3) 0.03164(6)
C11R C 0.5709(3) 0.0556(3) -0.03164(6)
C11D C 0.4847(4) 0.0556(3) -0.03164(6)
C12R C 0.6506(3) 0.1087(3) -0.02180(6)
C12V C 0.5419(4) -0.1087(3) 0.02180(6)
C12D C 0.4581(4) 0.1087(3) -0.02180(6)
H6D H 0.3986 0.0855 -0.0268
H6V H 0.6014 -0.0855 0.0268
H6R H 0.6869 0.0855 -0.0268
H7D H 0.4908 0.1637 -0.0305
H7V H 0.5092 -0.1637 0.0305
H7R H 0.6729 0.1637 -0.0305
C13D C 0.5369(4) -0.1244(3) -0.00427(6)
C13V C 0.4631(4) 0.1244(3) 0.00427(6)
C13R C 0.3387(3) -0.1244(3) -0.00427(6)
H8R H 0.2803 -0.1620 -0.0079
H8V H 0.4423 0.1620 0.0079
H8D H 0.5577 -0.1620 -0.0079
H9R H 0.3711 -0.1495 -0.0097
H9V H 0.5206 0.1495 0.0097
H9D H 0.4794 -0.1495 -0.0097
C14? C 0.6713(3) -0.2185(3) 0.27822(6)
H10? H 0.6450 -0.2666 0.2672
C15? C 0.7233(3) -0.1383(3) 0.26800(6)
C16? C 0.7617(3) -0.0693(3) 0.28395(6)
H11? H 0.7977 -0.0145 0.2769
C17? C 0.7482(3) -0.0790(3) 0.31012(6)
H12? H 0.7704 -0.0395 0.3207
C18? C 0.6963(3) -0.1585(3) 0.32035(6)
C19? C 0.6579(3) -0.2282(3) 0.30440(6)
C20? C 0.6059(3) -0.3076(3) 0.31463(6)
H13? H 0.6283 -0.3427 0.3095
H14? H 0.5519 -0.3299 0.3066
C21? C 0.5925(3) -0.3173(3) 0.34080(6)
H15? H 0.5554 -0.3756 0.3447
H16? H 0.6452 -0.2981 0.3494
loop_
_geom_bond_atom_site_label_1
_geom_bond_atom_site_label_2
_geom_bond_site_symmetry_1
_geom_bond_site_symmetry_2
Cu1 O1 1_555 1_555
O1 C1 1_555 1_555
O2 C1 1_555 1_555
O3 Cu1 1_555 1_555
C1 C5 1_555 1_555
C2 C4 1_555 1_555
C3 H1 1_555 1_555
C4 H2 1_555 1_555
C5 C3 1_555 1_555
C6 H3 1_555 1_555
C7 C2 1_555 1_555
C8 C7 1_555 1_555
H4 C8 1_555 1_555
C9 C8 1_555 1_555
H5 C9 1_555 1_555
C10 C9 1_555 1_555
C11 C6 1_555 1_555
C12 C11 1_555 1_555
H6 C12 1_555 1_555
H7 C12 1_555 1_555
C13 H5 1_555 1_555
H8 C13 1_555 1_555
H9 C13 1_555 1_555
Cu1B O1V 1_555 1_555
Cu1I O2 1_555 1_555
Cu1J O2V 1_555 1_555
Cu1D O1D 1_555 1_555
Cu1N O2D 1_555 1_555
Cu1C O1R 1_555 1_555
Cu1L O2R 1_555 1_555
O1V C1V 1_555 1_555
O1D C1D 1_555 1_555
O1R C1R 1_555 1_555
O1U Cu1 1_555 1_555
O1B Cu1B 1_555 1_555
O2V C1V 1_555 1_555
O2D C1D 1_555 1_555
O2R C1R 1_555 1_555
O2I Cu1 1_555 1_555
O2DA Cu1 1_555 1_555
O2FA Cu1B 1_555 1_555
O2J Cu1B 1_555 1_555
O3B Cu1B 1_555 1_555
C1V C5V 1_555 1_555
C1D C5D 1_555 1_555
C1R C5R 1_555 1_555
C2D C4D 1_555 1_555
C3D H1D 1_555 1_555
C4V C2 1_555 1_555
C4D H2D 1_555 1_555
C4R C2D 1_555 1_555
H2R C4R 1_555 1_555
H2V C4V 1_555 1_555
C5V C3 1_555 1_555
C5D C3D 1_555 1_555
C5R C3D 1_555 1_555
C6V C6 1_555 1_555
C6R C6D 1_555 1_555
C6D H3D 1_555 1_555
H3V C6V 1_555 1_555
H3R C6R 1_555 1_555
C7V C2 1_555 1_555
C7D C2D 1_555 1_555
C7R C2D 1_555 1_555
C8V C6 1_555 1_555
C8R C6D 1_555 1_555
C8D C6R 1_555 1_555
H4V C8V 1_555 1_555
H4R C8R 1_555 1_555
H4D C8D 1_555 1_555
C9V C10 1_555 1_555
C9R C8R 1_555 1_555
C9D C8D 1_555 1_555
H5D C9D 1_555 1_555
H5V C9V 1_555 1_555
H5R C9R 1_555 1_555
C10V C9 1_555 1_555
C10D C10 1_555 1_555
C10R C10 1_555 1_555
C11V C9 1_555 1_555
C11R C6R 1_555 1_555
C11D C6D 1_555 1_555
C12R C13 1_555 1_555
C12V C11V 1_555 1_555
C12D C11D 1_555 1_555
H6D C12D 1_555 1_555
H6V C12V 1_555 1_555
H6R C12R 1_555 1_555
H7D C12D 1_555 1_555
H7V C12V 1_555 1_555
H7R C12R 1_555 1_555
C13D H5D 1_555 1_555
C13V H5V 1_555 1_555
C13R C12 1_555 1_555
H8R C13R 1_555 1_555
H8V C13V 1_555 1_555
H8D C13D 1_555 1_555
H9R C13R 1_555 1_555
H9V C13V 1_555 1_555
H9D C13D 1_555 1_555
C4 C5 1_555 1_555
C6 C7 1_555 1_555
C6 C7V 1_555 1_555
C7 C6V 1_555 1_555
C7 C7V 1_555 1_555
C7 C8V 1_555 1_555
C8 C6V 1_555 1_555
C8 C7V 1_555 1_555
C10 C11 1_555 1_555
C10 C10V 1_555 1_555
C10 C11V 1_555 1_555
C11 C9V 1_555 1_555
C11 C10V 1_555 1_555
C11 C11V 1_555 1_555
C4V C5V 1_555 1_555
C4D C5D 1_555 1_555
C4R C5R 1_555 1_555
C6V C7V 1_555 1_555
C6V C11V 1_555 1_555
C6R C7D 1_555 1_555
C6R C7R 1_555 1_555
C6D C7D 1_555 1_555
C6D C7R 1_555 1_555
C7V C8V 1_555 1_555
C7D C7R 1_555 1_555
C7D C8R 1_555 1_555
C7D C8D 1_555 1_555
C7R C8R 1_555 1_555
C7R C8D 1_555 1_555
C8V C9V 1_555 1_555
C9V C10V 1_555 1_555
C9R C10D 1_555 1_555
C9R C10R 1_555 1_555
C9R C11D 1_555 1_555
C9D C10D 1_555 1_555
C9D C10R 1_555 1_555
C9D C11R 1_555 1_555
H5R C13R 1_555 1_555
C10V C10D 1_555 1_555
C10V C10R 1_555 1_555
C10V C11V 1_555 1_555
C10D C10R 1_555 1_555
C10D C11R 1_555 1_555
C10D C11D 1_555 1_555
C10R C11R 1_555 1_555
C10R C11D 1_555 1_555
C11R C11D 1_555 1_555
C11R C12R 1_555 1_555
C12V C13D 1_555 1_555
C12D C13V 1_555 1_555

#END
