
#######################################################################
#
#                 Cambridge Crystallographic Data Centre
#                                CCDC 
#
#######################################################################
#
# If this CIF has been generated from an entry in the Cambridge 
# Structural Database, then it will include bibliographic, chemical, 
# crystal, experimental, refinement or atomic coordinate data resulting 
# from the CCDC's data processing and validation procedures.
#
#######################################################################

data_KANMIX
_chemical_formula_moiety         '(C42 H24 Cu6 N6 O27)n,5n(H2 O1)'
_chemical_name_systematic        
'catena-(tris(\m~5~-3,5-Pyridinedicarboxylato)-tris(\m~4~-3,5-pyridinedicarboxylato)-triaqua-hexa-copper pentahydrate)'
_symmetry_cell_setting           hexagonal
_symmetry_space_group_name_H-M   'P 63 m c'
_symmetry_Int_Tables_number      186
_space_group_name_Hall           'P 6c -2c'
loop_
_symmetry_equiv_pos_site_id
_symmetry_equiv_pos_as_xyz
1 x,y,z
2 x-y,x,1/2+z
3 -y,x-y,z
4 -x,-y,1/2+z
5 -x+y,-x,z
6 y,-x+y,1/2+z
7 -x+y,y,z
8 y,x,1/2+z
9 x,x-y,z
10 x-y,-y,1/2+z
11 -y,-x,z
12 -x,-x+y,1/2+z
_cell_length_a                   18.9975(10)
_cell_length_b                   18.9975(10)
_cell_length_c                   13.4566(9)
_cell_angle_alpha                90
_cell_angle_beta                 90
_cell_angle_gamma                120
_cell_volume                     4205.9
_exptl_crystal_colour            turquoise
_exptl_crystal_description       block
_cell_formula_units_Z            2
_chemical_properties_physical    hygroscopic
loop_
_atom_site_label
_atom_site_type_symbol
_atom_site_fract_x
_atom_site_fract_y
_atom_site_fract_z
Cu1 Cu 0.37722(5) 0.18861(2) 0.26126(6)
Cu2 Cu 0.29268(5) 0.14634(2) 0.09340(6)
O1 O 0.4443(2) 0.1500(2) 0.1976(2)
O2 O 0.3711(2) 0.1122(2) 0.0573(2)
O3 O 0.2962(2) 0.0766(2) 0.2977(2)
O4 O 0.22420(19) 0.0398(2) 0.1566(2)
O5 O 0.4449(6) 0.2224(3) 0.3936(6)
N1 N 0.5065(6) 0.0131(13) -0.0514(11)
N2 N 0.1235(3) -0.12344(15) 0.4455(3)
C1 C 0.4592 0.0389 -0.0113
C2 C 0.4820(6) 0.0892(10) 0.0694(11)
C3 C 0.5562(10) 0.112(2) 0.1156(16)
C4 C 0.4285(2) 0.1195(3) 0.1118(3)
C5 C 0.1795(2) -0.0586(2) 0.3945(3)
C6 C 0.1734(2) -0.0465(2) 0.2941(2)
C7 C 0.1058(4) -0.1058(2) 0.2429(4)
C8 C 0.2362(2) 0.0290(2) 0.2449(3)
H1 H 0.4084 0.0218 -0.0394
H3 H 0.2249 -0.0197 0.4286
H4 H 0.1003 -0.1004 0.1751
H5 H 0.4224 0.2365 0.4346
H6 H 0.5686 0.1373 0.1790
Cu1B Cu 0.81139(2) 0.18861(5) 0.26126(6)
Cu1D Cu 0.81139(5) 0.62278(5) 0.26126(6)
Cu1D_2 Cu -0.18861(5) -0.37722(5) 0.26126(6)
Cu1B_2 Cu -0.18861(2) 0.18861(5) 0.26126(6)
Cu1A Cu 0.18861(5) 0.37722(5) -0.23874(6)
Cu1E Cu 0.18861(2) -0.18861(5) -0.23874(6)
Cu2B Cu 0.85366(2) 0.14634(5) 0.09340(6)
Cu2D Cu 0.85366(5) 0.70732(5) 0.09340(6)
Cu2E Cu 0.14634(2) -0.14634(5) 0.59340(6)
Cu2D_2 Cu -0.14634(5) -0.29268(5) 0.09340(6)
Cu2A Cu 0.14634(5) 0.29268(5) 0.59340(6)
Cu2B_2 Cu -0.14634(2) 0.14634(5) 0.09340(6)
Cu2A_2 Cu 0.14634(5) 0.29268(5) -0.40660(6)
Cu2E_2 Cu 0.14634(2) -0.14634(5) -0.40660(6)
O1F O 0.7057(3) 0.1500(2) 0.1976(2)
O1H O 0.4443(2) 0.2943(3) 0.1976(2)
O1D O 0.7057(3) 0.5557(2) 0.1976(2)
O1B O 0.8500(2) 0.2943(3) 0.1976(2)
O1J O 0.8500(2) 0.5557(2) 0.1976(2)
O2F O 0.7411(3) 0.1122(2) 0.0573(2)
O2H O 0.3711(2) 0.2589(3) 0.0573(2)
O2D O 0.7411(3) 0.6289(2) 0.0573(2)
O2B O 0.8878(2) 0.2589(3) 0.0573(2)
O2J O 0.8878(2) 0.6289(2) 0.0573(2)
O3J O -0.0766(2) -0.2962(2) 0.2977(2)
O3H O 0.2962(2) 0.2196(3) 0.2977(2)
O3B O -0.0766(2) 0.2196(3) 0.2977(2)
O3A O 0.2196(3) 0.2962(2) -0.2023(2)
O3I O 0.2196(3) -0.0766(2) -0.2023(2)
O3F O 0.7804(3) 0.0766(2) 0.2977(2)
O3B_2 O 0.9234(2) 0.2196(3) 0.2977(2)
O3D O 0.7804(3) 0.7038(2) 0.2977(2)
O3J_2 O 0.9234(2) 0.7038(2) 0.2977(2)
O4J O -0.0398(2) -0.22420(19) 0.1566(2)
O4H O 0.22420(19) 0.18440(28) 0.1566(2)
O4B O -0.0398(2) 0.18440(28) 0.1566(2)
O4A O 0.18440(28) 0.22420(19) -0.3434(2)
O4I O 0.18440(28) -0.0398(2) -0.3434(2)
O4F O 0.81560(28) 0.0398(2) 0.1566(2)
O4B_2 O 0.9602(2) 0.18440(28) 0.1566(2)
O4D O 0.81560(28) 0.77580(19) 0.1566(2)
O4J_2 O 0.9602(2) 0.77580(19) 0.1566(2)
O5F O 0.7775(7) 0.2224(3) 0.3936(6)
O5D O 0.7775(7) 0.5551(6) 0.3936(6)
N1H N 0.5065(6) 0.4934(14) -0.0514(11)
N1B N 0.9869(13) 0.4934(14) -0.0514(11)
N2H N 0.1235(3) 0.24694(34) 0.4455(3)
N2A N 0.24694(34) 0.1235(3) -0.0545(3)
N2G N 0.87656(15) 0.1235(3) -0.0545(3)
N2E N 0.87656(15) 0.75306(34) -0.0545(3)
C1F C 0.5797 0.0389 -0.0113
C1H C 0.4592 0.4203 -0.0113
C1D C 0.5797 0.5408 -0.0113
C1B C 0.9611 0.4203 -0.0113
C1J C 0.9611 0.5408 -0.0113
C2F C 0.6072(12) 0.0892(10) 0.0694(11)
C2H C 0.4820(6) 0.3928(12) 0.0694(11)
C2D C 0.6072(12) 0.5180(6) 0.0694(11)
C2B C 0.9108(10) 0.3928(12) 0.0694(11)
C2J C 0.9108(10) 0.5180(6) 0.0694(11)
C3H C 0.5562(10) 0.4442(22) 0.1156(16)
C3B C 0.888(2) 0.4442(22) 0.1156(16)
C4F C 0.6910(4) 0.1195(3) 0.1118(3)
C4H C 0.4285(2) 0.3090(4) 0.1118(3)
C4D C 0.6910(4) 0.5715(2) 0.1118(3)
C4B C 0.8805(3) 0.3090(4) 0.1118(3)
C4J C 0.8805(3) 0.5715(2) 0.1118(3)
C5J C 0.0586(2) -0.1795(2) 0.3945(3)
C5H C 0.1795(2) 0.2381(3) 0.3945(3)
C5B C 0.0586(2) 0.2381(3) 0.3945(3)
C5A C 0.2381(3) 0.1795(2) -0.1055(3)
C5I C 0.2381(3) 0.0586(2) -0.1055(3)
C6J C 0.0465(2) -0.1734(2) 0.2941(2)
C6H C 0.1734(2) 0.2199(3) 0.2941(2)
C6B C 0.0465(2) 0.2199(3) 0.2941(2)
C6A C 0.2199(3) 0.1734(2) -0.2059(2)
C6I C 0.2199(3) 0.0465(2) -0.2059(2)
C7B C 0.1058(2) 0.2116(4) 0.2429(4)
C7A C 0.2116(4) 0.1058(4) -0.2571(4)
C8J C -0.0290(2) -0.2362(2) 0.2449(3)
C8H C 0.2362(2) 0.2072(3) 0.2449(3)
C8B C -0.0290(2) 0.2072(3) 0.2449(3)
C8A C 0.2072(3) 0.2362(2) -0.2551(3)
C8I C 0.2072(3) -0.0290(2) -0.2551(3)
H1F H 0.6134 0.0218 -0.0394
H1H H 0.4084 0.3866 -0.0394
H1D H 0.6134 0.5916 -0.0394
H1B H 0.9782 0.3866 -0.0394
H1J H 0.9782 0.5916 -0.0394
H3J H 0.0197 -0.2249 0.4286
H3H H 0.2249 0.2446 0.4286
H3B H 0.0197 0.2446 0.4286
H3A H 0.2446 0.2249 -0.0714
H3I H 0.2446 0.0197 -0.0714
H4H H 0.1003 0.2007 0.1751
H4A H 0.2007 0.1003 -0.3249
H5H H 0.4224 0.1859 0.4346
H5F H 0.8141 0.2365 0.4346
H5B H 0.7635 0.1859 0.4346
H5D H 0.8141 0.5776 0.4346
H5J H 0.7635 0.5776 0.4346
H6H H 0.5686 0.4313 0.1790
H6B H 0.8627 0.4313 0.1790
O8 O 0.6667 0.3333 0.2604
O9 O 0.6667 0.3333 0.0156
O10 O 0.8524 0.4262 0.3665
O12 O 0.7163 0.2837 -0.0646
O6? O 0.0000 0.0000 0.5426(16)
O7? O 0.0000 0.0000 0.6476
O11? O 0.0823(17) 0.0411(8) 0.4972(17)
H2? H 0.5710 0.1420 0.1744
C9? C 0.4903(13) 0.105(2) 0.064(2)
C10? C 0.560(2) 0.119(4) 0.114(3)
C11? C 0.4761(11) 0.0742(18) -0.0308(19)
H7? H 0.4288 0.0638 -0.0638
N3? N 0.5295(11) 0.059(2) -0.076(2)
O13? O 0.0814 0.0407 0.3990
loop_
_geom_bond_atom_site_label_1
_geom_bond_atom_site_label_2
_geom_bond_site_symmetry_1
_geom_bond_site_symmetry_2
Cu1 Cu2 1_555 1_555
Cu2 O2 1_555 1_555
O1 Cu1 1_555 1_555
O2 C4 1_555 1_555
O3 Cu1 1_555 1_555
O4 Cu2 1_555 1_555
O5 Cu1 1_555 1_555
N1 C1 1_555 1_555
N2 C5 1_555 1_555
C1 C2 1_555 1_555
C2 C3 1_555 1_555
C3 H6 1_555 1_555
C4 O1 1_555 1_555
C5 C6 1_555 1_555
C6 C7 1_555 1_555
C7 H4 1_555 1_555
C8 O3 1_555 1_555
H1 C1 1_555 1_555
H3 C5 1_555 1_555
H5 O5 1_555 1_555
Cu1B Cu2B 1_555 1_555
Cu1D Cu2D 1_555 1_555
Cu1D_2 Cu2D_2 1_555 1_555
Cu1B_2 Cu2B_2 1_555 1_555
Cu1A Cu2A_2 1_555 1_555
Cu1E Cu2E_2 1_555 1_555
Cu2B O2F 1_555 1_555
Cu2D O2D 1_555 1_555
Cu2E N2 1_555 1_555
Cu2D_2 O4J 1_555 1_555
Cu2A N2H 1_555 1_555
Cu2B_2 O4B 1_555 1_555
Cu2A_2 O4A 1_555 1_555
Cu2E_2 O4I 1_555 1_555
O1F Cu1B 1_555 1_555
O1H Cu1 1_555 1_555
O1D Cu1D 1_555 1_555
O1B Cu1B 1_555 1_555
O1J Cu1D 1_555 1_555
O2F C4F 1_555 1_555
O2H Cu2 1_555 1_555
O2D C4D 1_555 1_555
O2B Cu2B 1_555 1_555
O2J Cu2D 1_555 1_555
O3J Cu1D_2 1_555 1_555
O3H Cu1 1_555 1_555
O3B Cu1B_2 1_555 1_555
O3A Cu1A 1_555 1_555
O3I Cu1E 1_555 1_555
O3F Cu1B 1_555 1_555
O3B_2 Cu1B 1_555 1_555
O3D Cu1D 1_555 1_555
O3J_2 Cu1D 1_555 1_555
O4J C8J 1_555 1_555
O4H Cu2 1_555 1_555
O4B C8B 1_555 1_555
O4A C8A 1_555 1_555
O4I C8I 1_555 1_555
O4F Cu2B 1_555 1_555
O4B_2 Cu2B 1_555 1_555
O4D Cu2D 1_555 1_555
O4J_2 Cu2D 1_555 1_555
O5F Cu1B 1_555 1_555
O5D Cu1D 1_555 1_555
N1H C1H 1_555 1_555
N1B C1B 1_555 1_555
N2H C5H 1_555 1_555
N2A Cu2 1_555 1_555
N2G Cu2B 1_555 1_555
N2E Cu2D 1_555 1_555
C1F N1 1_555 1_555
C1H C2H 1_555 1_555
C1D N1H 1_555 1_555
C1B C2B 1_555 1_555
C1J N1B 1_555 1_555
C2F C3 1_555 1_555
C2H C3H 1_555 1_555
C2D C1D 1_555 1_555
C2B C3B 1_555 1_555
C2J C1J 1_555 1_555
C3H C2D 1_555 1_555
C3B C2J 1_555 1_555
C4F O1F 1_555 1_555
C4H O1H 1_555 1_555
C4D O1D 1_555 1_555
C4B O1B 1_555 1_555
C4J O1J 1_555 1_555
C5J N2 1_555 1_555
C5H C6H 1_555 1_555
C5B N2H 1_555 1_555
C5A N2A 1_555 1_555
C5I N2A 1_555 1_555
C6J C7 1_555 1_555
C6H C7B 1_555 1_555
C6B C5B 1_555 1_555
C6A C5A 1_555 1_555
C6I C5I 1_555 1_555
C7B C6B 1_555 1_555
C7A C6A 1_555 1_555
C8J O3J 1_555 1_555
C8H O3H 1_555 1_555
C8B O3B 1_555 1_555
C8A O3A 1_555 1_555
C8I O3I 1_555 1_555
H1F C1F 1_555 1_555
H1H C1H 1_555 1_555
H1D C1D 1_555 1_555
H1B C1B 1_555 1_555
H1J C1J 1_555 1_555
H3J C5J 1_555 1_555
H3H C5H 1_555 1_555
H3B C5B 1_555 1_555
H3A C5A 1_555 1_555
H3I C5I 1_555 1_555
H4H C7B 1_555 1_555
H4A C7A 1_555 1_555
H5H O5 1_555 1_555
H5F O5F 1_555 1_555
H5B O5F 1_555 1_555
H5D O5D 1_555 1_555
H5J O5D 1_555 1_555
H6H C3H 1_555 1_555
H6B C3B 1_555 1_555
O4 C8 1_555 1_555
C2 C4 1_555 1_555
C6 C8 1_555 1_555
O2H C4H 1_555 1_555
O2B C4B 1_555 1_555
O2J C4J 1_555 1_555
O4H C8H 1_555 1_555
C1F C2F 1_555 1_555
C2F C4F 1_555 1_555
C2H C4H 1_555 1_555
C2D C4D 1_555 1_555
C2B C4B 1_555 1_555
C2J C4J 1_555 1_555
C5J C6J 1_555 1_555
C6J C8J 1_555 1_555
C6H C8H 1_555 1_555
C6B C8B 1_555 1_555
C6A C8A 1_555 1_555
C6I C7A 1_555 1_555
C6I C8I 1_555 1_555

#END
