
#######################################################################
#
#                 Cambridge Crystallographic Data Centre
#                                CCDC 
#
#######################################################################
#
# If this CIF has been generated from an entry in the Cambridge 
# Structural Database, then it will include bibliographic, chemical, 
# crystal, experimental, refinement or atomic coordinate data resulting 
# from the CCDC's data processing and validation procedures.
#
#######################################################################

data_HOHMEX
_chemical_formula_moiety         
'(C40 H24 Cu2 N2 O10)n,8n(C3 H7 N1 O1),6n(H2 O1)'
_chemical_name_systematic        
"catena-(bis(\m~4~-4,4'-carbonyldibenzoato)-(\m~2~-4,4'-bipyridine)-di-copper(ii) dimethylformamide solvate hexahydrate)"
_symmetry_cell_setting           tetragonal
_symmetry_space_group_name_H-M   'I 41/a m d'
_symmetry_Int_Tables_number      141
_space_group_name_Hall           '-I 4bd 2'
loop_
_symmetry_equiv_pos_site_id
_symmetry_equiv_pos_as_xyz
1 x,y,z
2 1/4+y,3/4+x,1/4-z
3 1/4+y,1/4-x,3/4+z
4 1/4-y,3/4+x,1/4+z
5 1/2+x,1/2+y,1/2+z
6 3/4+y,1/4+x,3/4-z
7 3/4+y,3/4-x,1/4+z
8 3/4-y,1/4+x,3/4+z
9 x,-y,-z
10 1/2-x,-y,1/2+z
11 1/2-x,y,1/2-z
12 1/4-y,1/4-x,3/4-z
13 1/2+x,1/2-y,1/2-z
14 -x,1/2-y,z
15 -x,1/2+y,-z
16 3/4-y,3/4-x,1/4-z
17 -x,-y,-z
18 3/4-y,1/4-x,3/4+z
19 3/4-y,3/4+x,1/4-z
20 3/4+y,1/4-x,3/4-z
21 1/2-x,1/2-y,1/2-z
22 1/4-y,3/4-x,1/4+z
23 1/4-y,1/4+x,3/4-z
24 1/4+y,3/4-x,1/4-z
25 -x,y,z
26 1/2+x,y,1/2-z
27 1/2+x,-y,1/2+z
28 3/4+y,3/4+x,1/4+z
29 1/2-x,1/2+y,1/2+z
30 x,1/2+y,-z
31 x,1/2-y,z
32 1/4+y,1/4+x,3/4+z
_cell_length_a                   27.9999(8)
_cell_length_b                   27.9999(8)
_cell_length_c                   43.9692(13)
_cell_angle_alpha                90
_cell_angle_beta                 90
_cell_angle_gamma                90
_cell_volume                     34471.6
_exptl_crystal_colour            blue
_exptl_crystal_description       octahedral
_cell_formula_units_Z            16
loop_
_atom_site_label
_atom_site_type_symbol
_atom_site_fract_x
_atom_site_fract_y
_atom_site_fract_z
_atom_site_U_iso_or_equiv
_atom_site_thermal_displace_type
C2 C 0.9708(3) 0.1516(3) 1.0229(3) 0.1283 Uani
C4 C 0.9677(3) 0.1986(3) 1.0215(7) 0.2520 Uani
C5 C 1.00000 0.22306(15) 1.01167(10) 0.0567 Uani
N1 N 1.00000 0.12364(13) 1.01085(10) 0.0590 Uani
O1 O 0.95143(8) 0.03326(9) 1.03580(5) 0.0808 Uani
O2 O 0.75131(19) -0.00131(19) 1.125 0.2047 Uani
C6 C 0.93465(14) -0.00897(15) 1.04035(9) 0.0707 Uani
C7 C 0.89666(13) -0.01409(13) 1.06288(9) 0.0737 Uani
C8 C 0.88061(15) -0.05831(15) 1.06963(10) 0.1010 Uani
H5 H 0.8949 -0.0847 1.0605 0.1210 Uiso
C9 C 0.84282(17) -0.06510(15) 1.09008(11) 0.1000 Uani
H6 H 0.8309 -0.0955 1.0939 0.1200 Uiso
C10 C 0.8244(2) -0.0271(2) 1.10391(13) 0.1323 Uani
C11 C 0.8416(2) 0.0188(2) 1.09997(14) 0.1587 Uani
H7 H 0.8293 0.0443 1.111 0.1910 Uiso
C12 C 0.87838(17) 0.02553(16) 1.07871(12) 0.1130 Uani
H8 H 0.8905 0.0559 1.0751 0.1360 Uiso
C13 C 0.7814(3) -0.0314(3) 1.125 0.2087 Uani
Cu1 Cu 1.00000 0.047082(19) 1.004718(13) 0.0617 Uani
O3 O 0.94958(8) -0.04453(9) 1.02709(6) 0.0811 Uani
C2X C 1.0292(3) 0.1516(3) 1.0229(3) 0.1283 Uani
C2DA C 0.9708(3) 0.3484(3) 1.0229(3) 0.1283 Uani
C2M C 1.0292(3) 0.3484(3) 1.0229(3) 0.1283 Uani
C4X C 1.0323(3) 0.1986(3) 1.0215(7) 0.2520 Uani
C4DA C 0.9677(3) 0.3014(3) 1.0215(7) 0.2520 Uani
C4M C 1.0323(3) 0.3014(3) 1.0215(7) 0.2520 Uani
C5DA C 1.00000 0.27694(15) 1.01167(10) 0.0567 Uani
N1DA N 1.00000 0.37636(13) 1.01085(10) 0.0590 Uani
O1O O 0.71674(9) -0.20143(8) 1.21420(5) 0.0808 Uani
O1X O 1.04857(8) 0.03326(9) 1.03580(5) 0.0808 Uani
O1W O 1.28326(9) -0.20143(8) 1.21420(5) 0.0808 Uani
O1DA O 0.95143(8) 0.46674(9) 1.03580(5) 0.0808 Uani
O1M O 1.04857(8) 0.46674(9) 1.03580(5) 0.0808 Uani
O2X O 1.24869(19) -0.00131(19) 1.125 0.2047 Uani
C6O C 0.75897(15) -0.18465(14) 1.20965(9) 0.0707 Uani
C6X C 1.06535(14) -0.00897(15) 1.04035(9) 0.0707 Uani
C6W C 1.24103(15) -0.18465(14) 1.20965(9) 0.0707 Uani
C7O C 0.76409(13) -0.14666(13) 1.18712(9) 0.0737 Uani
C7X C 1.10334(13) -0.01409(13) 1.06288(9) 0.0737 Uani
C7W C 1.23591(13) -0.14666(13) 1.18712(9) 0.0737 Uani
C8O C 0.80831(15) -0.13061(15) 1.18037(10) 0.1010 Uani
C8X C 1.11939(15) -0.05831(15) 1.06963(10) 0.1010 Uani
C8W C 1.19169(15) -0.13061(15) 1.18037(10) 0.1010 Uani
H5O H 0.8347 -0.1449 1.1895 0.1210 Uiso
H5X H 1.1051 -0.0847 1.0605 0.1210 Uiso
H5W H 1.1653 -0.1449 1.1895 0.1210 Uiso
C9O C 0.81510(15) -0.09282(17) 1.15992(11) 0.1000 Uani
C9X C 1.15718(17) -0.06510(15) 1.09008(11) 0.1000 Uani
C9W C 1.18490(15) -0.09282(17) 1.15992(11) 0.1000 Uani
H6O H 0.8455 -0.0809 1.1561 0.1200 Uiso
H6X H 1.1691 -0.0955 1.0939 0.1200 Uiso
H6W H 1.1545 -0.0809 1.1561 0.1200 Uiso
C10O C 0.7771(2) -0.0744(2) 1.14609(13) 0.1323 Uani
C10X C 1.1756(2) -0.0271(2) 1.10391(13) 0.1323 Uani
C10W C 1.2229(2) -0.0744(2) 1.14609(13) 0.1323 Uani
C11O C 0.7312(2) -0.0916(2) 1.15003(14) 0.1587 Uani
C11X C 1.1584(2) 0.0188(2) 1.09997(14) 0.1587 Uani
C11W C 1.2688(2) -0.0916(2) 1.15003(14) 0.1587 Uani
H7O H 0.7057 -0.0793 1.139 0.1910 Uiso
H7X H 1.1707 0.0443 1.111 0.1910 Uiso
H7W H 1.2943 -0.0793 1.139 0.1910 Uiso
C12O C 0.72447(16) -0.12838(17) 1.17129(12) 0.1130 Uani
C12X C 1.12162(17) 0.02553(16) 1.07871(12) 0.1130 Uani
C12W C 1.27553(16) -0.12838(17) 1.17129(12) 0.1130 Uani
H8O H 0.6941 -0.1405 1.1749 0.1360 Uiso
H8X H 1.1095 0.0559 1.0751 0.1360 Uiso
H8W H 1.3059 -0.1405 1.1749 0.1360 Uiso
C13X C 1.2186(3) -0.0314(3) 1.125 0.2087 Uani
Cu1DA Cu 1.00000 0.452918(19) 1.004718(13) 0.0617 Uani
Cu1P Cu 1.00000 -0.047082(19) 0.995282(13) 0.0617 Uani
Cu1R Cu 0.702918(19) -0.25000 1.245282(13) 0.0617 Uani
Cu1F Cu 0.797082(19) -0.25000 1.254718(13) 0.0617 Uani
Cu1A Cu 1.297082(19) -0.25000 1.245282(13) 0.0617 Uani
Cu1C Cu 1.202918(19) -0.25000 1.254718(13) 0.0617 Uani
O3O O 0.79453(9) -0.19958(8) 1.22291(6) 0.0811 Uani
O3X O 1.05042(8) -0.04453(9) 1.02709(6) 0.0811 Uani
O3W O 1.20547(9) -0.19958(8) 1.22291(6) 0.0811 Uani
O3P O 1.05042(8) 0.04453(9) 0.97291(6) 0.0811 Uani
O3H O 0.94958(8) 0.04453(9) 0.97291(6) 0.0811 Uani
O3CA O 0.94958(8) 0.45547(9) 0.97291(6) 0.0811 Uani
O3N O 1.05042(8) 0.45547(9) 0.97291(6) 0.0811 Uani
H3 H 0.9302 0.2149 0.9855 0.0850 Uiso
H1 H 0.9438 0.1367 0.9785 0.0960 Uiso
C1? C 0.9629(3) 0.1535(3) 0.9921(3) 0.0803 Uani
H2? H 0.9475 0.137 1.0347 0.1540 Uiso
C3? C 0.9563(9) 0.1986(7) 0.9936(5) 0.0710 Uani
H4? H 0.9399 0.2135 1.0283 0.3020 Uiso
loop_
_atom_site_aniso_label
_atom_site_aniso_U_11
_atom_site_aniso_U_22
_atom_site_aniso_U_33
_atom_site_aniso_U_23
_atom_site_aniso_U_13
_atom_site_aniso_U_12
C2 0.159(9) 0.076(7) 0.15 0.003(7) -0.003(8) -0.023(6)
C4 0.076(5) 0.08 0.60(4) 0.028(11) -0.016(10) 0.010(4)
C5 0.063(3) 0.039(2) 0.068(4) -0.002(2) 0 0
N1 0.094(3) 0.032(2) 0.051(3) 0.003(2) 0 0
O1 0.0859 0.0712 0.0853 0.0104 0.0069 -0.002
O2 0.207 0.207 0.2 0.049 0.049 0.012
C6 0.076 0.065 0.071 0.01 0.006 0.007
C7 0.075 0.054 0.092 0.005 0.023 0.001
C8 0.097 0.08 0.126 -0.007 0.041 0
C9 0.11 0.066 0.124 0.001 0.011 -0.005
C10 0.136 0.124 0.137 0.019 0.043 0.005
C11 0.178 0.133 0.165 0.001 0.069 0.019
C12 0.116 0.087 0.136 0.016 0.03 0.004
C13 0.213 0.213 0.2 -0.002 -0.002 0.049
Cu1 0.0669(4) 0.0466(4) 0.0717(5) 0.0070(3) 0 0
O3 0.0897 0.0646 0.089 0.0124 0.0085 0.0035
C2X 0.159 0.076 0.15 0.003 0.003 0.023
C2DA 0.159 0.076 0.15 -0.003 -0.003 0.023
C2M 0.159 0.076 0.15 -0.003 0.003 -0.023
C4X 0.076 0.08 0.6 0.028 0.016 -0.01
C4DA 0.076 0.08 0.6 -0.028 -0.016 -0.01
C4M 0.076 0.08 0.6 -0.028 0.016 0.01
C5DA 0.063 0.039 0.068 0.002 0 0
N1DA 0.094 0.032 0.051 -0.003 0 0
O1O 0.0712 0.0859 0.0853 0.0069 0.0104 -0.002
O1X 0.0859 0.0712 0.0853 0.0104 -0.0069 0.002
O1W 0.0712 0.0859 0.0853 0.0069 -0.0104 0.002
O1DA 0.0859 0.0712 0.0853 -0.0104 0.0069 0.002
O1M 0.0859 0.0712 0.0853 -0.0104 -0.0069 -0.002
O2X 0.207 0.207 0.2 0.049 -0.049 -0.012
C6O 0.065 0.076 0.071 0.006 0.01 0.007
C6X 0.076 0.065 0.071 0.01 -0.006 -0.007
C6W 0.065 0.076 0.071 0.006 -0.01 -0.007
C7O 0.054 0.075 0.092 0.023 0.005 0.001
C7X 0.075 0.054 0.092 0.005 -0.023 -0.001
C7W 0.054 0.075 0.092 0.023 -0.005 -0.001
C8O 0.08 0.097 0.126 0.041 -0.007 0
C8X 0.097 0.08 0.126 -0.007 -0.041 0
C8W 0.08 0.097 0.126 0.041 0.007 0
C9O 0.066 0.11 0.124 0.011 0.001 -0.005
C9X 0.11 0.066 0.124 0.001 -0.011 0.005
C9W 0.066 0.11 0.124 0.011 -0.001 0.005
C10O 0.124 0.136 0.137 0.043 0.019 0.005
C10X 0.136 0.124 0.137 0.019 -0.043 -0.005
C10W 0.124 0.136 0.137 0.043 -0.019 -0.005
C11O 0.133 0.178 0.165 0.069 0.001 0.019
C11X 0.178 0.133 0.165 0.001 -0.069 -0.019
C11W 0.133 0.178 0.165 0.069 -0.001 -0.019
C12O 0.087 0.116 0.136 0.03 0.016 0.004
C12X 0.116 0.087 0.136 0.016 -0.03 -0.004
C12W 0.087 0.116 0.136 0.03 -0.016 -0.004
C13X 0.213 0.213 0.2 -0.002 0.002 -0.049
Cu1DA 0.0669 0.0466 0.0717 -0.007 0 0
Cu1P 0.0669 0.0466 0.0717 0.007 0 0
Cu1R 0.0466 0.0669 0.0717 0 0.007 0
Cu1F 0.0466 0.0669 0.0717 0 0.007 0
Cu1A 0.0466 0.0669 0.0717 0 -0.007 0
Cu1C 0.0466 0.0669 0.0717 0 -0.007 0
O3O 0.0646 0.0897 0.089 0.0085 0.0124 0.0035
O3X 0.0897 0.0646 0.089 0.0124 -0.0085 -0.0035
O3W 0.0646 0.0897 0.089 0.0085 -0.0124 -0.0035
O3P 0.0897(19) 0.0646(17) 0.089(2) 0.0124(15) 0.0085(16) 0.0035(15)
O3H 0.0897 0.0646 0.089 0.0124 -0.0085 -0.0035
O3CA 0.0897 0.0646 0.089 -0.0124 -0.0085 0.0035
O3N 0.0897 0.0646 0.089 -0.0124 0.0085 -0.0035
C1? 0.059(5) 0.073(7) 0.109(11) -0.016(7) 0.000(5) -0.025(5)
C3? 0.08 0.053(11) 0.08(2) 0.010(10) -0.018(10) 0.033(9)
loop_
_geom_bond_atom_site_label_1
_geom_bond_atom_site_label_2
_geom_bond_site_symmetry_1
_geom_bond_site_symmetry_2
C2 C4 1_555 1_555
C4 C5 1_555 1_555
C5 C4X 1_555 1_555
N1 C2 1_555 1_555
O1 C6 1_555 1_555
O2 C13 1_555 1_555
C6 C7 1_555 1_555
C7 C8 1_555 1_555
C8 H5 1_555 1_555
C9 C8 1_555 1_555
H6 C9 1_555 1_555
C10 C9 1_555 1_555
C11 C10 1_555 1_555
H7 C11 1_555 1_555
C12 C7 1_555 1_555
H8 C12 1_555 1_555
C13 C10 1_555 1_555
Cu1 N1 1_555 1_555
O3 C6 1_555 1_555
C2X N1 1_555 1_555
C2DA C4DA 1_555 1_555
C2M C4M 1_555 1_555
C4X C2X 1_555 1_555
C4DA C5DA 1_555 1_555
C4M C5DA 1_555 1_555
C5DA C5 1_555 1_555
N1DA C2DA 1_555 1_555
O1O C6O 1_555 1_555
O1X Cu1 1_555 1_555
O1W C6W 1_555 1_555
O1DA Cu1DA 1_555 1_555
O1M Cu1DA 1_555 1_555
O2X C13X 1_555 1_555
C6O C7O 1_555 1_555
C6X O1X 1_555 1_555
C6W C7W 1_555 1_555
C7O C8O 1_555 1_555
C7X C6X 1_555 1_555
C7W C8W 1_555 1_555
C8O H5O 1_555 1_555
C8X C7X 1_555 1_555
C8W H5W 1_555 1_555
H5X C8X 1_555 1_555
C9O C8O 1_555 1_555
C9X C8X 1_555 1_555
C9W C8W 1_555 1_555
H6O C9O 1_555 1_555
H6X C9X 1_555 1_555
H6W C9W 1_555 1_555
C10O C13 1_555 1_555
C10X C9X 1_555 1_555
C10W C9W 1_555 1_555
C11O C10O 1_555 1_555
C11X C10X 1_555 1_555
C11W C10W 1_555 1_555
H7O C11O 1_555 1_555
H7X C11X 1_555 1_555
H7W C11W 1_555 1_555
C12O C7O 1_555 1_555
C12X C7X 1_555 1_555
C12W C7W 1_555 1_555
H8O C12O 1_555 1_555
H8X C12X 1_555 1_555
H8W C12W 1_555 1_555
C13X C10X 1_555 1_555
Cu1DA N1DA 1_555 1_555
Cu1P O3 1_555 1_555
Cu1R O1O 1_555 1_555
Cu1F O3O 1_555 1_555
Cu1A O1W 1_555 1_555
Cu1C O3W 1_555 1_555
O3O C6O 1_555 1_555
O3X C6X 1_555 1_555
O3W C6W 1_555 1_555
O3P Cu1 1_555 1_555
O3H Cu1 1_555 1_555
O3CA Cu1DA 1_555 1_555
O3N Cu1DA 1_555 1_555
O1 Cu1 1_555 1_555
C11 C12 1_555 1_555
C2M N1DA 1_555 1_555
C9O C10O 1_555 1_555
C10W C13X 1_555 1_555
C11O C12O 1_555 1_555
C11X C12X 1_555 1_555
C11W C12W 1_555 1_555
Cu1P O3X 1_555 1_555

#END
