
#######################################################################
#
#                 Cambridge Crystallographic Data Centre
#                                CCDC 
#
#######################################################################
#
# If this CIF has been generated from an entry in the Cambridge 
# Structural Database, then it will include bibliographic, chemical, 
# crystal, experimental, refinement or atomic coordinate data resulting 
# from the CCDC's data processing and validation procedures.
#
#######################################################################

data_HOFSUS
_chemical_formula_moiety         '(C14 H14 N4 O5 Zn1)n'
_chemical_name_systematic        
catena-((\m~3~-4-Carboxy-5-carboxylato-2-(4-pyridyl)imidazolato)-dimethylacetamide-zinc)
_symmetry_cell_setting           orthorhombic
_symmetry_space_group_name_H-M   'P 21 21 21'
_symmetry_Int_Tables_number      19
_space_group_name_Hall           'P 2ac 2ab'
loop_
_symmetry_equiv_pos_site_id
_symmetry_equiv_pos_as_xyz
1 x,y,z
2 1/2-x,-y,1/2+z
3 -x,1/2+y,1/2-z
4 1/2+x,1/2-y,-z
_cell_length_a                   8.902(2)
_cell_length_b                   11.887(3)
_cell_length_c                   14.757(4)
_cell_angle_alpha                90
_cell_angle_beta                 90
_cell_angle_gamma                90
_cell_volume                     1561.56
_cell_formula_units_Z            4
loop_
_atom_site_label
_atom_site_type_symbol
_atom_site_fract_x
_atom_site_fract_y
_atom_site_fract_z
_atom_site_U_iso_or_equiv
_atom_site_thermal_displace_type
O1 O 0.7535(2) 0.26376(18) 0.30066(14) 0.0267 Uani
C1 C 0.6849(4) 0.1835(2) 0.33402(18) 0.0255 Uani
N1 N 0.6226(3) 0.5021(2) 0.77791(17) 0.0271 Uani
C2 C 0.6041(4) 0.3905(3) 0.7899(2) 0.0313 Uani
H1 H 0.6036 0.3622 0.8487 0.0380 Uiso
C3 C 0.6202(4) 0.5393(3) 0.6913(2) 0.0295 Uani
H2 H 0.6321 0.6159 0.6811 0.0360 Uiso
C4 C 0.6227(4) 0.1966(2) 0.42687(19) 0.0217 Uani
C5 C 0.6013(4) 0.4706(2) 0.6182(2) 0.0288 Uani
H3 H 0.5981 0.5008 0.5601 0.0350 Uiso
Zn1 Zn 0.29642(4) 0.10087(3) 0.61256(2) 0.0216 Uani
O2 O 0.3664(3) -0.01949(18) 0.51193(14) 0.0269 Uani
N2 N 0.4995(3) 0.1798(2) 0.55729(15) 0.0201 Uani
O3 O 0.4922(3) -0.03092(18) 0.38229(17) 0.0381 Uani
H4 H 0.5242 0.0150 0.3456 0.0570 Uiso
C6 C 0.5869(3) 0.3547(3) 0.63084(18) 0.0224 Uani
C7 C -0.0319(3) -0.0059(3) 0.6186(2) 0.0290 Uani
C8 C 0.5770(3) 0.2763(2) 0.55345(19) 0.0207 Uani
O4 O 0.6617(3) 0.0905(2) 0.29418(16) 0.0439 Uani
C9 C 0.5272(3) 0.1290(2) 0.47693(19) 0.0201 Uani
C10 C 0.4579(4) 0.0199(2) 0.45697(19) 0.0232 Uani
C11 C 0.5859(4) 0.3161(3) 0.7186(2) 0.0289 Uani
H5 H 0.5730 0.2397 0.7301 0.0350 Uiso
N3 N 0.6565(3) 0.2910(2) 0.47625(16) 0.0216 Uani
N4 N -0.0961(4) -0.0982(3) 0.5862(2) 0.0467 Uani
C12 C -0.1305(5) 0.0929(4) 0.6414(3) 0.0543 Uani
H6 H -0.0747 0.1459 0.6772 0.0820 Uiso
H7 H -0.2162 0.0675 0.6752 0.0820 Uiso
H8 H -0.1635 0.1285 0.5865 0.0820 Uiso
C13 C -0.2577(6) -0.1142(6) 0.5795(5) 0.0817 Uani
H9 H -0.2904 -0.1650 0.6260 0.1220 Uiso
H10 H -0.2819 -0.1450 0.5211 0.1220 Uiso
H11 H -0.3074 -0.0431 0.5868 0.1220 Uiso
C14 C -0.0039(7) -0.1961(4) 0.5695(5) 0.0897 Uani
H12 H 0.0959 -0.1727 0.5535 0.1340 Uiso
H13 H -0.0462 -0.2391 0.5206 0.1340 Uiso
H14 H -0.0001 -0.2417 0.6231 0.1340 Uiso
O5 O 0.1038(3) -0.0017(2) 0.62998(19) 0.0446 Uani
O1C O 0.2535(2) 0.23624(18) 0.69934(14) 0.0267 Uani
N1B N 0.3774(3) 0.0021(2) 0.72209(17) 0.0271 Uani
Zn1B Zn 0.70358(4) 0.60087(3) 0.88744(2) 0.0216 Uani
Zn1C Zn 0.79642(4) 0.39913(3) 0.38744(2) 0.0216 Uani
N3C N 0.1565(3) 0.2090(2) 0.52375(16) 0.0216 Uani
loop_
_atom_site_aniso_label
_atom_site_aniso_U_11
_atom_site_aniso_U_22
_atom_site_aniso_U_33
_atom_site_aniso_U_23
_atom_site_aniso_U_13
_atom_site_aniso_U_12
O1 0.0340(12) 0.0265(11) 0.0195(10) 0.0000(8) 0.0045(8) -0.0072(9)
C1 0.0343(17) 0.0271(15) 0.0152(13) -0.0023(11) 0.0041(12) -0.0019(14)
N1 0.0364(15) 0.0231(13) 0.0218(13) -0.0056(10) 0.0040(11) -0.0033(12)
C2 0.0486(18) 0.0271(16) 0.0182(13) -0.0001(12) 0.0021(13) -0.0082(16)
C3 0.047(2) 0.0193(15) 0.0223(15) -0.0004(12) -0.0002(14) -0.0013(14)
C4 0.0333(15) 0.0140(13) 0.0177(13) -0.0013(10) 0.0017(11) -0.0030(12)
C5 0.0442(18) 0.0207(14) 0.0216(14) 0.0001(13) 0.0031(14) -0.0016(13)
Zn1 0.02686(18) 0.01901(17) 0.01883(17) 0.00303(13) 0.00038(13) 0.00190(13)
O2 0.0401(13) 0.0196(10) 0.0211(10) 0.0000(8) 0.0043(10) -0.0063(9)
N2 0.0223(12) 0.0184(12) 0.0196(12) -0.0022(9) 0.0016(9) -0.0018(10)
O3 0.0603(16) 0.0234(11) 0.0306(12) -0.0088(11) 0.0136(12) -0.0156(11)
C6 0.0261(15) 0.0224(14) 0.0187(14) -0.0042(11) 0.0009(11) -0.0042(11)
C7 0.0259(15) 0.0322(17) 0.0290(15) 0.0111(14) 0.0006(14) -0.0014(13)
C8 0.0252(15) 0.0170(13) 0.0198(14) -0.0007(11) -0.0002(11) 0.0013(11)
O4 0.0739(18) 0.0310(12) 0.0269(11) -0.0137(10) 0.0212(11) -0.0164(13)
C9 0.0241(13) 0.0178(14) 0.0185(12) -0.0007(10) 0.0000(11) 0.0010(11)
C10 0.0303(15) 0.0176(14) 0.0216(14) 0.0002(11) 0.0001(12) -0.0023(12)
C11 0.0429(19) 0.0196(14) 0.0243(15) -0.0018(12) -0.0016(13) -0.0077(14)
N3 0.0306(13) 0.0173(11) 0.0168(10) -0.0023(9) 0.0013(9) -0.0015(9)
N4 0.0554(19) 0.0385(17) 0.0461(18) -0.0020(14) -0.0029(15) -0.0079(17)
C12 0.060(2) 0.035(2) 0.068(3) 0.0130(19) 0.016(2) 0.011(2)
C13 0.049(3) 0.088(4) 0.108(4) 0.018(3) -0.035(3) -0.032(3)
C14 0.079(4) 0.042(3) 0.148(6) -0.017(3) 0.020(4) 0.002(3)
O5 0.0367(14) 0.0351(14) 0.0620(18) 0.0195(12) -0.0011(13) -0.0037(11)
O1C 0.034 0.0265 0.0195 0 -0.0045 0.0072
N1B 0.0364 0.0231 0.0218 0.0056 0.004 0.0033
Zn1B 0.02686 0.01901 0.01883 -0.00303 0.00038 -0.0019
Zn1C 0.02686 0.01901 0.01883 0.00303 -0.00038 -0.0019
N3C 0.0306 0.0173 0.0168 -0.0023 -0.0013 0.0015
loop_
_geom_bond_atom_site_label_1
_geom_bond_atom_site_label_2
_geom_bond_site_symmetry_1
_geom_bond_site_symmetry_2
O1 C1 1_555 1_555
C1 C4 1_555 1_555
N1 C2 1_555 1_555
C2 H1 1_555 1_555
C3 N1 1_555 1_555
H2 C3 1_555 1_555
C4 C9 1_555 1_555
C5 C3 1_555 1_555
H3 C5 1_555 1_555
Zn1 O2 1_555 1_555
O2 C10 1_555 1_555
N2 Zn1 1_555 1_555
O3 H4 1_555 1_555
C6 C5 1_555 1_555
C7 N4 1_555 1_555
C8 N2 1_555 1_555
O4 C1 1_555 1_555
C9 N2 1_555 1_555
C10 O3 1_555 1_555
C11 C2 1_555 1_555
H5 C11 1_555 1_555
N3 C4 1_555 1_555
N4 C13 1_555 1_555
C12 C7 1_555 1_555
H6 C12 1_555 1_555
H7 C12 1_555 1_555
H8 C12 1_555 1_555
C13 H9 1_555 1_555
H10 C13 1_555 1_555
H11 C13 1_555 1_555
C14 N4 1_555 1_555
H12 C14 1_555 1_555
H13 C14 1_555 1_555
H14 C14 1_555 1_555
O5 Zn1 1_555 1_555
O1C Zn1 1_555 1_555
N1B Zn1 1_555 1_555
Zn1B N1 1_555 1_555
Zn1C O1 1_555 1_555
N3C Zn1 1_555 1_555
C6 C8 1_555 1_555
C6 C11 1_555 1_555
C7 O5 1_555 1_555
C8 N3 1_555 1_555
C9 C10 1_555 1_555
N3 Zn1C 1_555 1_555

#END
