
#######################################################################
#
#                 Cambridge Crystallographic Data Centre
#                                CCDC 
#
#######################################################################
#
# If this CIF has been generated from an entry in the Cambridge 
# Structural Database, then it will include bibliographic, chemical, 
# crystal, experimental, refinement or atomic coordinate data resulting 
# from the CCDC's data processing and validation procedures.
#
#######################################################################

data_ECOWUQ
_chemical_formula_moiety         '(C42 H27 N3 O6 Zn2)n'
_chemical_name_systematic        
catena-((\m~6~-4',4'',4'''-Nitrilotribiphenyl-4-carboxylato)-(imidazol-1,2-diyl)-di-zinc)
_symmetry_cell_setting           monoclinic
_symmetry_space_group_name_H-M   'C 2/c'
_symmetry_Int_Tables_number      15
_space_group_name_Hall           '-C 2yc'
loop_
_symmetry_equiv_pos_site_id
_symmetry_equiv_pos_as_xyz
1 x,y,z
2 -x,y,1/2-z
3 1/2+x,1/2+y,z
4 1/2-x,1/2+y,1/2-z
5 -x,-y,-z
6 x,-y,1/2+z
7 1/2-x,1/2-y,-z
8 1/2+x,1/2-y,1/2+z
_cell_length_a                   21.253(2)
_cell_length_b                   37.539(3)
_cell_length_c                   9.3861(14)
_cell_angle_alpha                90
_cell_angle_beta                 93.753(11)
_cell_angle_gamma                90
_cell_volume                     7472.33
_exptl_crystal_colour            yellow
_exptl_crystal_description       prism
_cell_formula_units_Z            4
loop_
_atom_site_label
_atom_site_type_symbol
_atom_site_fract_x
_atom_site_fract_y
_atom_site_fract_z
Zn1 Zn -0.501874(17) -0.736385(9) -0.07028(4)
O1 O -0.56163(13) -0.77010(7) -0.1590(3)
C1 C -0.5000 -0.73392(11) 0.2500
C2 C -0.88750(16) -0.89837(9) -0.1874(4)
H1 H -0.8881 -0.9193 -0.1346
C3 C -0.94245(15) -0.88603(8) -0.2576(4)
C4 C -0.59575(17) -0.76916(9) -0.2749(5)
C5 C -0.95968(16) -0.96166(8) -0.3302(4)
H2 H -0.9322 -0.9494 -0.3859
C6 C -0.95927(17) -0.99838(8) -0.3294(4)
H3 H -0.9309 -1.0104 -0.3835
O2 O -0.58374(12) -0.75206(7) -0.3820(3)
C7 C -0.93922(16) -0.85490(8) -0.3366(4)
H4 H -0.9755 -0.8461 -0.3851
C8 C -0.65496(16) -0.79035(9) -0.2772(4)
C9 C -1.0000 -1.01783(11) -0.2500
N1 N -1.0000 -0.90483(9) -0.2500
O3 O -1.01165(12) -1.18771(6) -0.1365(3)
C10 C -0.76807(16) -0.82892(9) -0.2774(4)
C11 C -0.66653(19) -0.81342(11) -0.1700(5)
H5 H -0.6361 -0.8163 -0.0951
C12 C -0.83261(16) -0.88005(9) -0.1949(4)
H6 H -0.7965 -0.8888 -0.1457
C13 C -1.0000 -1.13276(11) -0.2500
C14 C -1.0000 -0.94290(11) -0.2500
C15 C -1.0286(2) -1.11375(9) -0.1454(4)
H7 H -1.0476 -1.1259 -0.0733
C16 C -1.0000 -1.05762(12) -0.2500
C17 C -0.82835(16) -0.84898(9) -0.2724(4)
C18 C -0.75615(19) -0.80612(11) -0.3862(5)
H8 H -0.7863 -0.8033 -0.4617
C19 C -0.88364(17) -0.83708(9) -0.3439(5)
H9 H -0.8827 -0.8164 -0.3983
C20 C -0.70022(18) -0.78706(10) -0.3868(5)
H10 H -0.6935 -0.7719 -0.4625
C21 C -0.72103(19) -0.83246(11) -0.1686(5)
H11 H -0.7268 -0.8481 -0.0937
C22 C -1.02917(19) -1.07673(8) -0.1470(4)
H12 H -1.0496 -1.0645 -0.0772
C23 C -1.0000 -1.17203(12) -0.2500
C24 C -0.5755(4) -0.7581(3) 0.1672(10)
N2 N -0.5204(3) -0.74215(18) 0.1259(6)
C25 C -0.5758(5) -0.7580(3) 0.3087(10)
N3 N -0.4816(3) -0.74323(17) 0.1409(7)
Zn1A Zn -1.498126(17) -0.736385(9) -0.42972(4)
Zn1A_2 Zn -0.498126(17) -0.736385(9) -0.42972(4)
Zn1B Zn -1.001874(17) -1.236385(9) -0.07028(4)
Zn1_2 Zn -1.501874(17) -0.736385(9) -0.07028(4)
Zn1C Zn -0.998126(17) -1.236385(9) -0.42972(4)
Zn1A_3 Zn -0.498126(17) -0.736385(9) 0.57028(4)
O1A O -1.43837(13) -0.77010(7) -0.3410(3)
C2A C -1.11250(16) -0.89837(9) -0.3126(4)
H1A H -1.1119 -0.9193 -0.3654
C3A C -1.05755(15) -0.88603(8) -0.2424(4)
C4A C -1.40425(17) -0.76916(9) -0.2251(5)
C5A C -1.04032(16) -0.96166(8) -0.1698(4)
H2A H -1.0678 -0.9494 -0.1141
C6A C -1.04073(17) -0.99838(8) -0.1706(4)
H3A H -1.0691 -1.0104 -0.1165
O2A O -1.41626(12) -0.75206(7) -0.1180(3)
O2A_2 O -0.41626(12) -0.75206(7) -0.1180(3)
O2_2 O -1.58374(12) -0.75206(7) -0.3820(3)
C7A C -1.06078(16) -0.85490(8) -0.1634(4)
H4A H -1.0245 -0.8461 -0.1149
C8A C -1.34504(16) -0.79035(9) -0.2228(4)
O3A O -0.98835(12) -1.18771(6) -0.3635(3)
O3B O -0.51165(12) -0.68771(6) -0.1365(3)
O3C O -1.48835(12) -0.68771(6) -0.3635(3)
C10A C -1.23193(16) -0.82892(9) -0.2226(4)
C11A C -1.33347(19) -0.81342(11) -0.3300(5)
H5A H -1.3639 -0.8163 -0.4049
C12A C -1.16739(16) -0.88005(9) -0.3051(4)
H6A H -1.2035 -0.8888 -0.3543
C15A C -0.9714(2) -1.11375(9) -0.3546(4)
H7A H -0.9524 -1.1259 -0.4267
C17A C -1.17165(16) -0.84898(9) -0.2276(4)
C18A C -1.24385(19) -0.80612(11) -0.1138(5)
H8A H -1.2137 -0.8033 -0.0383
C19A C -1.11636(17) -0.83708(9) -0.1561(5)
H9A H -1.1173 -0.8164 -0.1017
C20A C -1.29978(18) -0.78706(10) -0.1132(5)
H10A H -1.3065 -0.7719 -0.0375
C21A C -1.27897(19) -0.83246(11) -0.3314(5)
H11A H -1.2732 -0.8481 -0.4063
C22A C -0.97083(19) -1.07673(8) -0.3530(4)
H12A H -0.9504 -1.0645 -0.4228
C24A C -0.4245(4) -0.7581(3) 0.3328(10)
N2A N -0.4796(3) -0.74215(18) 0.3741(6)
N2A_2 N -1.4796(3) -0.74215(18) -0.6259(6)
C25A C -0.4242(5) -0.7580(3) 0.1913(10)
N3A N -0.5184(3) -0.74323(17) 0.3591(7)
N3A_2 N -1.5184(3) -0.74323(17) -0.6409(7)
loop_
_geom_bond_atom_site_label_1
_geom_bond_atom_site_label_2
_geom_bond_site_symmetry_1
_geom_bond_site_symmetry_2
Zn1 O1 1_555 1_555
O1 C4 1_555 1_555
C1 N2 1_555 1_555
C2 H1 1_555 1_555
C3 C2 1_555 1_555
C4 O2 1_555 1_555
C5 H2 1_555 1_555
C6 C5 1_555 1_555
H3 C6 1_555 1_555
O2 Zn1A_2 1_555 1_555
C7 C3 1_555 1_555
H4 C7 1_555 1_555
C8 C4 1_555 1_555
C9 C6 1_555 1_555
N1 C3 1_555 1_555
O3 C23 1_555 1_555
C10 C17 1_555 1_555
C11 C8 1_555 1_555
H5 C11 1_555 1_555
C12 C2 1_555 1_555
H6 C12 1_555 1_555
C13 C15 1_555 1_555
C14 C5 1_555 1_555
C15 H7 1_555 1_555
C16 C9 1_555 1_555
C17 C12 1_555 1_555
C18 C10 1_555 1_555
H8 C18 1_555 1_555
C19 C7 1_555 1_555
H9 C19 1_555 1_555
C20 C8 1_555 1_555
H10 C20 1_555 1_555
C21 C10 1_555 1_555
H11 C21 1_555 1_555
C22 C15 1_555 1_555
H12 C22 1_555 1_555
C23 C13 1_555 1_555
C24 N2 1_555 1_555
N2 Zn1 1_555 1_555
C25 C24 1_555 1_555
N3 Zn1 1_555 1_555
Zn1A O1A 1_555 1_555
Zn1B O3 1_555 1_555
Zn1_2 O2A 1_555 1_555
Zn1C O3A 1_555 1_555
Zn1A_3 N2A 1_555 1_555
O1A C4A 1_555 1_555
C2A H1A 1_555 1_555
C3A N1 1_555 1_555
C4A O2A 1_555 1_555
C5A C14 1_555 1_555
H2A C5A 1_555 1_555
C6A C9 1_555 1_555
H3A C6A 1_555 1_555
O2A_2 Zn1 1_555 1_555
O2_2 Zn1A 1_555 1_555
C7A C3A 1_555 1_555
H4A C7A 1_555 1_555
C8A C4A 1_555 1_555
O3A C23 1_555 1_555
O3B Zn1 1_555 1_555
O3C Zn1A 1_555 1_555
C10A C17A 1_555 1_555
C11A C8A 1_555 1_555
H5A C11A 1_555 1_555
C12A C2A 1_555 1_555
H6A C12A 1_555 1_555
C15A C13 1_555 1_555
H7A C15A 1_555 1_555
C17A C12A 1_555 1_555
C18A C10A 1_555 1_555
H8A C18A 1_555 1_555
C19A C7A 1_555 1_555
H9A C19A 1_555 1_555
C20A C8A 1_555 1_555
H10A C20A 1_555 1_555
C21A C10A 1_555 1_555
H11A C21A 1_555 1_555
C22A C16 1_555 1_555
H12A C22A 1_555 1_555
C24A N2A 1_555 1_555
N2A C1 1_555 1_555
N2A_2 Zn1A 1_555 1_555
C25A N3 1_555 1_555
N3A C1 1_555 1_555
N3A_2 Zn1A 1_555 1_555
C1 N3 1_555 1_555
N1 C14 1_555 1_555
C11 C21 1_555 1_555
C16 C22 1_555 1_555
C17 C19 1_555 1_555
C18 C20 1_555 1_555
N2 N3 1_555 1_555
C25 N3A 1_555 1_555
Zn1A_3 N3A 1_555 1_555
C2A C3A 1_555 1_555
C5A C6A 1_555 1_555
C11A C21A 1_555 1_555
C15A C22A 1_555 1_555
C17A C19A 1_555 1_555
C18A C20A 1_555 1_555
C24A C25A 1_555 1_555
N2A N3A 1_555 1_555
N2A_2 N3A_2 1_555 1_555

#END
