
#######################################################################
#
#                 Cambridge Crystallographic Data Centre
#                                CCDC 
#
#######################################################################
#
# If this CIF has been generated from an entry in the Cambridge 
# Structural Database, then it will include bibliographic, chemical, 
# crystal, experimental, refinement or atomic coordinate data resulting 
# from the CCDC's data processing and validation procedures.
#
#######################################################################

data_YUZBIG
_chemical_name_common            'MAF-49 hemihydrate'
_chemical_formula_moiety         '(C5 H6 N8 Zn1)n,0.5n(H2 O1)'
_chemical_name_systematic        
"catena-[(\m-3,3'-methylenebis(5-amino-1,2,4-triazolato))-zinc hemihydrate]"
_symmetry_cell_setting           trigonal
_symmetry_space_group_name_H-M   'P 31 2 1'
_symmetry_Int_Tables_number      152
_space_group_name_Hall           'P 31 2"'
loop_
_symmetry_equiv_pos_site_id
_symmetry_equiv_pos_as_xyz
1 x,y,z
2 -y,x-y,1/3+z
3 -x+y,-x,2/3+z
4 y,x,-z
5 -x,-x+y,1/3-z
6 x-y,-y,2/3-z
_cell_length_a                   9.6767(14)
_cell_length_b                   9.6767(14)
_cell_length_c                   20.172(3)
_cell_angle_alpha                90
_cell_angle_beta                 90
_cell_angle_gamma                120
_cell_volume                     1635.81
_exptl_crystal_colour            colorless
_exptl_crystal_description       Block
_cell_formula_units_Z            6
loop_
_atom_site_label
_atom_site_type_symbol
_atom_site_fract_x
_atom_site_fract_y
_atom_site_fract_z
Zn1 Zn -0.06485(6) 0.50554(6) 0.41626(2)
N1 N 0.3477(4) 0.8311(4) 0.51312(16)
N2 N 0.4075(4) 0.8144(5) 0.45271(17)
N3 N 0.1413(4) 0.6825(4) 0.44879(17)
N4 N 0.0865(4) 0.7456(4) 0.55654(17)
H1 H -0.0108 0.6508 0.5629
H2 H 0.1196 0.7910 0.5971
N5 N 0.2161(6) 0.4211(4) 0.28851(17)
N6 N 0.0310(7) 0.4281(5) 0.34960(17)
N7 N -0.0388(7) 0.2748(5) 0.32264(19)
N8 N 0.0610(8) 0.1515(6) 0.2492(2)
H3 H -0.0438 0.0665 0.2464
H4 H 0.0909 0.1637 0.2066
C1 C 0.1887(5) 0.7512(5) 0.50880(19)
C2 C 0.2812(5) 0.7254(5) 0.4172(2)
C3 C 0.2926(5) 0.6795(6) 0.3458(2)
H5 H 0.2728 0.7483 0.3156
H6 H 0.4028 0.7017 0.3377
C4 C 0.1793(8) 0.5092(6) 0.32891(19)
C5 C 0.0772(8) 0.2800(5) 0.2856(2)
Zn1C Zn 0.50554(6) 0.93515(6) 0.58374(2)
Zn1E Zn 0.42961(8) 0.49446(6) 0.25041(2)
N1C N -0.1689(4) 0.3477(4) 0.48688(16)
N5E N -0.2050(7) 0.5789(4) 0.37816(17)
O1 O 0.193(3) 1.0000 0.3333
H7 H 0.1308 0.9646 0.3727
H7E H 0.1662 1.0354 0.2940
O2 O 0.198(5) 0.860(5) 0.218(2)
H8 H 0.1465 0.8591 0.2579
H9 H 0.1394 0.7964 0.1810
O3 O 0.0000 0.545(7) 0.1667
H10 H 0.0932 0.5616 0.1544
H10D H -0.0932 0.4684 0.1789
loop_
_geom_bond_atom_site_label_1
_geom_bond_atom_site_label_2
_geom_bond_site_symmetry_1
_geom_bond_site_symmetry_2
Zn1 N3 1_555 1_555
N1 N2 1_555 1_555
N2 C2 1_555 1_555
N3 C1 1_555 1_555
N4 H1 1_555 1_555
H2 N4 1_555 1_555
N5 C4 1_555 1_555
N6 Zn1 1_555 1_555
N7 N6 1_555 1_555
N8 H3 1_555 1_555
H4 N8 1_555 1_555
C1 N1 1_555 1_555
C2 N3 1_555 1_555
C3 C2 1_555 1_555
H5 C3 1_555 1_555
H6 C3 1_555 1_555
C4 N6 1_555 1_555
C5 N5 1_555 1_555
O1 H7 1_555 1_555
O2 H8 1_555 1_555
H9 O2 1_555 1_555
O3 H10 1_555 1_555
Zn1C N1 1_555 1_555
Zn1E N5 1_555 1_555
N1C Zn1 1_555 1_555
N5E Zn1 1_555 1_555
H7E O1 1_555 1_555
H10D O3 1_555 1_555
N4 C1 1_555 1_555
N7 C5 1_555 1_555
N8 C5 1_555 1_555
C3 C4 1_555 1_555

#END
