
#######################################################################
#
#                 Cambridge Crystallographic Data Centre
#                                CCDC 
#
#######################################################################
#
# If this CIF has been generated from an entry in the Cambridge 
# Structural Database, then it will include bibliographic, chemical, 
# crystal, experimental, refinement or atomic coordinate data resulting 
# from the CCDC's data processing and validation procedures.
#
#######################################################################

data_GIKMOD07
_chemical_formula_moiety         '(C16 H12 Cu4 O18 S2)n,4n(H2 O1)'
_chemical_name_systematic        
'catena-(bis(\m~6~-5-sulfonatobenzene-1,3-dicarboxylato)-bis(\m~3~-hydroxo)-diaqua-tetra-copper(ii) tetrahydrate)'
_symmetry_cell_setting           monoclinic
_symmetry_space_group_name_H-M   'P 21/n'
_symmetry_Int_Tables_number      14
_space_group_name_Hall           '-P 2yn'
loop_
_symmetry_equiv_pos_site_id
_symmetry_equiv_pos_as_xyz
1 x,y,z
2 1/2-x,1/2+y,1/2-z
3 -x,-y,-z
4 1/2+x,1/2-y,1/2+z
_cell_length_a                   7.355(4)
_cell_length_b                   18.215(9)
_cell_length_c                   10.152(5)
_cell_angle_alpha                90
_cell_angle_beta                 94.502(6)
_cell_angle_gamma                90
_cell_volume                     1355.88
_exptl_crystal_colour            blue
_exptl_crystal_description       block
_cell_formula_units_Z            2
loop_
_atom_site_label
_atom_site_type_symbol
_atom_site_fract_x
_atom_site_fract_y
_atom_site_fract_z
Cu1 Cu 0.13343(5) 0.093357(19) 0.78233(3)
Cu2 Cu -0.04923(5) 0.068478(18) 1.06565(3)
S1 S 0.11542(10) 0.43386(4) 1.30646(7)
O1 O 0.0466(3) 0.16771(11) 1.0844(2)
O2 O 0.1312(3) 0.03516(11) 0.94523(19)
O3 O 0.3390(3) 0.51109(12) 0.8351(2)
O4 O 0.1153(3) 0.18521(12) 0.8738(2)
O5 O 0.1128(4) 0.51284(15) 1.2943(3)
O6 O 0.3008(4) 0.40967(12) 0.7069(2)
O7 O 0.2778(4) 0.40586(16) 1.3811(3)
O8 O -0.0487(3) 0.40326(15) 1.3576(2)
C1 C 0.1312(4) 0.39512(15) 1.1483(3)
C2 C 0.2221(4) 0.40357(15) 0.9265(3)
C3 C 0.1896(4) 0.32843(15) 0.9111(3)
H1 H 0.2108 0.3058 0.8316
C4 C 0.1259(4) 0.28681(15) 1.0131(3)
C5 C 0.0929(4) 0.20663(15) 0.9892(3)
C6 C 0.0950(4) 0.32021(15) 1.1325(3)
H2 H 0.0510 0.2931 1.2008
C7 C 0.1924(4) 0.43709(15) 1.0468(3)
H3 H 0.2135 0.4871 1.0586
C8 C 0.2926(4) 0.44509(16) 0.8145(3)
O9 O 0.1122(4) 0.15241(13) 0.6201(2)
Cu1B Cu -0.13343(5) -0.093357(19) 1.21767(3)
Cu1A Cu 0.36657(5) -0.406643(19) 0.71767(3)
Cu1A_2 Cu 0.36657(5) 0.593357(19) 0.71767(3)
Cu1C Cu -0.36657(5) -0.593357(19) 1.28233(3)
Cu1C_2 Cu -0.36657(5) 0.406643(19) 1.28233(3)
Cu2B Cu 0.04923(5) -0.068478(18) 0.93435(3)
Cu2A Cu -0.45077(5) -0.431522(18) 0.43435(3)
Cu2A_2 Cu -0.45077(5) -0.431522(18) 1.43435(3)
Cu2C Cu 0.45077(5) 0.431522(18) 0.56565(3)
Cu2C_2 Cu 0.45077(5) 0.431522(18) 1.56565(3)
S1B S -0.11542(10) -0.43386(4) 0.69354(7)
O1B O -0.0466(3) -0.16771(11) 0.9156(2)
O2B O -0.1312(3) -0.03516(11) 1.05477(19)
O3B O -0.3390(3) -0.51109(12) 1.1649(2)
O3A O 0.1610(3) 0.01109(12) 0.6649(2)
O3C O -0.1610(3) -0.01109(12) 1.3351(2)
O4B O -0.1153(3) -0.18521(12) 1.1262(2)
O5B O -0.1128(4) -0.51284(15) 0.7057(3)
O6B O -0.3008(4) -0.40967(12) 1.2931(2)
O6A O 0.1992(4) -0.09033(12) 0.7931(2)
O6C O -0.1992(4) 0.09033(12) 1.2069(2)
O7B O -0.2778(4) -0.40586(16) 0.6189(3)
O7A O 0.2222(4) -0.09414(16) 1.1189(3)
O7C O -0.2222(4) 0.09414(16) 0.8811(3)
O8B O 0.0487(3) -0.40326(15) 0.6424(2)
O8A O -0.4513(3) -0.09674(15) 1.1424(2)
O8C O 0.4513(3) 0.09674(15) 0.8576(2)
C1B C -0.1312(4) -0.39512(15) 0.8517(3)
C2B C -0.2221(4) -0.40357(15) 1.0735(3)
C3B C -0.1896(4) -0.32843(15) 1.0889(3)
H1B H -0.2108 -0.3058 1.1684
C4B C -0.1259(4) -0.28681(15) 0.9869(3)
C5B C -0.0929(4) -0.20663(15) 1.0108(3)
C6B C -0.0950(4) -0.32021(15) 0.8675(3)
H2B H -0.0510 -0.2931 0.7992
C7B C -0.1924(4) -0.43709(15) 0.9532(3)
H3B H -0.2135 -0.4871 0.9414
C8B C -0.2926(4) -0.44509(16) 1.1855(3)
O9B O -0.1122(4) -0.15241(13) 1.3799(2)
O10 O 0.0385(5) 0.29967(17) 0.5834(3)
O11 O 0.2080(5) 0.1276(2) 0.3603(3)
loop_
_geom_bond_atom_site_label_1
_geom_bond_atom_site_label_2
_geom_bond_site_symmetry_1
_geom_bond_site_symmetry_2
Cu1 O2 1_555 1_555
Cu2 O1 1_555 1_555
S1 O5 1_555 1_555
O1 C5 1_555 1_555
O2 Cu2 1_555 1_555
O3 C8 1_555 1_555
O4 Cu1 1_555 1_555
O6 C8 1_555 1_555
O7 S1 1_555 1_555
O8 S1 1_555 1_555
C1 S1 1_555 1_555
C2 C3 1_555 1_555
C3 H1 1_555 1_555
C4 C3 1_555 1_555
C5 O4 1_555 1_555
C6 C1 1_555 1_555
H2 C6 1_555 1_555
C7 C1 1_555 1_555
H3 C7 1_555 1_555
C8 C2 1_555 1_555
O9 Cu1 1_555 1_555
Cu1B O2B 1_555 1_555
Cu1A O8B 1_555 1_555
Cu1A_2 O3 1_555 1_555
Cu1C O3B 1_555 1_555
Cu1C_2 O8 1_555 1_555
Cu2B O2 1_555 1_555
Cu2A O7B 1_555 1_555
Cu2A_2 O6B 1_555 1_555
Cu2C O6 1_555 1_555
Cu2C_2 O7 1_555 1_555
S1B O5B 1_555 1_555
O1B Cu2B 1_555 1_555
O2B Cu2 1_555 1_555
O3B C8B 1_555 1_555
O3A Cu1 1_555 1_555
O3C Cu1B 1_555 1_555
O4B Cu1B 1_555 1_555
O6B C8B 1_555 1_555
O6A Cu2B 1_555 1_555
O6C Cu2 1_555 1_555
O7B S1B 1_555 1_555
O7A Cu2B 1_555 1_555
O7C Cu2 1_555 1_555
O8B S1B 1_555 1_555
O8A Cu1B 1_555 1_555
O8C Cu1 1_555 1_555
C1B S1B 1_555 1_555
C2B C3B 1_555 1_555
C3B H1B 1_555 1_555
C4B C3B 1_555 1_555
C5B O1B 1_555 1_555
C6B C1B 1_555 1_555
H2B C6B 1_555 1_555
C7B C1B 1_555 1_555
H3B C7B 1_555 1_555
C8B C2B 1_555 1_555
O9B Cu1B 1_555 1_555
C2 C7 1_555 1_555
C4 C5 1_555 1_555
C4 C6 1_555 1_555
Cu2B O2B 1_555 1_555
O4B C5B 1_555 1_555
C2B C7B 1_555 1_555
C4B C5B 1_555 1_555
C4B C6B 1_555 1_555

#END
