
#######################################################################
#
#                 Cambridge Crystallographic Data Centre
#                                CCDC 
#
#######################################################################
#
# If this CIF has been generated from an entry in the Cambridge 
# Structural Database, then it will include bibliographic, chemical, 
# crystal, experimental, refinement or atomic coordinate data resulting 
# from the CCDC's data processing and validation procedures.
#
#######################################################################

data_GIKMOD05
_chemical_formula_moiety         '(C16 H12 Cu4 O18 S2)n,4n(H2 O1)'
_chemical_name_systematic        
'catena-(bis(\m~6~-5-sulfonatobenzene-1,3-dicarboxylato)-bis(\m~3~-hydroxo)-diaqua-tetra-copper(ii) tetrahydrate)'
_symmetry_cell_setting           monoclinic
_symmetry_space_group_name_H-M   'P 21/n'
_symmetry_Int_Tables_number      14
_space_group_name_Hall           '-P 2yn'
loop_
_symmetry_equiv_pos_site_id
_symmetry_equiv_pos_as_xyz
1 x,y,z
2 1/2-x,1/2+y,1/2-z
3 -x,-y,-z
4 1/2+x,1/2-y,1/2+z
_cell_length_a                   7.310(5)
_cell_length_b                   18.280(11)
_cell_length_c                   10.145(6)
_cell_angle_alpha                90
_cell_angle_beta                 94.645(8)
_cell_angle_gamma                90
_cell_volume                     1351.19
_exptl_crystal_colour            blue
_exptl_crystal_description       block
_cell_formula_units_Z            2
loop_
_atom_site_label
_atom_site_type_symbol
_atom_site_fract_x
_atom_site_fract_y
_atom_site_fract_z
Cu1 Cu 0.13354(5) 0.093130(18) 0.78250(3)
Cu2 Cu -0.04992(4) 0.068483(17) 1.06520(3)
S1 S 0.11509(9) 0.43380(4) 1.30567(7)
O1 O 0.0455(3) 0.16753(11) 1.08433(19)
O2 O 0.1314(3) 0.03503(10) 0.94584(18)
O3 O 0.3384(3) 0.51044(11) 0.8343(2)
O4 O 0.1159(3) 0.18504(11) 0.8739(2)
O5 O 0.1116(4) 0.51262(14) 1.2934(3)
O6 O 0.2997(3) 0.40950(11) 0.7064(2)
O7 O 0.2791(3) 0.40622(15) 1.3799(3)
O8 O -0.0486(3) 0.40307(13) 1.3572(2)
C1 C 0.1298(4) 0.39509(14) 1.1470(3)
C2 C 0.2202(4) 0.40307(14) 0.9252(3)
C3 C 0.1886(4) 0.32826(14) 0.9107(3)
H1 H 0.2106 0.3056 0.8313
C4 C 0.1250(4) 0.28665(14) 1.0122(3)
C5 C 0.0928(4) 0.20668(14) 0.9892(2)
C6 C 0.0943(4) 0.32012(14) 1.1322(3)
H2 H 0.0511 0.2931 1.2010
C7 C 0.1911(4) 0.43694(14) 1.0459(3)
H3 H 0.2127 0.4867 1.0576
C8 C 0.2911(4) 0.44494(15) 0.8135(3)
O9 O 0.1113(4) 0.15205(13) 0.6201(2)
Cu1B Cu -0.13354(5) -0.093130(18) 1.21750(3)
Cu1A Cu 0.36646(5) -0.406870(18) 0.71750(3)
Cu1A_2 Cu 0.36646(5) 0.593130(18) 0.71750(3)
Cu1C Cu -0.36646(5) -0.593130(18) 1.28250(3)
Cu1C_2 Cu -0.36646(5) 0.406870(18) 1.28250(3)
Cu2B Cu 0.04992(4) -0.068483(17) 0.93480(3)
Cu2A Cu -0.45008(4) -0.431517(17) 0.43480(3)
Cu2A_2 Cu -0.45008(4) -0.431517(17) 1.43480(3)
Cu2C Cu 0.45008(4) 0.431517(17) 0.56520(3)
Cu2C_2 Cu 0.45008(4) 0.431517(17) 1.56520(3)
S1B S -0.11509(9) -0.43380(4) 0.69433(7)
O1B O -0.0455(3) -0.16753(11) 0.91567(19)
O2B O -0.1314(3) -0.03503(10) 1.05416(18)
O3B O -0.3384(3) -0.51044(11) 1.1657(2)
O3A O 0.1616(3) 0.01044(11) 0.6657(2)
O3C O -0.1616(3) -0.01044(11) 1.3343(2)
O4B O -0.1159(3) -0.18504(11) 1.1261(2)
O5B O -0.1116(4) -0.51262(14) 0.7066(3)
O6B O -0.2997(3) -0.40950(11) 1.2936(2)
O6A O 0.2003(3) -0.09050(11) 0.7936(2)
O6C O -0.2003(3) 0.09050(11) 1.2064(2)
O7B O -0.2791(3) -0.40622(15) 0.6201(3)
O7A O 0.2209(3) -0.09378(15) 1.1201(3)
O7C O -0.2209(3) 0.09378(15) 0.8799(3)
O8B O 0.0486(3) -0.40307(13) 0.6428(2)
O8A O -0.4514(3) -0.09693(13) 1.1428(2)
O8C O 0.4514(3) 0.09693(13) 0.8572(2)
C1B C -0.1298(4) -0.39509(14) 0.8530(3)
C2B C -0.2202(4) -0.40307(14) 1.0748(3)
C3B C -0.1886(4) -0.32826(14) 1.0893(3)
H1B H -0.2106 -0.3056 1.1687
C4B C -0.1250(4) -0.28665(14) 0.9878(3)
C5B C -0.0928(4) -0.20668(14) 1.0108(2)
C6B C -0.0943(4) -0.32012(14) 0.8678(3)
H2B H -0.0511 -0.2931 0.7990
C7B C -0.1911(4) -0.43694(14) 0.9541(3)
H3B H -0.2127 -0.4867 0.9424
C8B C -0.2911(4) -0.44494(15) 1.1865(3)
O9B O -0.1113(4) -0.15205(13) 1.3799(2)
O10 O 0.0388(5) 0.29870(16) 0.5824(3)
O11 O 0.2057(5) 0.1270(2) 0.3595(3)
loop_
_geom_bond_atom_site_label_1
_geom_bond_atom_site_label_2
_geom_bond_site_symmetry_1
_geom_bond_site_symmetry_2
Cu1 O2 1_555 1_555
Cu2 O1 1_555 1_555
S1 O5 1_555 1_555
O1 C5 1_555 1_555
O2 Cu2 1_555 1_555
O3 C8 1_555 1_555
O4 Cu1 1_555 1_555
O6 C8 1_555 1_555
O7 S1 1_555 1_555
O8 S1 1_555 1_555
C1 S1 1_555 1_555
C2 C3 1_555 1_555
C3 H1 1_555 1_555
C4 C3 1_555 1_555
C5 O4 1_555 1_555
C6 C1 1_555 1_555
H2 C6 1_555 1_555
C7 C1 1_555 1_555
H3 C7 1_555 1_555
C8 C2 1_555 1_555
O9 Cu1 1_555 1_555
Cu1B O2B 1_555 1_555
Cu1A O8B 1_555 1_555
Cu1A_2 O3 1_555 1_555
Cu1C O3B 1_555 1_555
Cu1C_2 O8 1_555 1_555
Cu2B O2 1_555 1_555
Cu2A O7B 1_555 1_555
Cu2A_2 O6B 1_555 1_555
Cu2C O6 1_555 1_555
Cu2C_2 O7 1_555 1_555
S1B O5B 1_555 1_555
O1B Cu2B 1_555 1_555
O2B Cu2 1_555 1_555
O3B C8B 1_555 1_555
O3A Cu1 1_555 1_555
O3C Cu1B 1_555 1_555
O4B Cu1B 1_555 1_555
O6B C8B 1_555 1_555
O6A Cu2B 1_555 1_555
O6C Cu2 1_555 1_555
O7B S1B 1_555 1_555
O7A Cu2B 1_555 1_555
O7C Cu2 1_555 1_555
O8B S1B 1_555 1_555
O8A Cu1B 1_555 1_555
O8C Cu1 1_555 1_555
C1B S1B 1_555 1_555
C2B C3B 1_555 1_555
C3B H1B 1_555 1_555
C4B C3B 1_555 1_555
C5B O1B 1_555 1_555
C6B C1B 1_555 1_555
H2B C6B 1_555 1_555
C7B C1B 1_555 1_555
H3B C7B 1_555 1_555
C8B C2B 1_555 1_555
O9B Cu1B 1_555 1_555
C2 C7 1_555 1_555
C4 C5 1_555 1_555
C4 C6 1_555 1_555
Cu2B O2B 1_555 1_555
O4B C5B 1_555 1_555
C2B C7B 1_555 1_555
C4B C5B 1_555 1_555
C4B C6B 1_555 1_555

#END
