
#######################################################################
#
#                 Cambridge Crystallographic Data Centre
#                                CCDC 
#
#######################################################################
#
# If this CIF has been generated from an entry in the Cambridge 
# Structural Database, then it will include bibliographic, chemical, 
# crystal, experimental, refinement or atomic coordinate data resulting 
# from the CCDC's data processing and validation procedures.
#
#######################################################################

data_LUSZIJ01
_chemical_formula_moiety         '(C16 H12 Cu4 O18 S2)n,3.16n(H2 O1)'
_chemical_name_systematic        
'catena-(bis(\m~6~-5-sulfonatobenzene-1,3-dicarboxylato)-bis(\m~3~-hydroxo)-diaqua-tetra-copper(ii) hydrate)'
_symmetry_cell_setting           monoclinic
_symmetry_space_group_name_H-M   'P 21/n'
_symmetry_Int_Tables_number      14
_space_group_name_Hall           '-P 2yn'
loop_
_symmetry_equiv_pos_site_id
_symmetry_equiv_pos_as_xyz
1 x,y,z
2 1/2-x,1/2+y,1/2-z
3 -x,-y,-z
4 1/2+x,1/2-y,1/2+z
_cell_length_a                   7.315(7)
_cell_length_b                   18.168(15)
_cell_length_c                   10.219(9)
_cell_angle_alpha                90
_cell_angle_beta                 94.163(15)
_cell_angle_gamma                90
_cell_volume                     1354.51
_exptl_crystal_colour            blue
_exptl_crystal_description       block
_cell_formula_units_Z            2
loop_
_atom_site_label
_atom_site_type_symbol
_atom_site_fract_x
_atom_site_fract_y
_atom_site_fract_z
Cu1 Cu 0.13548(15) 0.09467(5) 0.78444(8)
Cu2 Cu -0.03853(16) 0.06843(4) 1.07042(8)
S1 S 0.1242(3) 0.43513(11) 1.30937(18)
O1 O 0.0577(9) 0.1676(3) 1.0852(5)
O2 O 0.1319(7) 0.0345(2) 0.9419(4)
O3 O 0.3425(9) 0.5141(3) 0.8374(5)
O4 O 0.1233(10) 0.1863(3) 0.8759(5)
O5 O 0.1431(14) 0.5132(4) 1.3003(7)
O6 O 0.3250(11) 0.4106(3) 0.7183(6)
O7 O 0.2742(11) 0.4009(4) 1.3890(7)
O8 O -0.0513(10) 0.4092(5) 1.3536(7)
C1 C 0.1434(12) 0.3957(4) 1.1503(7)
C2 C 0.2332(13) 0.4048(4) 0.9324(7)
C3 C 0.1990(13) 0.3303(4) 0.9153(7)
H1 H 0.2181 0.3085 0.8350
C4 C 0.1370(13) 0.2876(4) 1.0155(7)
C5 C 0.1012(12) 0.2075(4) 0.9919(7)
C6 C 0.1084(13) 0.3209(4) 1.1340(7)
H2 H 0.0660 0.2934 1.2024
C7 C 0.2058(12) 0.4392(4) 1.0505(7)
H3 H 0.2281 0.4892 1.0627
C8 C 0.3073(12) 0.4475(4) 0.8216(7)
O9 O 0.1193(10) 0.1560(3) 0.6238(5)
Cu1B Cu -0.13548(15) -0.09467(5) 1.21556(8)
Cu1A Cu 0.36452(15) -0.40533(5) 0.71556(8)
Cu1A_2 Cu 0.36452(15) 0.59467(5) 0.71556(8)
Cu1C Cu -0.36452(15) -0.59467(5) 1.28444(8)
Cu1C_2 Cu -0.36452(15) 0.40533(5) 1.28444(8)
Cu2B Cu 0.03853(16) -0.06843(4) 0.92958(8)
Cu2A Cu -0.46147(16) -0.43157(4) 0.42958(8)
Cu2A_2 Cu -0.46147(16) -0.43157(4) 1.42958(8)
Cu2C Cu 0.46147(16) 0.43157(4) 0.57042(8)
Cu2C_2 Cu 0.46147(16) 0.43157(4) 1.57042(8)
S1B S -0.1242(3) -0.43513(11) 0.69063(18)
O1B O -0.0577(9) -0.1676(3) 0.9148(5)
O2B O -0.1319(7) -0.0345(2) 1.0581(4)
O3B O -0.3425(9) -0.5141(3) 1.1626(5)
O3A O 0.1575(9) 0.0141(3) 0.6626(5)
O3C O -0.1575(9) -0.0141(3) 1.3374(5)
O4B O -0.1233(10) -0.1863(3) 1.1241(5)
O5B O -0.1431(14) -0.5132(4) 0.6997(7)
O6B O -0.3250(11) -0.4106(3) 1.2817(6)
O6A O 0.1750(11) -0.0894(3) 0.7817(6)
O6C O -0.1750(11) 0.0894(3) 1.2183(6)
O7B O -0.2742(11) -0.4009(4) 0.6110(7)
O7A O 0.2258(11) -0.0991(4) 1.1110(7)
O7C O -0.2258(11) 0.0991(4) 0.8890(7)
O8B O 0.0513(10) -0.4092(5) 0.6464(7)
O8A O -0.4487(10) -0.0908(5) 1.1464(7)
O8C O 0.4487(10) 0.0908(5) 0.8536(7)
C1B C -0.1434(12) -0.3957(4) 0.8497(7)
C2B C -0.2332(13) -0.4048(4) 1.0676(7)
C3B C -0.1990(13) -0.3303(4) 1.0847(7)
H1B H -0.2181 -0.3085 1.1650
C4B C -0.1370(13) -0.2876(4) 0.9845(7)
C5B C -0.1012(12) -0.2075(4) 1.0081(7)
C6B C -0.1084(13) -0.3209(4) 0.8660(7)
H2B H -0.0660 -0.2934 0.7976
C7B C -0.2058(12) -0.4392(4) 0.9495(7)
H3B H -0.2281 -0.4892 0.9373
C8B C -0.3073(12) -0.4475(4) 1.1784(7)
O9B O -0.1193(10) -0.1560(3) 1.3762(5)
O10 O 0.0388(17) 0.3010(5) 0.5855(10)
O11 O 0.210(2) 0.1358(12) 0.3680(14)
loop_
_geom_bond_atom_site_label_1
_geom_bond_atom_site_label_2
_geom_bond_site_symmetry_1
_geom_bond_site_symmetry_2
Cu1 O2 1_555 1_555
Cu2 O1 1_555 1_555
S1 O5 1_555 1_555
O1 C5 1_555 1_555
O2 Cu2 1_555 1_555
O3 C8 1_555 1_555
O4 Cu1 1_555 1_555
O6 C8 1_555 1_555
O7 S1 1_555 1_555
O8 S1 1_555 1_555
C1 S1 1_555 1_555
C2 C3 1_555 1_555
C3 H1 1_555 1_555
C4 C3 1_555 1_555
C5 O4 1_555 1_555
C6 C1 1_555 1_555
H2 C6 1_555 1_555
C7 C1 1_555 1_555
H3 C7 1_555 1_555
C8 C2 1_555 1_555
O9 Cu1 1_555 1_555
Cu1B O2B 1_555 1_555
Cu1A O8B 1_555 1_555
Cu1A_2 O3 1_555 1_555
Cu1C O3B 1_555 1_555
Cu1C_2 O8 1_555 1_555
Cu2B O2 1_555 1_555
Cu2A O7B 1_555 1_555
Cu2A_2 O6B 1_555 1_555
Cu2C O6 1_555 1_555
Cu2C_2 O7 1_555 1_555
S1B O5B 1_555 1_555
O1B Cu2B 1_555 1_555
O2B Cu2 1_555 1_555
O3B C8B 1_555 1_555
O3A Cu1 1_555 1_555
O3C Cu1B 1_555 1_555
O4B Cu1B 1_555 1_555
O6B C8B 1_555 1_555
O6A Cu2B 1_555 1_555
O6C Cu2 1_555 1_555
O7B S1B 1_555 1_555
O7A Cu2B 1_555 1_555
O7C Cu2 1_555 1_555
O8B S1B 1_555 1_555
O8A Cu1B 1_555 1_555
O8C Cu1 1_555 1_555
C1B S1B 1_555 1_555
C2B C3B 1_555 1_555
C3B H1B 1_555 1_555
C4B C3B 1_555 1_555
C5B O1B 1_555 1_555
C6B C1B 1_555 1_555
H2B C6B 1_555 1_555
C7B C1B 1_555 1_555
H3B C7B 1_555 1_555
C8B C2B 1_555 1_555
O9B Cu1B 1_555 1_555
C2 C7 1_555 1_555
C4 C5 1_555 1_555
C4 C6 1_555 1_555
Cu2B O2B 1_555 1_555
O4B C5B 1_555 1_555
C2B C7B 1_555 1_555
C4B C5B 1_555 1_555
C4B C6B 1_555 1_555

#END
