
#######################################################################
#
#                 Cambridge Crystallographic Data Centre
#                                CCDC 
#
#######################################################################
#
# If this CIF has been generated from an entry in the Cambridge 
# Structural Database, then it will include bibliographic, chemical, 
# crystal, experimental, refinement or atomic coordinate data resulting 
# from the CCDC's data processing and validation procedures.
#
#######################################################################

data_ZUJKAS
_chemical_formula_moiety         '(C60 H44 N2 O8 Zn2)n'
_chemical_name_systematic        
"catena-(bis(\m~4~-2',5'-Dimethyl-1,1':4',1''-terphenyl-4,4''-dicarboxylato)-(\m~2~-4,4'-(1,4-phenylene)dipyridine)-di-zinc unknown solvate)"
_symmetry_cell_setting           monoclinic
_symmetry_space_group_name_H-M   'P 21/c'
_symmetry_Int_Tables_number      14
_space_group_name_Hall           '-P 2ybc'
loop_
_symmetry_equiv_pos_site_id
_symmetry_equiv_pos_as_xyz
1 x,y,z
2 -x,1/2+y,1/2-z
3 -x,-y,-z
4 x,1/2-y,1/2+z
_cell_length_a                   18.261(5)
_cell_length_b                   20.045(5)
_cell_length_c                   33.017(5)
_cell_angle_alpha                90
_cell_angle_beta                 100.124(5)
_cell_angle_gamma                90
_cell_volume                     11897.4
_exptl_crystal_colour            colorless
_exptl_crystal_description       block
_cell_formula_units_Z            6
loop_
_atom_site_label
_atom_site_type_symbol
_atom_site_fract_x
_atom_site_fract_y
_atom_site_fract_z
Zn1 Zn 0.081736(16) 0.497079(12) 0.507729(8)
O1 O -0.07338(12) 0.44122(9) 0.44485(5)
O2 O 0.05076(12) 0.43613(10) 0.45832(6)
O3 O 0.06301(11) 0.07628(9) 0.04646(6)
O4 O -0.06039(12) 0.07440(9) 0.03289(6)
N1 N 0.19223(13) 0.49427(10) 0.50854(7)
C1 C -0.01136(18) 0.42453(13) 0.43641(8)
C2 C -0.01202(16) 0.38945(13) 0.39658(8)
C3 C -0.07490(18) 0.38884(14) 0.36663(8)
H1 H -0.1180 0.4094 0.3717
C4 C -0.07507(17) 0.35812(14) 0.32908(8)
H2 H -0.1180 0.3590 0.3092
C5 C -0.01286(17) 0.32635(13) 0.32073(8)
C6 C 0.05073(18) 0.32566(14) 0.35137(9)
H3 H 0.0932 0.3036 0.3466
C7 C 0.05145(18) 0.35727(15) 0.38876(9)
H4 H 0.0944 0.3570 0.4086
C8 C -0.01218(16) 0.29448(13) 0.28003(8)
C9 C -0.02616(16) 0.33378(12) 0.24466(8)
H5 H -0.0363 0.3789 0.2472
C10 C 0.00167(16) 0.22602(13) 0.27684(8)
C11 C 0.01335(18) 0.17885(14) 0.31360(8)
H6 H 0.0224 0.1346 0.3045
H7 H -0.0303 0.1788 0.3261
H8 H 0.0553 0.1935 0.3333
C12 C -0.02539(16) 0.30721(13) 0.20541(8)
C13 C -0.03937(18) 0.35214(13) 0.16871(8)
H9 H -0.0486 0.3966 0.1773
H10 H 0.0034 0.3522 0.1554
H11 H -0.0819 0.3365 0.1498
C14 C -0.01040(16) 0.23949(12) 0.20226(8)
C15 C 0.00287(16) 0.20061(13) 0.23747(8)
H12 H 0.0130 0.1555 0.2348
C16 C -0.00728(16) 0.20637(12) 0.16262(8)
C17 C -0.07070(16) 0.19768(13) 0.13344(8)
H13 H -0.1154 0.2160 0.1379
C18 C -0.06874(17) 0.16180(13) 0.09747(9)
H14 H -0.1120 0.1558 0.0783
C19 C -0.00222(16) 0.13522(12) 0.09040(8)
C20 C 0.06106(17) 0.14412(14) 0.11941(9)
H15 H 0.1059 0.1261 0.1150
C21 C 0.05868(18) 0.17945(15) 0.15501(9)
H16 H 0.1021 0.1852 0.1742
C22 C 0.00030(16) 0.09266(12) 0.05364(8)
C23 C 0.21767(17) 0.48609(15) 0.47293(9)
H17 H 0.1834 0.4786 0.4490
C24 C 0.29102(17) 0.48832(14) 0.47040(10)
H18 H 0.3054 0.4839 0.4449
C25 C 0.34416(18) 0.49702(14) 0.50482(10)
C26 C 0.3179(2) 0.5079(2) 0.54093(12)
H19 H 0.3512 0.5176 0.5649
C27 C 0.2435(2) 0.5046(2) 0.54189(11)
H20 H 0.2280 0.5099 0.5671
C28 C 0.42383(19) 0.49911(16) 0.50252(11)
C29 C 0.4499(2) 0.4768(4) 0.46975(15)
H21 H 0.4169 0.4571 0.4484
C30 C 0.4762(3) 0.5181(4) 0.53361(17)
H22 H 0.4623 0.5284 0.5587
N1B N 0.80777(13) 0.50573(10) 0.49146(7)
C23B C 0.78233(17) 0.51391(15) 0.52707(9)
H17B H 0.8166 0.5214 0.5510
C24B C 0.70898(17) 0.51168(14) 0.52960(10)
H18B H 0.6946 0.5161 0.5551
C25B C 0.65584(18) 0.50298(14) 0.49518(10)
C26B C 0.6821(2) 0.4921(2) 0.45907(12)
H19B H 0.6488 0.4824 0.4351
C27B C 0.7565(2) 0.4954(2) 0.45811(11)
H20B H 0.7720 0.4901 0.4329
C28B C 0.57617(19) 0.50089(16) 0.49748(11)
C29B C 0.5501(2) 0.5232(4) 0.53025(15)
H21B H 0.5831 0.5429 0.5516
C30B C 0.5238(3) 0.4819(4) 0.46639(17)
H22B H 0.5377 0.4716 0.4413
Zn1B Zn -0.081736(16) 0.502921(12) 0.492271(8)
O1B O 0.07338(12) 0.55878(9) 0.55515(5)
O2B O -0.05076(12) 0.56387(10) 0.54168(6)
O3B O -0.06301(11) 0.92372(9) 0.95354(6)
O4B O 0.06039(12) 0.92560(9) 0.96711(6)
C1B C 0.01136(18) 0.57547(13) 0.56359(8)
C2B C 0.01202(16) 0.61055(13) 0.60342(8)
C3B C 0.07490(18) 0.61116(14) 0.63337(8)
H1B H 0.1180 0.5906 0.6283
C4B C 0.07507(17) 0.64188(14) 0.67092(8)
H2B H 0.1180 0.6410 0.6908
C5B C 0.01286(17) 0.67365(13) 0.67927(8)
C6B C -0.05073(18) 0.67434(14) 0.64863(9)
H3B H -0.0932 0.6964 0.6534
C7B C -0.05145(18) 0.64273(15) 0.61124(9)
H4B H -0.0944 0.6430 0.5914
C8B C 0.01218(16) 0.70552(13) 0.71997(8)
C9B C 0.02616(16) 0.66622(12) 0.75534(8)
H5B H 0.0363 0.6211 0.7528
C10B C -0.00167(16) 0.77398(13) 0.72316(8)
C11B C -0.01335(18) 0.82115(14) 0.68640(8)
H6B H -0.0224 0.8654 0.6955
H7B H 0.0303 0.8212 0.6739
H8B H -0.0553 0.8065 0.6667
C12B C 0.02539(16) 0.69279(13) 0.79459(8)
C13B C 0.03937(18) 0.64786(13) 0.83129(8)
H9B H 0.0486 0.6034 0.8227
H10B H -0.0034 0.6478 0.8446
H11B H 0.0819 0.6635 0.8502
C14B C 0.01040(16) 0.76051(12) 0.79774(8)
C15B C -0.00287(16) 0.79939(13) 0.76253(8)
H12B H -0.0130 0.8445 0.7652
C16B C 0.00728(16) 0.79363(12) 0.83738(8)
C17B C 0.07070(16) 0.80232(13) 0.86656(8)
H13B H 0.1154 0.7840 0.8621
C18B C 0.06874(17) 0.83820(13) 0.90253(9)
H14B H 0.1120 0.8442 0.9217
C19B C 0.00222(16) 0.86478(12) 0.90960(8)
C20B C -0.06106(17) 0.85588(14) 0.88059(9)
H15B H -0.1059 0.8739 0.8850
C21B C -0.05868(18) 0.82055(15) 0.84499(9)
H16B H -0.1021 0.8148 0.8258
C22B C -0.00030(16) 0.90734(12) 0.94636(8)
Zn1A Zn -0.081736(16) -0.002921(12) -0.007729(8)
Zn1A_2 Zn -0.081736(16) 0.997079(12) 0.992271(8)
Zn1B_2 Zn 0.918264(16) 0.502921(12) 0.492271(8)
Zn1C Zn 0.081736(16) 0.002921(12) 0.007729(8)
Zn1C_2 Zn 0.081736(16) 1.002921(12) 1.007729(8)
O3A O -0.06301(11) 0.57628(9) 0.45354(6)
O3C O 0.06301(11) 0.42372(9) 0.54646(6)
O4A O 0.06039(12) 0.57440(9) 0.46711(6)
O4C O -0.06039(12) 0.42560(9) 0.53289(6)
N1B_2 N -0.19223(13) 0.50573(10) 0.49146(7)
Zn2 Zn 0.167385(16) 0.504003(13) 0.100238(8)
Zn3 Zn 0.330222(17) 0.496027(13) 0.115556(9)
O5 O 0.19105(11) 0.42812(9) 0.14246(6)
O6 O 0.31469(12) 0.42652(11) 0.15708(6)
O7 O 0.18755(11) 0.57787(9) 0.06136(6)
O8 O 0.31062(11) 0.56980(10) 0.07293(6)
O9 O 0.17298(11) 0.05908(9) 0.55368(5)
O10 O 0.29672(12) 0.06902(10) 0.56856(6)
O11 O 0.19586(12) 0.93257(10) -0.35136(6)
O12 O 0.31948(12) 0.93692(11) -0.33972(6)
N2 N 0.44072(13) 0.48981(10) 0.11641(7)
N3 N 1.05634(12) 0.50424(9) 0.09899(6)
C31 C 0.25133(17) 0.41084(13) 0.16374(8)
C32 C 0.24871(17) 0.36970(14) 0.20161(8)
C33 C 0.18203(17) 0.34505(15) 0.20964(9)
H23 H 0.1386 0.3520 0.1907
C34 C 0.17902(18) 0.31061(15) 0.24501(9)
H24 H 0.1335 0.2944 0.2497
C35 C 0.24211(18) 0.29941(14) 0.27401(9)
C36 C 0.3101(2) 0.3253(2) 0.26595(11)
H25 H 0.3537 0.3190 0.2849
C37 C 0.3116(2) 0.3594(2) 0.23034(11)
H26 H 0.3567 0.3763 0.2254
C38 C 0.23956(17) 0.26751(15) 0.31455(9)
C39 C 0.25747(19) 0.30637(15) 0.34923(9)
H27 H 0.2712 0.3505 0.3462
C40 C 0.21804(18) 0.20067(15) 0.31759(9)
C41 C 0.1995(2) 0.15570(15) 0.28220(9)
H28 H 0.1845 0.1132 0.2914
H29 H 0.2423 0.1500 0.2693
H30 H 0.1595 0.1745 0.2628
C42 C 0.2794(2) 0.80207(15) -0.10034(10)
C43 C 0.2941(2) 0.84690(16) -0.06334(11)
H31 H 0.2935 0.8211 -0.0389
H32 H 0.2562 0.8806 -0.0657
H33 H 0.3418 0.8677 -0.0618
C44 C 0.24518(17) 0.69585(14) -0.13178(8)
H34 H 0.2333 0.6512 -0.1289
C45 C 0.26163(17) 0.73441(14) -0.09661(9)
C46 C 0.25894(17) 0.70316(13) -0.05599(8)
C47 C 0.32381(17) 0.68288(16) -0.03095(9)
H35 H 0.3695 0.6920 -0.0385
C48 C 0.32093(17) 0.64884(15) 0.00554(9)
H36 H 0.3648 0.6363 0.0226
C49 C 0.25340(16) 0.63368(12) 0.01652(8)
C50 C 0.18868(17) 0.65429(14) -0.00850(8)
H37 H 0.1429 0.6455 -0.0009
C51 C 0.19146(17) 0.68790(14) -0.04486(9)
H38 H 0.1475 0.7003 -0.0619
C52 C 0.25006(17) 0.59099(12) 0.05338(8)
C53 C 0.23556(17) 0.07978(12) 0.54618(8)
C54 C 0.23351(17) 0.11861(13) 0.50758(8)
C55 C 0.16792(17) 0.12612(13) 0.47984(8)
H39 H 0.1236 0.1096 0.4861
C56 C 0.16839(18) 0.15867(14) 0.44225(8)
H40 H 0.1244 0.1629 0.4234
C57 C 0.23323(18) 0.18436(14) 0.43312(9)
C58 C 0.2986(2) 0.17696(18) 0.46116(10)
H41 H 0.3427 0.1940 0.4551
C59 C 0.29869(19) 0.14423(16) 0.49826(9)
H42 H 0.3429 0.1396 0.5169
C60 C 0.23461(17) 0.21580(14) 0.39226(9)
C61 C 0.21583(18) 0.17714(14) 0.35725(9)
H43 H 0.2010 0.1333 0.3602
C62 C 0.25587(19) 0.28245(15) 0.38855(9)
C63 C 0.2735(2) 0.32824(16) 0.42531(10)
H44 H 0.2690 0.3040 0.4498
H45 H 0.3233 0.3448 0.4274
H46 H 0.2393 0.3650 0.4220
C64 C 0.24545(17) 0.72024(15) -0.17096(9)
C65 C 0.2295(2) 0.67372(16) -0.20806(9)
H47 H 0.2327 0.6983 -0.2326
H48 H 0.2653 0.6382 -0.2048
H49 H 0.1804 0.6554 -0.2101
C66 C 0.26278(18) 0.78774(15) -0.17429(9)
C67 C 0.27918(19) 0.82648(15) -0.13938(9)
H50 H 0.2907 0.8712 -0.1423
C68 C 0.26212(18) 0.81841(16) -0.21557(9)
C69 C 0.19778(19) 0.82420(18) -0.24441(10)
H51 H 0.1541 0.8055 -0.2388
C70 C 0.19630(19) 0.85658(18) -0.28102(10)
H52 H 0.1515 0.8613 -0.2991
C71 C 0.26018(17) 0.88209(14) -0.29123(9)
C72 C 0.3258(2) 0.8745(2) -0.26401(11)
H53 H 0.3702 0.8893 -0.2711
C73 C 0.3261(2) 0.8451(2) -0.22624(11)
H54 H 0.3704 0.8430 -0.2074
C74 C 0.25858(17) 0.91998(13) -0.33047(8)
C75 C 1.02970(15) 0.52625(13) 0.13199(8)
H55 H 1.0626 0.5448 0.1538
C76 C 0.95558(15) 0.52225(13) 0.13462(9)
H56 H 0.9396 0.5374 0.1582
C77 C 0.90453(16) 0.49615(12) 0.10288(9)
C78 C 0.93281(17) 0.47391(16) 0.06861(9)
H57 H 0.9009 0.4560 0.0462
C79 C 1.00724(16) 0.47844(15) 0.06789(9)
H58 H 1.0247 0.4629 0.0448
C80 C 0.82481(16) 0.49197(12) 0.10557(9)
C81 C 0.77110(17) 0.48934(13) 0.07011(9)
H59 H 0.7855 0.4886 0.0445
C82 C 0.80173(16) 0.49185(12) 0.14381(9)
H60 H 0.8369 0.4933 0.1679
C83 C 0.69604(17) 0.48778(14) 0.07281(10)
H61 H 0.6607 0.4868 0.0488
C84 C 0.67270(16) 0.48758(13) 0.11059(9)
C85 C 0.72732(16) 0.48958(12) 0.14585(9)
H62 H 0.7129 0.4894 0.1715
C86 C 0.59350(16) 0.48767(13) 0.11320(9)
C87 C 0.5654(2) 0.4838(3) 0.14840(12)
H63 H 0.5983 0.4796 0.1732
C88 C 0.4917(2) 0.4856(3) 0.14936(11)
H64 H 0.4766 0.4838 0.1748
C89 C 0.4648(2) 0.4933(3) 0.08113(12)
H65 H 0.4300 0.4936 0.0569
C90 C 0.5396(4) 0.4967(2) 0.07858(19)
H66 H 0.5537 0.5051 0.0533
Zn2_2 Zn 1.167385(16) 0.504003(13) 0.100238(8)
Zn2C Zn 0.167385(16) -0.004003(13) 0.600238(8)
Zn2C_2 Zn 0.167385(16) 0.995997(13) -0.399762(8)
Zn3C Zn 0.330222(17) 0.003973(13) 0.615556(9)
Zn3C_2 Zn 0.330222(17) 1.003973(13) -0.384444(9)
O9C O 0.17298(11) 0.44092(9) 0.05368(5)
O10C O 0.29672(12) 0.43098(10) 0.06856(6)
O11C O 0.19586(12) 0.56743(10) 0.14864(6)
O12C O 0.31948(12) 0.56308(11) 0.16028(6)
N3_2 N 0.05634(12) 0.50424(9) 0.09899(6)
loop_
_geom_bond_atom_site_label_1
_geom_bond_atom_site_label_2
_geom_bond_site_symmetry_1
_geom_bond_site_symmetry_2
Zn1 O2 1_555 1_555
O1 C1 1_555 1_555
O2 C1 1_555 1_555
O3 C22 1_555 1_555
O4 C22 1_555 1_555
N1 Zn1 1_555 1_555
C1 C2 1_555 1_555
C2 C3 1_555 1_555
C3 H1 1_555 1_555
C4 C3 1_555 1_555
H2 C4 1_555 1_555
C5 C4 1_555 1_555
C6 C5 1_555 1_555
H3 C6 1_555 1_555
C7 C2 1_555 1_555
H4 C7 1_555 1_555
C8 C5 1_555 1_555
C9 C8 1_555 1_555
H5 C9 1_555 1_555
C10 C8 1_555 1_555
C11 C10 1_555 1_555
H6 C11 1_555 1_555
H7 C11 1_555 1_555
H8 C11 1_555 1_555
C12 C9 1_555 1_555
C13 C12 1_555 1_555
H9 C13 1_555 1_555
H10 C13 1_555 1_555
H11 C13 1_555 1_555
C14 C12 1_555 1_555
C15 C10 1_555 1_555
H12 C15 1_555 1_555
C16 C14 1_555 1_555
C17 C16 1_555 1_555
H13 C17 1_555 1_555
C18 C17 1_555 1_555
H14 C18 1_555 1_555
C19 C18 1_555 1_555
C20 C19 1_555 1_555
H15 C20 1_555 1_555
C21 C16 1_555 1_555
H16 C21 1_555 1_555
C22 C19 1_555 1_555
C23 N1 1_555 1_555
H17 C23 1_555 1_555
C24 C23 1_555 1_555
H18 C24 1_555 1_555
C25 C24 1_555 1_555
C26 C25 1_555 1_555
H19 C26 1_555 1_555
C27 N1 1_555 1_555
H20 C27 1_555 1_555
C28 C25 1_555 1_555
C29 C28 1_555 1_555
H21 C29 1_555 1_555
C30 C28 1_555 1_555
H22 C30 1_555 1_555
Zn2 O5 1_555 1_555
Zn3 O6 1_555 1_555
O5 C31 1_555 1_555
O6 C31 1_555 1_555
O7 Zn2 1_555 1_555
O8 Zn3 1_555 1_555
O9 C53 1_555 1_555
O10 C53 1_555 1_555
O11 C74 1_555 1_555
O12 C74 1_555 1_555
N2 Zn3 1_555 1_555
N3 C75 1_555 1_555
C31 C32 1_555 1_555
C32 C33 1_555 1_555
C33 H23 1_555 1_555
C34 C33 1_555 1_555
H24 C34 1_555 1_555
C35 C34 1_555 1_555
C36 C35 1_555 1_555
H25 C36 1_555 1_555
C37 C32 1_555 1_555
H26 C37 1_555 1_555
C38 C35 1_555 1_555
C39 C38 1_555 1_555
H27 C39 1_555 1_555
C40 C38 1_555 1_555
C41 C40 1_555 1_555
H28 C41 1_555 1_555
H29 C41 1_555 1_555
H30 C41 1_555 1_555
C42 C43 1_555 1_555
C43 H31 1_555 1_555
H32 C43 1_555 1_555
H33 C43 1_555 1_555
C44 H34 1_555 1_555
C45 C42 1_555 1_555
C46 C45 1_555 1_555
C47 C46 1_555 1_555
H35 C47 1_555 1_555
C48 C47 1_555 1_555
H36 C48 1_555 1_555
C49 C48 1_555 1_555
C50 C49 1_555 1_555
H37 C50 1_555 1_555
C51 C46 1_555 1_555
H38 C51 1_555 1_555
C52 O7 1_555 1_555
C53 C54 1_555 1_555
C54 C55 1_555 1_555
C55 H39 1_555 1_555
C56 C55 1_555 1_555
H40 C56 1_555 1_555
C57 C56 1_555 1_555
C58 C57 1_555 1_555
H41 C58 1_555 1_555
C59 C54 1_555 1_555
H42 C59 1_555 1_555
C60 C57 1_555 1_555
C61 C40 1_555 1_555
H43 C61 1_555 1_555
C62 C39 1_555 1_555
C63 C62 1_555 1_555
H44 C63 1_555 1_555
H45 C63 1_555 1_555
H46 C63 1_555 1_555
C64 C44 1_555 1_555
C65 C64 1_555 1_555
H47 C65 1_555 1_555
H48 C65 1_555 1_555
H49 C65 1_555 1_555
C66 C64 1_555 1_555
C67 C42 1_555 1_555
H50 C67 1_555 1_555
C68 C66 1_555 1_555
C69 C68 1_555 1_555
H51 C69 1_555 1_555
C70 C69 1_555 1_555
H52 C70 1_555 1_555
C71 C70 1_555 1_555
C72 C71 1_555 1_555
H53 C72 1_555 1_555
C73 C68 1_555 1_555
H54 C73 1_555 1_555
C74 C71 1_555 1_555
C75 H55 1_555 1_555
C76 C75 1_555 1_555
H56 C76 1_555 1_555
C77 C76 1_555 1_555
C78 C77 1_555 1_555
H57 C78 1_555 1_555
C79 N3 1_555 1_555
H58 C79 1_555 1_555
C80 C77 1_555 1_555
C81 C80 1_555 1_555
H59 C81 1_555 1_555
C82 C80 1_555 1_555
H60 C82 1_555 1_555
C83 C81 1_555 1_555
H61 C83 1_555 1_555
C84 C83 1_555 1_555
C85 C82 1_555 1_555
H62 C85 1_555 1_555
C86 C84 1_555 1_555
C87 C86 1_555 1_555
H63 C87 1_555 1_555
C88 N2 1_555 1_555
H64 C88 1_555 1_555
C89 N2 1_555 1_555
H65 C89 1_555 1_555
C90 C86 1_555 1_555
H66 C90 1_555 1_555
N1B C23B 1_555 1_555
C23B H17B 1_555 1_555
C24B C23B 1_555 1_555
H18B C24B 1_555 1_555
C25B C24B 1_555 1_555
C26B C25B 1_555 1_555
H19B C26B 1_555 1_555
C27B N1B 1_555 1_555
H20B C27B 1_555 1_555
C28B C25B 1_555 1_555
C29B C30 1_555 1_555
H21B C29B 1_555 1_555
C30B C29 1_555 1_555
H22B C30B 1_555 1_555
Zn1B O1 1_555 1_555
O1B Zn1 1_555 1_555
O2B Zn1B 1_555 1_555
O3B C22B 1_555 1_555
O4B C22B 1_555 1_555
C1B O1B 1_555 1_555
C2B C1B 1_555 1_555
C3B C2B 1_555 1_555
H1B C3B 1_555 1_555
C4B C3B 1_555 1_555
H2B C4B 1_555 1_555
C5B C4B 1_555 1_555
C6B C5B 1_555 1_555
H3B C6B 1_555 1_555
C7B C2B 1_555 1_555
H4B C7B 1_555 1_555
C8B C5B 1_555 1_555
C9B C8B 1_555 1_555
H5B C9B 1_555 1_555
C10B C8B 1_555 1_555
C11B C10B 1_555 1_555
H6B C11B 1_555 1_555
H7B C11B 1_555 1_555
H8B C11B 1_555 1_555
C12B C9B 1_555 1_555
C13B C12B 1_555 1_555
H9B C13B 1_555 1_555
H10B C13B 1_555 1_555
H11B C13B 1_555 1_555
C14B C12B 1_555 1_555
C15B C10B 1_555 1_555
H12B C15B 1_555 1_555
C16B C14B 1_555 1_555
C17B C16B 1_555 1_555
H13B C17B 1_555 1_555
C18B C17B 1_555 1_555
H14B C18B 1_555 1_555
C19B C18B 1_555 1_555
C20B C19B 1_555 1_555
H15B C20B 1_555 1_555
C21B C16B 1_555 1_555
H16B C21B 1_555 1_555
C22B C19B 1_555 1_555
Zn1A O4 1_555 1_555
Zn1A_2 O3B 1_555 1_555
Zn1B_2 N1B 1_555 1_555
Zn1C O3 1_555 1_555
Zn1C_2 O4B 1_555 1_555
O3A Zn1B 1_555 1_555
O3C Zn1 1_555 1_555
O4A Zn1 1_555 1_555
O4C Zn1B 1_555 1_555
N1B_2 Zn1B 1_555 1_555
Zn2_2 N3 1_555 1_555
Zn2C O9 1_555 1_555
Zn2C_2 O11 1_555 1_555
Zn3C O10 1_555 1_555
Zn3C_2 O12 1_555 1_555
O9C Zn2 1_555 1_555
O10C Zn3 1_555 1_555
O11C Zn2 1_555 1_555
O12C Zn3 1_555 1_555
N3_2 Zn2 1_555 1_555
C6 C7 1_555 1_555
C14 C15 1_555 1_555
C20 C21 1_555 1_555
C26 C27 1_555 1_555
O8 C52 1_555 1_555
C36 C37 1_555 1_555
C44 C45 1_555 1_555
C49 C52 1_555 1_555
C50 C51 1_555 1_555
C58 C59 1_555 1_555
C60 C61 1_555 1_555
C60 C62 1_555 1_555
C66 C67 1_555 1_555
C72 C73 1_555 1_555
C78 C79 1_555 1_555
C84 C85 1_555 1_555
C87 C88 1_555 1_555
C89 C90 1_555 1_555
C26B C27B 1_555 1_555
C28B C29B 1_555 1_555
C28B C30B 1_555 1_555
O2B C1B 1_555 1_555
C6B C7B 1_555 1_555
C14B C15B 1_555 1_555
C20B C21B 1_555 1_555

#END
