
#######################################################################
#
#                 Cambridge Crystallographic Data Centre
#                                CCDC 
#
#######################################################################
#
# If this CIF has been generated from an entry in the Cambridge 
# Structural Database, then it will include bibliographic, chemical, 
# crystal, experimental, refinement or atomic coordinate data resulting 
# from the CCDC's data processing and validation procedures.
#
#######################################################################

data_NEDVID
_chemical_name_common            BPY-DMOF
_chemical_formula_moiety         '(C34 H28 N2 O12 Zn2)n'
_chemical_name_systematic        
'catena-(bis(\m~4~-2,5-bis(prop-2-yn-1-yloxy)benzene-1,4-dicarboxylato)-(\m~2~-1,4-diazabicyclo(2.2.2)octane)-di-zinc(ii) unknown solvate)'
_symmetry_cell_setting           tetragonal
_symmetry_space_group_name_H-M   'P 4/m m m'
_symmetry_Int_Tables_number      123
_space_group_name_Hall           '-P 4 2'
loop_
_symmetry_equiv_pos_site_id
_symmetry_equiv_pos_as_xyz
1 x,y,z
2 -x,-y,z
3 -y,x,z
4 y,-x,z
5 -x,y,-z
6 x,-y,-z
7 y,x,-z
8 -y,-x,-z
9 -x,-y,-z
10 x,y,-z
11 y,-x,-z
12 -y,x,-z
13 x,-y,z
14 -x,y,z
15 -y,-x,z
16 y,x,z
_cell_length_a                   10.898(3)
_cell_length_b                   10.898(3)
_cell_length_c                   9.591(4)
_cell_angle_alpha                90
_cell_angle_beta                 90
_cell_angle_gamma                90
_cell_volume                     1139.09
_exptl_crystal_colour            colorless
_exptl_crystal_description       block
_cell_formula_units_Z            1
loop_
_atom_site_label
_atom_site_type_symbol
_atom_site_fract_x
_atom_site_fract_y
_atom_site_fract_z
C1 C 0.0902(16) 0.0902(16) 0.086(3)
Zn1 Zn 0.0000 0.0000 0.34815(19)
N1 N 0.0000 0.0000 0.1338(11)
C2 C 0.2354(10) 0.0000 0.5000
C3 C 0.3722(11) 0.0000 0.5000
O1 O 0.1824(7) 0.0281(8) 0.3886(7)
C4 C 0.4385(11) 0.0479(15) 0.3875(11)
C5 C 0.132(2) 0.0000 0.083(2)
O2 O 0.382(2) 0.102(2) 0.272(2)
C1F C 0.0902(16) 0.0902(16) -0.086(3)
C1G C -0.0902(16) -0.0902(16) -0.086(3)
C1A C -0.0902(16) -0.0902(16) 0.086(3)
C1C C 0.0902(16) -0.0902(16) 0.086(3)
C1E C 0.0902(16) -0.0902(16) -0.086(3)
C1B C -0.0902(16) 0.0902(16) 0.086(3)
C1D C -0.0902(16) 0.0902(16) -0.086(3)
Zn1D Zn 0.0000 0.0000 -0.34815(19)
Zn1_2 Zn 1.0000 0.0000 0.34815(19)
Zn1D_2 Zn 1.0000 0.0000 0.65185(19)
Zn1D_3 Zn 0.0000 0.0000 0.65185(19)
Zn1_3 Zn -1.0000 0.0000 0.34815(19)
Zn1D_4 Zn -1.0000 0.0000 0.65185(19)
N1D N 0.0000 0.0000 -0.1338(11)
C2A C 0.7646(10) 0.0000 0.5000
C2A_2 C -0.2354(10) 0.0000 0.5000
C2_2 C -0.7646(10) 0.0000 0.5000
C3A C 0.6278(11) 0.0000 0.5000
C3A_2 C -0.3722(11) 0.0000 0.5000
C3_2 C -0.6278(11) 0.0000 0.5000
O1A O 0.8176(7) -0.0281(8) 0.3886(7)
O1M O 0.8176(7) 0.0281(8) 0.3886(7)
O1D O 0.8176(7) 0.0281(8) 0.6114(7)
O1H O 0.8176(7) -0.0281(8) 0.6114(7)
O1L O 0.1824(7) -0.0281(8) 0.3886(7)
O1E O 0.1824(7) -0.0281(8) 0.6114(7)
O1I O 0.1824(7) 0.0281(8) 0.6114(7)
O1A_2 O -0.1824(7) -0.0281(8) 0.3886(7)
O1_2 O -0.8176(7) 0.0281(8) 0.3886(7)
O1L_2 O -0.8176(7) -0.0281(8) 0.3886(7)
O1E_2 O -0.8176(7) -0.0281(8) 0.6114(7)
O1I_2 O -0.8176(7) 0.0281(8) 0.6114(7)
O1M_2 O -0.1824(7) 0.0281(8) 0.3886(7)
O1D_2 O -0.1824(7) 0.0281(8) 0.6114(7)
O1H_2 O -0.1824(7) -0.0281(8) 0.6114(7)
O1B O -0.0281(8) 0.1824(7) 0.3886(7)
O1C O 0.0281(8) -0.1824(7) 0.3886(7)
O1N O -0.0281(8) -0.1824(7) 0.3886(7)
O1O O 0.0281(8) 0.1824(7) 0.3886(7)
O1F O 0.0281(8) 0.1824(7) -0.3886(7)
O1G O -0.0281(8) -0.1824(7) -0.3886(7)
O1E_3 O 0.1824(7) -0.0281(8) -0.3886(7)
O1D_3 O -0.1824(7) 0.0281(8) -0.3886(7)
O1K O -0.0281(8) 0.1824(7) -0.3886(7)
O1J O 0.0281(8) -0.1824(7) -0.3886(7)
O1H_3 O -0.1824(7) -0.0281(8) -0.3886(7)
O1I_3 O 0.1824(7) 0.0281(8) -0.3886(7)
C4A C 0.5615(11) -0.0479(15) 0.3875(11)
C4D C 0.5615(11) 0.0479(15) 0.6125(11)
C4E C 0.4385(11) -0.0479(15) 0.6125(11)
C4I C 0.4385(11) 0.0479(15) 0.6125(11)
C4H C 0.5615(11) -0.0479(15) 0.6125(11)
C4M C 0.5615(11) 0.0479(15) 0.3875(11)
C4L C 0.4385(11) -0.0479(15) 0.3875(11)
C4A_2 C -0.4385(11) -0.0479(15) 0.3875(11)
C4_2 C -0.5615(11) 0.0479(15) 0.3875(11)
C4E_2 C -0.5615(11) -0.0479(15) 0.6125(11)
C4D_2 C -0.4385(11) 0.0479(15) 0.6125(11)
C4H_2 C -0.4385(11) -0.0479(15) 0.6125(11)
C4I_2 C -0.5615(11) 0.0479(15) 0.6125(11)
C4L_2 C -0.5615(11) -0.0479(15) 0.3875(11)
C4M_2 C -0.4385(11) 0.0479(15) 0.3875(11)
C5B C 0.0000 0.132(2) 0.083(2)
C5E C 0.132(2) 0.0000 -0.083(2)
C5D C -0.132(2) 0.0000 -0.083(2)
C5G C 0.0000 -0.132(2) -0.083(2)
C5F C 0.0000 0.132(2) -0.083(2)
C5A C -0.132(2) 0.0000 0.083(2)
C5C C 0.0000 -0.132(2) 0.083(2)
O2M O 0.618(2) 0.102(2) 0.272(2)
O2D O 0.618(2) 0.102(2) 0.728(2)
O2H O 0.618(2) -0.102(2) 0.728(2)
O2E O 0.382(2) -0.102(2) 0.728(2)
O2I O 0.382(2) 0.102(2) 0.728(2)
O2L O 0.382(2) -0.102(2) 0.272(2)
O2A O 0.618(2) -0.102(2) 0.272(2)
O2A_2 O -0.382(2) -0.102(2) 0.272(2)
O2L_2 O -0.618(2) -0.102(2) 0.272(2)
O2E_2 O -0.618(2) -0.102(2) 0.728(2)
O2I_2 O -0.618(2) 0.102(2) 0.728(2)
O2D_2 O -0.382(2) 0.102(2) 0.728(2)
O2H_2 O -0.382(2) -0.102(2) 0.728(2)
O2M_2 O -0.382(2) 0.102(2) 0.272(2)
O2_2 O -0.618(2) 0.102(2) 0.272(2)
loop_
_geom_bond_atom_site_label_1
_geom_bond_atom_site_label_2
_geom_bond_site_symmetry_1
_geom_bond_site_symmetry_2
C1 N1 1_555 1_555
Zn1 N1 1_555 1_555
N1 C5 1_555 1_555
C2 C3 1_555 1_555
C3 C4 1_555 1_555
O1 Zn1 1_555 1_555
C4 O2 1_555 1_555
C5 C1 1_555 1_555
C1F C1 1_555 1_555
C1G C1A 1_555 1_555
C1A N1 1_555 1_555
C1C N1 1_555 1_555
C1E C1C 1_555 1_555
C1B N1 1_555 1_555
C1D C1B 1_555 1_555
Zn1D N1D 1_555 1_555
Zn1_2 O1A 1_555 1_555
Zn1D_2 O1D 1_555 1_555
Zn1D_3 O1E 1_555 1_555
Zn1_3 O1_2 1_555 1_555
Zn1D_4 O1E_2 1_555 1_555
N1D C1F 1_555 1_555
C2A C3A 1_555 1_555
C2A_2 C3A_2 1_555 1_555
C2_2 C3_2 1_555 1_555
C3A C4A 1_555 1_555
C3A_2 C4A_2 1_555 1_555
C3_2 C4_2 1_555 1_555
O1A C2A 1_555 1_555
O1M Zn1_2 1_555 1_555
O1D C2A 1_555 1_555
O1H Zn1D_2 1_555 1_555
O1L Zn1 1_555 1_555
O1E C2 1_555 1_555
O1I C2 1_555 1_555
O1A_2 Zn1 1_555 1_555
O1_2 C2_2 1_555 1_555
O1L_2 Zn1_3 1_555 1_555
O1E_2 C2_2 1_555 1_555
O1I_2 Zn1D_4 1_555 1_555
O1M_2 Zn1 1_555 1_555
O1D_2 Zn1D_3 1_555 1_555
O1H_2 Zn1D_3 1_555 1_555
O1B Zn1 1_555 1_555
O1C Zn1 1_555 1_555
O1N Zn1 1_555 1_555
O1O Zn1 1_555 1_555
O1F Zn1D 1_555 1_555
O1G Zn1D 1_555 1_555
O1E_3 Zn1D 1_555 1_555
O1D_3 Zn1D 1_555 1_555
O1K Zn1D 1_555 1_555
O1J Zn1D 1_555 1_555
O1H_3 Zn1D 1_555 1_555
O1I_3 Zn1D 1_555 1_555
C4A C4 1_555 1_555
C4D C3A 1_555 1_555
C4E C3 1_555 1_555
C4I C3 1_555 1_555
C4H C3A 1_555 1_555
C4M C4 1_555 1_555
C4L C3 1_555 1_555
C4A_2 C4_2 1_555 1_555
C4_2 C4L_2 1_555 1_555
C4E_2 C3_2 1_555 1_555
C4D_2 C3A_2 1_555 1_555
C4H_2 C3A_2 1_555 1_555
C4I_2 C3_2 1_555 1_555
C4L_2 C3_2 1_555 1_555
C4M_2 C3A_2 1_555 1_555
C5B C1 1_555 1_555
C5E C5 1_555 1_555
C5D C1G 1_555 1_555
C5G C1G 1_555 1_555
C5F C1F 1_555 1_555
C5A N1 1_555 1_555
C5C N1 1_555 1_555
O2M C4M 1_555 1_555
O2D C4D 1_555 1_555
O2H C4H 1_555 1_555
O2E C4E 1_555 1_555
O2I C4I 1_555 1_555
O2L C4L 1_555 1_555
O2A C4A 1_555 1_555
O2A_2 C4A_2 1_555 1_555
O2L_2 C4L_2 1_555 1_555
O2E_2 C4E_2 1_555 1_555
O2I_2 C4I_2 1_555 1_555
O2D_2 C4D_2 1_555 1_555
O2H_2 C4H_2 1_555 1_555
O2M_2 C4M_2 1_555 1_555
O2_2 C4_2 1_555 1_555
N1 C5B 1_555 1_555
C2 O1 1_555 1_555
C2 O1L 1_555 1_555
O1 O1L 1_555 1_555
C4 C4L 1_555 1_555
C5 C1C 1_555 1_555
C1F C5E 1_555 1_555
C1G N1D 1_555 1_555
C1A C5A 1_555 1_555
C1A C5C 1_555 1_555
C1C C5C 1_555 1_555
C1E N1D 1_555 1_555
C1E C5E 1_555 1_555
C1E C5G 1_555 1_555
C1B C5B 1_555 1_555
C1B C5A 1_555 1_555
C1D N1D 1_555 1_555
C1D C5D 1_555 1_555
C1D C5F 1_555 1_555
Zn1D_3 O1I 1_555 1_555
N1D C5E 1_555 1_555
N1D C5D 1_555 1_555
N1D C5G 1_555 1_555
N1D C5F 1_555 1_555
C2A O1M 1_555 1_555
C2A O1H 1_555 1_555
C2A_2 O1A_2 1_555 1_555
C2A_2 O1M_2 1_555 1_555
C2A_2 O1D_2 1_555 1_555
C2A_2 O1H_2 1_555 1_555
C2_2 O1L_2 1_555 1_555
C2_2 O1I_2 1_555 1_555
C3A C4M 1_555 1_555
O1A O1M 1_555 1_555
O1D O1H 1_555 1_555
O1E O1I 1_555 1_555
O1A_2 O1M_2 1_555 1_555
O1_2 O1L_2 1_555 1_555
O1E_2 O1I_2 1_555 1_555
O1D_2 O1H_2 1_555 1_555
O1B O1O 1_555 1_555
O1C O1N 1_555 1_555
O1F O1K 1_555 1_555
O1G O1J 1_555 1_555
O1E_3 O1I_3 1_555 1_555
O1D_3 O1H_3 1_555 1_555
C4A C4M 1_555 1_555
C4A C4L 1_555 1_555
C4D C4E 1_555 1_555
C4D C4I 1_555 1_555
C4D C4H 1_555 1_555
C4E C4I 1_555 1_555
C4E C4H 1_555 1_555
C4I C4H 1_555 1_555
C4M C4L 1_555 1_555
C4A_2 C4L_2 1_555 1_555
C4A_2 C4M_2 1_555 1_555
C4_2 C4M_2 1_555 1_555
C4E_2 C4D_2 1_555 1_555
C4E_2 C4H_2 1_555 1_555
C4E_2 C4I_2 1_555 1_555
C4D_2 C4H_2 1_555 1_555
C4D_2 C4I_2 1_555 1_555
C4H_2 C4I_2 1_555 1_555
C4L_2 C4M_2 1_555 1_555
C5B C5F 1_555 1_555
C5D C5A 1_555 1_555
C5G C5C 1_555 1_555

#END
