
#######################################################################
#
#                 Cambridge Crystallographic Data Centre
#                                CCDC 
#
#######################################################################
#
# If this CIF has been generated from an entry in the Cambridge 
# Structural Database, then it will include bibliographic, chemical, 
# crystal, experimental, refinement or atomic coordinate data resulting 
# from the CCDC's data processing and validation procedures.
#
#######################################################################

data_FAYPOM
_chemical_name_common            DMOF-4
_chemical_formula_moiety         '(C73 H56 N18 O16 Zn5)n,2n(H2 O1)'
_chemical_name_systematic        
'catena-[(\m~4~-tetrakis((4-Carboxylato-2-methoxyphenoxy)methyl)methane)-hexakis(\m~3~-benzotriazolyl)-penta-zinc(ii) unknown solvate dihydrate]'
_symmetry_cell_setting           monoclinic
_symmetry_space_group_name_H-M   'C 2/c'
_symmetry_Int_Tables_number      15
_space_group_name_Hall           '-C 2yc'
loop_
_symmetry_equiv_pos_site_id
_symmetry_equiv_pos_as_xyz
1 x,y,z
2 -x,y,1/2-z
3 1/2+x,1/2+y,z
4 1/2-x,1/2+y,1/2-z
5 -x,-y,-z
6 x,-y,1/2+z
7 1/2-x,1/2-y,-z
8 1/2+x,1/2-y,1/2+z
_cell_length_a                   20.287(5)
_cell_length_b                   36.392(9)
_cell_length_c                   20.049(5)
_cell_angle_alpha                90
_cell_angle_beta                 116.793(4)
_cell_angle_gamma                90
_cell_volume                     13212.8
_exptl_crystal_colour            colorless
_exptl_crystal_description       block
_cell_formula_units_Z            4
loop_
_atom_site_label
_atom_site_type_symbol
_atom_site_fract_x
_atom_site_fract_y
_atom_site_fract_z
Zn1 Zn 0.0000 -0.04176(2) 0.2500
Zn2 Zn -0.14485(4) 0.01491(2) 0.11967(4)
Zn3 Zn -0.06680(5) -0.09974(2) 0.35004(4)
C1 C 0.0623(6) -0.0428(3) 0.6036(5)
H1 H 0.0535 -0.0488 0.6440
N1 N 0.0376(2) -0.04057(11) 0.3711(2)
C2 C 0.0904(4) -0.0226(2) 0.4878(3)
C3 C 0.0360(4) -0.0484(2) 0.4778(3)
N2 N -0.1675(2) -0.02195(13) 0.1844(2)
C4 C -0.6183(5) 0.31973(17) -0.4904(4)
H2 H -0.6621 0.3322 -0.5189
C5 C -0.2720(3) 0.10763(14) -0.0670(3)
H3 H -0.2269 0.1053 -0.0681
O1 O -0.6128(3) 0.37172(13) -0.5956(3)
C6 C 0.1324(4) -0.0058(2) 0.5562(3)
H4 H 0.1685 0.0117 0.5641
O2 O -0.2412(3) 0.04243(16) 0.0786(4)
C7 C 0.0346(4) 0.07564(16) 0.2808(3)
N3 N -0.1135(2) -0.04312(11) 0.2343(2)
N4 N 0.0047(3) -0.05904(13) 0.4047(2)
O3 O -0.4964(4) 0.3619(2) -0.5566(5)
C8 C 0.0218(5) -0.0590(2) 0.5374(3)
H5 H -0.0139 -0.0765 0.5313
C9 C -0.2296(3) -0.0319(2) 0.1882(3)
C10 C -0.5558(5) 0.32670(17) -0.4993(4)
C11 C -0.6147(4) 0.29397(18) -0.4385(4)
C12 C 0.0719(6) 0.10769(18) 0.3185(5)
H6 H 0.1164 0.1077 0.3620
O4 O -0.6728(3) 0.28455(17) -0.4240(4)
C13 C -0.4913(4) 0.30895(19) -0.4577(4)
H7 H -0.4496 0.3139 -0.4642
C14 C 0.1139(6) -0.0186(3) 0.6131(4)
H8 H 0.1405 -0.0089 0.6608
C15 C -0.4886(4) 0.28327(18) -0.4055(4)
H9 H -0.4442 0.2714 -0.3763
C16 C -0.2116(4) -0.0604(2) 0.2408(4)
C17 C -0.3009(5) -0.0211(3) 0.1475(6)
H10 H -0.3134 -0.0037 0.1097
C18 C -0.2625(5) -0.0770(3) 0.2572(5)
H11 H -0.2495 -0.0954 0.2931
C19 C -0.3537(6) -0.0364(4) 0.1635(7)
H12 H -0.4022 -0.0281 0.1392
C20 C -0.3338(6) -0.0654(4) 0.2184(7)
H13 H -0.3704 -0.0764 0.2274
C21 C 0.0339(7) 0.1395(2) 0.2828(5)
H14 H 0.0546 0.1620 0.3034
C22 C -0.7427(6) 0.3012(3) -0.4674(7)
H15 H -0.7779 0.2918 -0.4520
H16 H -0.7588 0.2957 -0.5193
H17 H -0.7385 0.3273 -0.4602
C23 C -0.2304(5) 0.0606(2) 0.0354(4)
N5 N 0.0909(3) -0.01789(12) 0.4189(2)
C24 C -0.4855(3) 0.22909(13) -0.3048(3)
H18 H -0.4438 0.2453 -0.2782
H19 H -0.4748 0.2137 -0.3382
C25 C -0.5492(4) 0.27479(14) -0.3957(3)
N6 N 0.0538(3) 0.03885(11) 0.2972(2)
C26 C -0.3241(3) 0.13171(14) -0.1146(3)
H20 H -0.3138 0.1456 -0.1477
C27 C -0.5000 0.20555(15) -0.2500
O5 O -0.4451(2) 0.15932(10) -0.15775(19)
O6 O -0.5514(2) 0.25009(10) -0.3461(2)
N7 N 0.0000 0.01787(15) 0.2500
C28 C -0.4315(3) 0.18201(12) -0.2087(2)
H21 H -0.4226 0.1669 -0.2437
H22 H -0.3885 0.1974 -0.1817
C29 C -0.3902(3) 0.13557(14) -0.1140(3)
C30 C -0.5546(7) 0.3558(2) -0.5533(4)
N8 N -0.1397(3) -0.06609(12) 0.2680(2)
O7 O -0.1715(4) 0.05679(18) 0.0341(3)
N9 N 0.0000 -0.10177(19) 0.2500
C31 C -0.2861(3) 0.08715(17) -0.0183(3)
O8 O -0.4734(4) 0.12022(18) -0.0695(4)
N10 N -0.0277(3) -0.12220(18) 0.2874(3)
C32 C -0.3503(4) 0.0903(2) -0.0155(4)
H23 H -0.3596 0.0763 0.0183
C33 C -0.4042(4) 0.1151(2) -0.0646(4)
C34 C -0.0178(7) -0.1563(4) 0.2709(7)
C35 C -0.0402(11) -0.1902(5) 0.3043(10)
H24 H -0.0598 -0.1903 0.3382
C36 C -0.0217(12) -0.2240(5) 0.2673(13)
H25 H -0.0429 -0.2463 0.2695
C37 C -0.4915(8) 0.1003(4) -0.0145(8)
H26 H -0.5411 0.1059 -0.0240
H27 H -0.4579 0.1078 0.0353
H28 H -0.4869 0.0743 -0.0196
Zn2A Zn 0.14485(4) 0.01491(2) 0.38033(4)
Zn2A_2 Zn -0.85515(4) 0.01491(2) -0.61967(4)
Zn3A Zn 0.06680(5) -0.09974(2) 0.14996(4)
Zn3B Zn -0.56680(5) 0.40026(2) -0.64996(4)
Zn3C Zn -0.43320(5) 0.40026(2) 0.14996(4)
C1A C -0.0623(6) -0.0428(3) -0.1036(5)
H1A H -0.0535 -0.0488 -0.1440
N1A N -0.0376(2) -0.04057(11) 0.1289(2)
C2A C -0.0904(4) -0.0226(2) 0.0122(3)
C3A C -0.0360(4) -0.0484(2) 0.0222(3)
N2A N 0.1675(2) -0.02195(13) 0.3156(2)
C4A C -0.3817(5) 0.31973(17) -0.0096(4)
H2A H -0.3379 0.3322 0.0189
C5A C -0.7280(3) 0.10763(14) -0.4330(3)
H3A H -0.7731 0.1053 -0.4319
O1A O -0.3872(3) 0.37172(13) 0.0956(3)
O1B O -0.1128(3) -0.12828(13) 0.4044(3)
O1C O 0.1128(3) -0.12828(13) 0.0956(3)
C6A C -0.1324(4) -0.0058(2) -0.0562(3)
H4A H -0.1685 0.0117 -0.0641
O2A O -0.7588(3) 0.04243(16) -0.5786(4)
O2A_2 O 0.2412(3) 0.04243(16) 0.4214(4)
C7A C -0.0346(4) 0.07564(16) 0.2192(3)
N3A N 0.1135(2) -0.04312(11) 0.2657(2)
N4A N -0.0047(3) -0.05904(13) 0.0953(2)
O3A O -0.5036(4) 0.3619(2) 0.0566(5)
O3B O 0.0036(4) -0.1381(2) 0.4434(5)
O3C O -0.0036(4) -0.1381(2) 0.0566(5)
C8A C -0.0218(5) -0.0590(2) -0.0374(3)
H5A H 0.0139 -0.0765 -0.0313
C9A C 0.2296(3) -0.0319(2) 0.3118(3)
C10A C -0.4442(5) 0.32670(17) -0.0007(4)
C11A C -0.3853(4) 0.29397(18) -0.0615(4)
C12A C -0.0719(6) 0.10769(18) 0.1815(5)
H6A H -0.1164 0.1077 0.1380
O4A O -0.3272(3) 0.28455(17) -0.0760(4)
C13A C -0.5087(4) 0.30895(19) -0.0423(4)
H7A H -0.5504 0.3139 -0.0358
C14A C -0.1139(6) -0.0186(3) -0.1131(4)
H8A H -0.1405 -0.0089 -0.1608
C15A C -0.5114(4) 0.28327(18) -0.0945(4)
H9A H -0.5558 0.2714 -0.1237
C16A C 0.2116(4) -0.0604(2) 0.2592(4)
C17A C 0.3009(5) -0.0211(3) 0.3525(6)
H10A H 0.3134 -0.0037 0.3903
C18A C 0.2625(5) -0.0770(3) 0.2428(5)
H11A H 0.2495 -0.0954 0.2069
C19A C 0.3537(6) -0.0364(4) 0.3365(7)
H12A H 0.4022 -0.0281 0.3608
C20A C 0.3338(6) -0.0654(4) 0.2816(7)
H13A H 0.3704 -0.0764 0.2726
C21A C -0.0339(7) 0.1395(2) 0.2172(5)
H14A H -0.0546 0.1620 0.1966
C22A C -0.2573(6) 0.3012(3) -0.0326(7)
H15A H -0.2221 0.2918 -0.0480
H16A H -0.2412 0.2957 0.0193
H17A H -0.2615 0.3273 -0.0398
C23A C -0.7696(5) 0.0606(2) -0.5354(4)
N5A N -0.0909(3) -0.01789(12) 0.0811(2)
C24A C -0.5145(3) 0.22909(13) -0.1952(3)
H18A H -0.5562 0.2453 -0.2218
H19A H -0.5252 0.2137 -0.1618
C25A C -0.4508(4) 0.27479(14) -0.1043(3)
N6A N -0.0538(3) 0.03885(11) 0.2028(2)
C26A C -0.6759(3) 0.13171(14) -0.3854(3)
H20A H -0.6862 0.1456 -0.3523
O5A O -0.5549(2) 0.15932(10) -0.34225(19)
O6A O -0.4486(2) 0.25009(10) -0.1539(2)
C28A C -0.5685(3) 0.18201(12) -0.2913(2)
H21A H -0.5774 0.1669 -0.2563
H22A H -0.6115 0.1974 -0.3183
C29A C -0.6098(3) 0.13557(14) -0.3860(3)
C30A C -0.4454(7) 0.3558(2) 0.0533(4)
N8A N 0.1397(3) -0.06609(12) 0.2320(2)
O7A O -0.8285(4) 0.05679(18) -0.5341(3)
O7A_2 O 0.1715(4) 0.05679(18) 0.4659(3)
C31A C -0.7139(3) 0.08715(17) -0.4817(3)
O8A O -0.5266(4) 0.12022(18) -0.4305(4)
N10A N 0.0277(3) -0.12220(18) 0.2126(3)
C32A C -0.6497(4) 0.0903(2) -0.4845(4)
H23A H -0.6404 0.0763 -0.5183
C33A C -0.5958(4) 0.1151(2) -0.4354(4)
C34A C 0.0178(7) -0.1563(4) 0.2291(7)
C35A C 0.0402(11) -0.1902(5) 0.1957(10)
H24A H 0.0598 -0.1903 0.1618
C36A C 0.0217(12) -0.2240(5) 0.2327(13)
H25A H 0.0429 -0.2463 0.2305
C37A C -0.5085(8) 0.1003(4) -0.4855(8)
H26A H -0.4589 0.1059 -0.4760
H27A H -0.5421 0.1078 -0.5353
H28A H -0.5131 0.0743 -0.4804
O9 O -0.1632(18) -0.1509(9) 0.2496(16)
loop_
_geom_bond_atom_site_label_1
_geom_bond_atom_site_label_2
_geom_bond_site_symmetry_1
_geom_bond_site_symmetry_2
Zn1 N1 1_555 1_555
Zn2 N2 1_555 1_555
Zn3 N4 1_555 1_555
C1 H1 1_555 1_555
N1 N4 1_555 1_555
C2 C3 1_555 1_555
C3 N4 1_555 1_555
N2 N3 1_555 1_555
C4 H2 1_555 1_555
C5 H3 1_555 1_555
O1 C30 1_555 1_555
C6 C2 1_555 1_555
H4 C6 1_555 1_555
O2 Zn2 1_555 1_555
C7 C12 1_555 1_555
N3 Zn1 1_555 1_555
O3 C30 1_555 1_555
C8 C1 1_555 1_555
H5 C8 1_555 1_555
C9 N2 1_555 1_555
C10 C4 1_555 1_555
C11 C4 1_555 1_555
C12 H6 1_555 1_555
O4 C11 1_555 1_555
C13 C10 1_555 1_555
H7 C13 1_555 1_555
C14 C1 1_555 1_555
H8 C14 1_555 1_555
C15 C13 1_555 1_555
H9 C15 1_555 1_555
C16 C9 1_555 1_555
C17 C9 1_555 1_555
H10 C17 1_555 1_555
C18 C16 1_555 1_555
H11 C18 1_555 1_555
C19 C17 1_555 1_555
H12 C19 1_555 1_555
C20 C18 1_555 1_555
H13 C20 1_555 1_555
C21 C12 1_555 1_555
H14 C21 1_555 1_555
C22 O4 1_555 1_555
H15 C22 1_555 1_555
H16 C22 1_555 1_555
H17 C22 1_555 1_555
C23 O2 1_555 1_555
N5 N1 1_555 1_555
C24 H18 1_555 1_555
H19 C24 1_555 1_555
C25 C11 1_555 1_555
N6 C7 1_555 1_555
C26 C5 1_555 1_555
H20 C26 1_555 1_555
C27 C24 1_555 1_555
O5 C28 1_555 1_555
O6 C24 1_555 1_555
N7 Zn1 1_555 1_555
C28 C27 1_555 1_555
H21 C28 1_555 1_555
H22 C28 1_555 1_555
C29 C26 1_555 1_555
C30 C10 1_555 1_555
N8 Zn3 1_555 1_555
O7 Zn2 1_555 1_555
N9 Zn1 1_555 1_555
C31 C5 1_555 1_555
O8 C33 1_555 1_555
N10 Zn3 1_555 1_555
C32 C31 1_555 1_555
H23 C32 1_555 1_555
C33 C29 1_555 1_555
C34 N10 1_555 1_555
C35 C34 1_555 1_555
H24 C35 1_555 1_555
C36 C35 1_555 1_555
H25 C36 1_555 1_555
C37 O8 1_555 1_555
H26 C37 1_555 1_555
H27 C37 1_555 1_555
H28 C37 1_555 1_555
Zn2A N5 1_555 1_555
Zn2A_2 O2A 1_555 1_555
Zn3A O1C 1_555 1_555
Zn3B O1 1_555 1_555
Zn3C O1A 1_555 1_555
C1A H1A 1_555 1_555
N1A Zn1 1_555 1_555
C2A C3A 1_555 1_555
C3A N4A 1_555 1_555
N2A Zn2A 1_555 1_555
C4A H2A 1_555 1_555
C5A H3A 1_555 1_555
O1A C30A 1_555 1_555
O1B Zn3 1_555 1_555
C6A C2A 1_555 1_555
H4A C6A 1_555 1_555
O2A C23A 1_555 1_555
O2A_2 Zn2A 1_555 1_555
C7A C7 1_555 1_555
N3A Zn1 1_555 1_555
N4A Zn3A 1_555 1_555
O3A Zn3C 1_555 1_555
O3B Zn3 1_555 1_555
O3C Zn3A 1_555 1_555
C8A C1A 1_555 1_555
H5A C8A 1_555 1_555
C9A N2A 1_555 1_555
C10A C4A 1_555 1_555
C11A C4A 1_555 1_555
C12A C7A 1_555 1_555
H6A C12A 1_555 1_555
O4A C11A 1_555 1_555
C13A C10A 1_555 1_555
H7A C13A 1_555 1_555
C14A C1A 1_555 1_555
H8A C14A 1_555 1_555
C15A C13A 1_555 1_555
H9A C15A 1_555 1_555
C16A C9A 1_555 1_555
C17A C9A 1_555 1_555
H10A C17A 1_555 1_555
C18A C16A 1_555 1_555
H11A C18A 1_555 1_555
C19A C17A 1_555 1_555
H12A C19A 1_555 1_555
C20A C18A 1_555 1_555
H13A C20A 1_555 1_555
C21A C21 1_555 1_555
H14A C21A 1_555 1_555
C22A O4A 1_555 1_555
H15A C22A 1_555 1_555
H16A C22A 1_555 1_555
H17A C22A 1_555 1_555
C23A O7A 1_555 1_555
N5A Zn2 1_555 1_555
C24A C27 1_555 1_555
H18A C24A 1_555 1_555
H19A C24A 1_555 1_555
C25A C11A 1_555 1_555
N6A Zn2 1_555 1_555
C26A C5A 1_555 1_555
H20A C26A 1_555 1_555
O5A C28A 1_555 1_555
O6A C24A 1_555 1_555
C28A C27 1_555 1_555
H21A C28A 1_555 1_555
H22A C28A 1_555 1_555
C29A C26A 1_555 1_555
C30A O3A 1_555 1_555
N8A Zn3A 1_555 1_555
O7A Zn2A_2 1_555 1_555
O7A_2 Zn2A 1_555 1_555
C31A C5A 1_555 1_555
O8A C33A 1_555 1_555
N10A N9 1_555 1_555
C32A C31A 1_555 1_555
H23A C32A 1_555 1_555
C33A C29A 1_555 1_555
C34A C34 1_555 1_555
C35A C34A 1_555 1_555
H24A C35A 1_555 1_555
C36A C36 1_555 1_555
H25A C36A 1_555 1_555
C37A O8A 1_555 1_555
H26A C37A 1_555 1_555
H27A C37A 1_555 1_555
H28A C37A 1_555 1_555
C2 N5 1_555 1_555
C3 C8 1_555 1_555
C6 C14 1_555 1_555
N3 N8 1_555 1_555
O3 Zn3B 1_555 1_555
C15 C25 1_555 1_555
C16 N8 1_555 1_555
C19 C20 1_555 1_555
C23 O7 1_555 1_555
C23 C31 1_555 1_555
C25 O6 1_555 1_555
N6 N7 1_555 1_555
N6 Zn2A 1_555 1_555
O5 C29 1_555 1_555
N7 N6A 1_555 1_555
N9 N10 1_555 1_555
C32 C33 1_555 1_555
Zn3A N10A 1_555 1_555
N1A N4A 1_555 1_555
N1A N5A 1_555 1_555
C2A N5A 1_555 1_555
C3A C8A 1_555 1_555
N2A N3A 1_555 1_555
C6A C14A 1_555 1_555
C7A N6A 1_555 1_555
N3A N8A 1_555 1_555
C10A C30A 1_555 1_555
C12A C21A 1_555 1_555
C15A C25A 1_555 1_555
C16A N8A 1_555 1_555
C19A C20A 1_555 1_555
C23A C31A 1_555 1_555
C25A O6A 1_555 1_555
O5A C29A 1_555 1_555
N10A C34A 1_555 1_555
C32A C33A 1_555 1_555
C35A C36A 1_555 1_555

#END
