
#######################################################################
#
#                 Cambridge Crystallographic Data Centre
#                                CCDC 
#
#######################################################################
#
# If this CIF has been generated from an entry in the Cambridge 
# Structural Database, then it will include bibliographic, chemical, 
# crystal, experimental, refinement or atomic coordinate data resulting 
# from the CCDC's data processing and validation procedures.
#
#######################################################################

data_FAYQIH
_chemical_name_common            DMOF-9
_chemical_formula_moiety         '(C77 H56 N18 O12 Zn5)n'
_chemical_name_systematic        
'catena-[(\m~4~-tetrakis((4-(2-Carboxylatoethenyl)phenoxy)methyl)methane)-hexakis(\m~3~-benzotriazolyl)-penta-zinc(ii) unknown solvate]'
_symmetry_cell_setting           monoclinic
_symmetry_space_group_name_H-M   'C 2/c'
_symmetry_Int_Tables_number      15
_space_group_name_Hall           '-C 2yc'
loop_
_symmetry_equiv_pos_site_id
_symmetry_equiv_pos_as_xyz
1 x,y,z
2 -x,y,1/2-z
3 1/2+x,1/2+y,z
4 1/2-x,1/2+y,1/2-z
5 -x,-y,-z
6 x,-y,1/2+z
7 1/2-x,1/2-y,-z
8 1/2+x,1/2-y,1/2+z
_cell_length_a                   46.126(4)
_cell_length_b                   25.5413(18)
_cell_length_c                   26.5951(18)
_cell_angle_alpha                90
_cell_angle_beta                 124.513(2)
_cell_angle_gamma                90
_cell_volume                     25817.6
_exptl_crystal_colour            colorless
_exptl_crystal_description       block
_cell_formula_units_Z            8
loop_
_atom_site_label
_atom_site_type_symbol
_atom_site_fract_x
_atom_site_fract_y
_atom_site_fract_z
Zn1 Zn 0.287192(13) 0.078886(18) 1.12112(2)
Zn2 Zn 0.236051(14) 0.08498(2) 0.95832(2)
Zn3 Zn 0.230406(16) 0.06953(2) 1.17218(3)
Zn4 Zn 0.339669(16) 0.19553(2) 1.18383(3)
Zn5 Zn 0.343296(19) -0.03440(3) 1.17161(3)
C1 C 0.27500(18) 0.2606(3) 0.9329(3)
H1 H 0.2676 0.2761 0.8957
C2 C 0.13985(16) 0.0538(2) 0.3101(3)
H2 H 0.1606 0.0345 0.3310
C3 C 0.3018(2) 0.2860(2) 0.9889(4)
H3 H 0.3110 0.3175 0.9864
C4 C 0.3024(4) -0.1301(5) 1.2873(7)
H4 H 0.3123 -0.1606 1.3097
C5 C 0.3186(2) -0.0877(3) 1.0222(4)
H5 H 0.3364 -0.1075 1.0544
C6 C 0.0995(2) 0.1078(3) 0.2263(3)
H6 H 0.0932 0.1260 0.1912
C7 C 0.2607(3) 0.2394(4) 1.2888(5)
H7 H 0.2507 0.2520 1.3084
C8 C 0.1508(2) 0.1112(4) 0.6466(3)
H8 H 0.1697 0.1336 0.6710
C9 C 0.4610(5) 0.0523(5) 1.2950(8)
H9 H 0.4817 0.0348 1.3071
C10 C 0.2737(4) -0.1039(4) 1.2856(5)
H10 H 0.2650 -0.1202 1.3057
C11 C 0.17510(13) 0.07107(16) 1.0301(2)
C12 C 0.2775(3) -0.0686(5) 0.9125(5)
H11 H 0.2673 -0.0790 0.8723
C13 C 0.4265(3) 0.0241(5) 1.2652(6)
H12 H 0.4252 -0.0122 1.2656
C14 C 0.17669(13) 0.07488(16) 0.9802(2)
C15 C 0.2865(3) 0.2693(4) 1.2901(5)
H13 H 0.2926 0.3014 1.3100
C16 C 0.4270(2) 0.1380(3) 1.2718(4)
H14 H 0.4274 0.1744 1.2744
C17 C 0.04497(11) 0.08012(17) 0.38093(17)
O1 O 0.02130(9) -0.00400(16) 0.34633(16)
C18 C 0.14263(15) 0.0668(2) 1.0246(3)
H15 H 0.1419 0.0640 1.0587
C19 C 0.3022(4) -0.0989(4) 0.9572(7)
H16 H 0.3094 -0.1285 0.9468
C20 C -0.0023(2) 0.2344(4) 0.3275(5)
H17 H 0.0155 0.2293 0.3215
C21 C 0.1168(3) 0.0463(3) 0.6379(3)
H18 H 0.1106 0.0203 0.6545
C22 C 0.3031(2) 0.2538(3) 1.2640(4)
H19 H 0.3202 0.2743 1.2655
C23 C -0.0303(2) 0.2088(4) 0.3726(4)
H20 H -0.0327 0.1862 0.3974
C24 C 0.2498(2) 0.1919(3) 1.2594(4)
H21 H 0.2324 0.1722 1.2583
C25 C 0.27977(18) -0.0139(3) 0.9811(3)
C26 C 0.29978(13) 0.21754(19) 1.0451(3)
C27 C 0.4604(2) 0.1024(6) 1.3031(6)
H22 H 0.4820 0.1186 1.3300
C28 C 0.2676(2) -0.0272(3) 0.9223(4)
H23 H 0.2520 -0.0053 0.8901
C29 C -0.00538(16) -0.0418(3) 0.3184(3)
O2 O 0.01133(11) 0.15155(17) 0.38194(16)
C30 C 0.26066(14) 0.2154(2) 0.9334(2)
H24 H 0.2425 0.1996 0.8977
C31 C 0.01212(13) 0.0467(2) 0.3385(2)
H25 H -0.0052 0.0525 0.3478
H26 H 0.0017 0.0567 0.2964
C32 C -0.05536(17) -0.1223(3) 0.2692(3)
C33 C 0.2016(2) 0.0798(3) 0.8454(2)
C34 C 0.16197(18) 0.0712(3) 0.7412(3)
H27 H 0.1519 0.0477 0.7537
C35 C 0.10614(17) 0.0871(3) 0.5476(3)
C36 C 0.03436(15) 0.1386(2) 0.3675(2)
H28 H 0.0553 0.1602 0.3909
H29 H 0.0237 0.1456 0.3245
C37 C 0.07433(12) 0.06776(19) 0.37006(19)
H30 H 0.0962 0.0847 0.4009
H31 H 0.0784 0.0303 0.3720
C38 C 0.05863(13) 0.06538(19) 0.4471(2)
H32 H 0.0407 0.0723 0.4546
H33 H 0.0645 0.0285 0.4542
C39 C 0.1990(3) 0.0690(3) 0.2202(5)
C40 C 0.1518(2) 0.0822(3) 0.2300(4)
H34 H 0.1413 0.0946 0.1905
C41 C 0.14500(15) 0.07636(18) 0.9203(2)
H35 H 0.1451 0.0802 0.8857
C42 C 0.07748(17) 0.1088(2) 0.2465(3)
H36 H 0.0562 0.1267 0.2242
C43 C -0.06547(15) -0.0730(3) 0.2620(3)
H37 H -0.0893 -0.0651 0.2403
C44 C 0.26666(17) 0.1741(3) 1.2304(3)
C45 C 0.14254(18) 0.0778(3) 0.6736(2)
C46 C -0.0073(2) 0.2005(3) 0.3581(4)
C47 C 0.0971(2) 0.0515(3) 0.5700(3)
H38 H 0.0784 0.0291 0.5445
C48 C -0.04006(19) -0.0312(2) 0.2873(3)
H39 H -0.0476 0.0034 0.2820
C49 C 0.11437(15) 0.0718(2) 0.9170(3)
H40 H 0.0933 0.0720 0.8785
C50 C 0.11280(16) 0.0670(2) 0.9672(3)
H41 H 0.0910 0.0639 0.9615
C51 C 0.11796(17) 0.0559(2) 0.3322(3)
H42 H 0.1243 0.0390 0.3681
C52 C 0.2575(2) -0.0541(3) 1.2550(4)
H43 H 0.2395 -0.0384 1.2556
C53 C -0.1315(2) -0.2183(4) 0.2092(3)
C54 C 0.29278(17) 0.2040(2) 1.2336(2)
C55 C -0.11089(19) -0.1677(3) 0.2273(3)
H44 H -0.1224 -0.1364 0.2231
C56 C 0.1803(3) 0.0688(3) 0.2568(4)
H45 H 0.1923 0.0583 0.2973
C57 C 0.39647(18) 0.1081(4) 1.2395(3)
C58 C 0.31439(15) 0.2660(2) 1.0461(3)
H46 H 0.3311 0.2831 1.0821
C59 C 0.1873(2) 0.0906(3) 0.7798(3)
H47 H 0.1993 0.1135 0.7704
C60 C 0.1299(2) 0.0806(3) 0.2573(4)
C61 C 0.3035(2) -0.0430(2) 1.0284(4)
C62 C 0.3142(2) -0.1092(3) 1.2559(4)
H48 H 0.3314 -0.1254 1.2535
C63 C -0.07846(18) -0.1665(3) 0.2481(3)
H49 H -0.0684 -0.1986 0.2498
C64 C -0.0199(2) -0.1316(3) 0.2984(4)
H50 H -0.0124 -0.1660 0.3014
C65 C 0.3965(2) 0.0556(4) 1.2366(3)
C66 C 0.2714(2) -0.0323(3) 1.2247(3)
C67 C 0.00492(19) -0.0925(3) 0.3235(4)
H51 H 0.0287 -0.1007 0.3439
C68 C 0.2978(2) -0.0574(3) 1.2244(3)
C69 C 0.1328(2) 0.1159(4) 0.5820(3)
H52 H 0.1405 0.1396 0.5654
C70 C -0.0504(3) 0.2840(4) 0.3065(5)
C71 C -0.0229(3) 0.2768(4) 0.3045(6)
H53 H -0.0174 0.3024 0.2863
C72 C -0.0504(3) 0.2537(4) 0.3478(6)
H54 H -0.0647 0.2635 0.3605
C73 C 0.08716(16) 0.0837(2) 0.2986(3)
C74 C 0.27455(13) 0.1928(2) 0.9914(2)
N1 N 0.26735(9) 0.14649(14) 1.00744(17)
N2 N 0.28766(9) 0.14406(14) 1.06828(17)
N3 N 0.30755(9) 0.18654(15) 1.09207(16)
N4 N 0.36341(13) 0.12414(18) 1.2051(2)
N5 N 0.34482(11) 0.0800(2) 1.18241(17)
N6 N 0.36458(15) 0.03748(17) 1.2003(2)
N7 N 0.31016(11) -0.01946(18) 1.08029(19)
N8 N 0.28978(10) 0.02214(15) 1.06161(18)
N9 N 0.27082(10) 0.02586(15) 1.00097(19)
N10 N 0.21036(10) 0.07800(12) 0.99969(16)
N11 N 0.22881(9) 0.07629(12) 1.06046(16)
N12 N 0.20860(10) 0.07235(13) 1.08107(16)
N13 N 0.26448(11) 0.01226(16) 1.19287(18)
N14 N 0.28568(12) 0.01321(16) 1.17443(16)
N15 N 0.30762(12) -0.02859(19) 1.19171(19)
N16 N 0.26264(11) 0.13013(16) 1.19709(17)
N17 N 0.28480(11) 0.13543(15) 1.18045(16)
N18 N 0.30342(10) 0.17869(17) 1.20146(17)
O3 O -0.11939(14) -0.2581(2) 0.2057(3)
O4 O -0.16181(17) -0.2166(2) 0.1917(3)
O5 O 0.22990(18) 0.10558(19) 0.8783(2)
O6 O 0.19377(16) 0.0586(3) 0.8701(2)
O7 O 0.18711(15) 0.0825(3) 0.1703(2)
O8 O 0.2305(2) 0.0575(3) 0.2559(3)
C75 C -0.0752(3) 0.3274(4) 0.2863(6)
H55 H -0.0828 0.3366 0.3109
O9 O 0.08844(10) 0.09563(15) 0.48589(15)
O10 O 0.06260(9) 0.08644(13) 0.31350(15)
O11 O -0.1165(3) 0.4226(4) 0.1704(4)
O12 O -0.1322(3) 0.4055(4) 0.2192(7)
C76 C -0.0865(3) 0.3521(4) 0.2406(6)
H56 H -0.0765 0.3442 0.2194
C77 C -0.1154(3) 0.3955(4) 0.2112(6)
Zn3_2 Zn 0.230406(16) 0.06953(2) 0.17218(3)
Zn4B Zn -0.160331(16) -0.30447(2) 0.18383(3)
Zn5B Zn -0.156704(19) 0.46560(3) 0.17161(3)
O3B O 0.38061(14) 0.2419(2) 1.2057(3)
O4B O 0.33819(17) 0.2834(2) 1.1917(3)
O7_2 O 0.18711(15) 0.0825(3) 1.1703(2)
O8_2 O 0.2305(2) 0.0575(3) 1.2559(3)
O11B O 0.3835(3) -0.0774(4) 1.1704(4)
O12B O 0.3678(3) -0.0945(4) 1.2192(7)
loop_
_geom_bond_atom_site_label_1
_geom_bond_atom_site_label_2
_geom_bond_site_symmetry_1
_geom_bond_site_symmetry_2
Zn1 N2 1_555 1_555
Zn2 N1 1_555 1_555
Zn3 N12 1_555 1_555
Zn4 N3 1_555 1_555
Zn5 N6 1_555 1_555
C1 H1 1_555 1_555
C2 H2 1_555 1_555
C3 C1 1_555 1_555
H3 C3 1_555 1_555
C4 H4 1_555 1_555
C5 H5 1_555 1_555
C6 H6 1_555 1_555
C7 H7 1_555 1_555
C8 H8 1_555 1_555
C9 H9 1_555 1_555
C10 C4 1_555 1_555
H10 C10 1_555 1_555
C11 C14 1_555 1_555
C12 H11 1_555 1_555
C13 C9 1_555 1_555
H12 C13 1_555 1_555
C14 C41 1_555 1_555
C15 C7 1_555 1_555
H13 C15 1_555 1_555
C16 H14 1_555 1_555
C17 C31 1_555 1_555
O1 C29 1_555 1_555
C18 C11 1_555 1_555
H15 C18 1_555 1_555
C19 C5 1_555 1_555
H16 C19 1_555 1_555
C20 H17 1_555 1_555
C21 H18 1_555 1_555
C22 C15 1_555 1_555
H19 C22 1_555 1_555
C23 H20 1_555 1_555
C24 C7 1_555 1_555
H21 C24 1_555 1_555
C25 C28 1_555 1_555
C26 C58 1_555 1_555
C27 C9 1_555 1_555
H22 C27 1_555 1_555
C28 C12 1_555 1_555
H23 C28 1_555 1_555
C29 C48 1_555 1_555
O2 C36 1_555 1_555
C30 C1 1_555 1_555
H24 C30 1_555 1_555
C31 O1 1_555 1_555
H25 C31 1_555 1_555
H26 C31 1_555 1_555
C32 C43 1_555 1_555
C33 C59 1_555 1_555
C34 H27 1_555 1_555
C35 C47 1_555 1_555
C36 C17 1_555 1_555
H28 C36 1_555 1_555
H29 C36 1_555 1_555
C37 C17 1_555 1_555
H30 C37 1_555 1_555
H31 C37 1_555 1_555
C38 C17 1_555 1_555
H32 C38 1_555 1_555
H33 C38 1_555 1_555
C39 C56 1_555 1_555
C40 H34 1_555 1_555
C41 H35 1_555 1_555
C42 C6 1_555 1_555
H36 C42 1_555 1_555
C43 H37 1_555 1_555
C44 C24 1_555 1_555
C45 C8 1_555 1_555
C46 C20 1_555 1_555
C47 C21 1_555 1_555
H38 C47 1_555 1_555
C48 C43 1_555 1_555
H39 C48 1_555 1_555
C49 C41 1_555 1_555
H40 C49 1_555 1_555
C50 C18 1_555 1_555
H41 C50 1_555 1_555
C51 C2 1_555 1_555
H42 C51 1_555 1_555
C52 C10 1_555 1_555
H43 C52 1_555 1_555
C53 C55 1_555 1_555
C54 C22 1_555 1_555
C55 H44 1_555 1_555
C56 C40 1_555 1_555
H45 C56 1_555 1_555
C57 C16 1_555 1_555
C58 C3 1_555 1_555
H46 C58 1_555 1_555
C59 C34 1_555 1_555
H47 C59 1_555 1_555
C60 C2 1_555 1_555
C61 C5 1_555 1_555
C62 C4 1_555 1_555
H48 C62 1_555 1_555
C63 C32 1_555 1_555
H49 C63 1_555 1_555
C64 C32 1_555 1_555
H50 C64 1_555 1_555
C65 C13 1_555 1_555
C66 C52 1_555 1_555
C67 C29 1_555 1_555
H51 C67 1_555 1_555
C68 C62 1_555 1_555
C69 C8 1_555 1_555
H52 C69 1_555 1_555
C70 C71 1_555 1_555
C71 C20 1_555 1_555
H53 C71 1_555 1_555
C72 C23 1_555 1_555
H54 C72 1_555 1_555
C73 C42 1_555 1_555
C74 C26 1_555 1_555
N1 C74 1_555 1_555
N2 N1 1_555 1_555
N3 C26 1_555 1_555
N4 Zn4 1_555 1_555
N5 Zn1 1_555 1_555
N6 C65 1_555 1_555
N7 Zn5 1_555 1_555
N8 Zn1 1_555 1_555
N9 Zn2 1_555 1_555
N10 Zn2 1_555 1_555
N11 Zn1 1_555 1_555
N12 C11 1_555 1_555
N13 Zn3 1_555 1_555
N14 Zn1 1_555 1_555
N15 Zn5 1_555 1_555
N16 Zn3 1_555 1_555
N17 Zn1 1_555 1_555
N18 Zn4 1_555 1_555
O3 C53 1_555 1_555
O4 C53 1_555 1_555
O5 Zn2 1_555 1_555
O6 Zn2 1_555 1_555
O7 C39 1_555 1_555
O8 C39 1_555 1_555
C75 C70 1_555 1_555
H55 C75 1_555 1_555
O9 C35 1_555 1_555
O10 C37 1_555 1_555
O11 C77 1_555 1_555
O12 C77 1_555 1_555
C76 C75 1_555 1_555
H56 C76 1_555 1_555
C77 C76 1_555 1_555
Zn3_2 O7 1_555 1_555
Zn4B O3 1_555 1_555
Zn5B O11 1_555 1_555
O3B Zn4 1_555 1_555
O4B Zn4 1_555 1_555
O7_2 Zn3 1_555 1_555
O8_2 Zn3 1_555 1_555
O11B Zn5 1_555 1_555
O12B Zn5 1_555 1_555
C6 C60 1_555 1_555
C12 C19 1_555 1_555
C14 N10 1_555 1_555
C16 C27 1_555 1_555
C21 C45 1_555 1_555
C23 C46 1_555 1_555
C25 C61 1_555 1_555
C25 N9 1_555 1_555
O2 C46 1_555 1_555
C30 C74 1_555 1_555
C33 O5 1_555 1_555
C33 O6 1_555 1_555
C34 C45 1_555 1_555
C35 C69 1_555 1_555
C38 O9 1_555 1_555
C40 C60 1_555 1_555
C44 C54 1_555 1_555
C44 N16 1_555 1_555
C49 C50 1_555 1_555
C51 C73 1_555 1_555
C54 N18 1_555 1_555
C55 C63 1_555 1_555
C57 C65 1_555 1_555
C57 N4 1_555 1_555
C61 N7 1_555 1_555
C64 C67 1_555 1_555
C66 C68 1_555 1_555
C66 N13 1_555 1_555
C68 N15 1_555 1_555
C70 C72 1_555 1_555
C73 O10 1_555 1_555
N2 N3 1_555 1_555
N4 N5 1_555 1_555
N5 N6 1_555 1_555
N7 N8 1_555 1_555
N8 N9 1_555 1_555
N10 N11 1_555 1_555
N11 N12 1_555 1_555
N13 N14 1_555 1_555
N14 N15 1_555 1_555
N16 N17 1_555 1_555
N17 N18 1_555 1_555
O4 Zn4B 1_555 1_555
O8 Zn3_2 1_555 1_555
O12 Zn5B 1_555 1_555

#END
